data_mof_unit_68258.cif
_audit_creation_date              2012-12-11T17:41:03-0500
_audit_creation_method            fapswitch 2.2
_symmetry_space_group_name_H-M    P1
_symmetry_Int_Tables_number       1
_space_group_crystal_system       triclinic
_cell_length_a                    8.185827
_cell_length_b                    12.662956
_cell_length_c                    14.196724
_cell_angle_alpha                 92.792559
_cell_angle_beta                  90.649893
_cell_angle_gamma                 98.314504
_cell_volume                      1454.13806049

loop_
_atom_site_label
_atom_site_type_symbol
_atom_type_description
_atom_site_fract_x
_atom_site_fract_y
_atom_site_fract_z
_atom_type_partial_charge
Ba1   Ba    Ba6+2 0.855630 0.555280 0.454520 1.637630
Ba2   Ba    Ba6+2 0.334200 0.444810 0.545490 1.666332
C1    C     C_3   0.602988 0.948216 0.178414 -0.410979
C2    C     C_3   0.648030 0.856972 0.234554 0.340608
C3    C     C_3   0.475684 0.310030 0.257739 0.298590
C4    C     C_3   0.456621 0.287791 0.151603 -0.382174
C5    C     C_3   0.029934 0.177157 0.805802 1.037585
C6    C     C_3   0.033429 0.125909 0.900393 -0.279360
C7    C     C_3   0.528939 0.140957 0.767669 0.339832
C8    C     C_3   0.572915 0.051270 0.826199 -0.421692
C9    C     C_R   0.986479 0.442387 0.061090 -0.033688
C10   C     C_R   0.183367 0.498423 0.195890 0.041556
C11   C     C_R   0.338276 0.550485 0.226036 -0.294976
C12   C     C_3   0.143418 0.804490 0.194765 0.359973
C13   C     C_R   0.450839 0.597773 0.162366 0.017898
C14   C     C_R   0.405679 0.601135 0.067577 -0.148118
C15   C     C_R   0.248820 0.552355 0.034756 -0.001663
C16   C     C_R   0.137829 0.496824 0.098036 -0.023850
C17   C     C_R   0.053219 0.502143 0.901909 0.024962
C18   C     C_R   0.942707 0.445986 0.965087 0.026789
C19   C     C_R   0.008094 0.499903 0.803906 0.103608
C20   C     C_R   0.855557 0.444543 0.773231 -0.234209
C21   C     C_R   0.742863 0.397457 0.836869 -0.016652
C22   C     C_R   0.786830 0.395801 0.931990 -0.137972
C23   C     C_3   0.128337 0.842084 0.095291 -0.364341
C24   C     C_R   0.204331 0.556877 0.938938 -0.034722
C25   C     C_R   0.762463 0.176703 0.537383 -0.269569
C26   C     C_R   0.429036 0.813200 0.461301 -0.286213
C27   C     C_R   0.405651 0.994894 0.427568 -0.105037
C28   C     C_R   0.340788 0.887404 0.422902 -0.007932
C29   C     C_R   0.575889 0.846285 0.512460 0.066024
C30   C     C_R   0.640284 0.956952 0.522216 -0.053025
C31   C     C_R   0.554654 0.031552 0.477274 -0.062378
C32   C     C_R   0.618389 0.141332 0.485099 0.043836
C33   C     C_R   0.851550 0.104600 0.577749 -0.031979
C34   C     C_3   0.225524 0.762896 0.656263 0.280687
C35   C     C_R   0.788501 0.995686 0.573399 -0.096354
C36   C     C_3   0.235053 0.882359 0.676635 -0.354367
C37   C     C_3   0.969473 0.236892 0.344392 0.280472
C38   C     C_3   0.956233 0.117339 0.322904 -0.352413
C39   C     C_3   0.713928 0.672360 0.737913 0.309260
C40   C     C_3   0.730655 0.695662 0.844064 -0.397400
H1    H     H_    0.740107 0.889496 0.290515 0.079237
H2    H     H_    0.317205 0.907242 0.738575 0.112694
H3    H     H_    0.284533 0.926540 0.615346 0.081822
H4    H     H_    0.110125 0.902301 0.692033 0.133807
H5    H     H_    0.848415 0.257106 0.365647 0.001098
H6    H     H_    0.060471 0.258880 0.402962 0.080068
H7    H     H_    0.866186 0.093062 0.264358 0.113992
H8    H     H_    0.914432 0.073181 0.385632 0.085903
H9    H     H_    0.078510 0.096591 0.302145 0.142596
H10   H     H_    0.611977 0.605404 0.723706 0.061266
H11   H     H_    0.554427 0.007867 0.226266 0.103841
H12   H     H_    0.838435 0.758095 0.860599 0.125805
H13   H     H_    0.748288 0.622446 0.880231 0.049062
H14   H     H_    0.617116 0.724196 0.871130 0.121144
H15   H     H_    0.534246 0.820160 0.269178 -0.051389
H16   H     H_    0.506930 0.916874 0.124347 0.113733
H17   H     H_    0.357945 0.331487 0.285244 0.017535
H18   H     H_    0.576244 0.378111 0.271446 0.059722
H19   H     H_    0.351936 0.222983 0.135503 0.130941
H20   H     H_    0.432262 0.360767 0.116974 0.067655
H21   H     H_    0.571665 0.263037 0.122826 0.117304
H22   H     H_    0.713182 0.987542 0.142129 0.130023
H23   H     H_    0.167404 0.782470 0.043543 0.064533
H24   H     H_    0.899660 0.181885 0.786928 -0.267098
H25   H     H_    0.162999 0.122941 0.922983 0.126686
H26   H     H_    0.974205 0.173327 0.954547 0.061209
H27   H     H_    0.641470 0.174639 0.730152 -0.041400
H28   H     H_    0.434281 0.107429 0.713505 0.085053
H29   H     H_    0.668252 0.083854 0.880261 0.114420
H30   H     H_    0.621648 0.990171 0.779969 0.091012
H31   H     H_    0.060729 0.727382 0.199510 0.092575
H32   H     H_    0.462116 0.013352 0.862837 0.128644
H33   H     H_    0.374621 0.550169 0.299534 0.071555
H34   H     H_    0.493535 0.640677 0.019535 0.070231
H35   H     H_    0.698457 0.356994 0.980151 0.061981
H36   H     H_    0.819874 0.443686 0.699539 0.046408
H37   H     H_    0.900621 0.396709 0.106203 0.094341
H38   H     H_    0.290052 0.602723 0.893871 0.086681
H39   H     H_    0.334911 0.048730 0.394252 0.103348
H40   H     H_    0.858758 0.942985 0.608412 0.098667
H41   H     H_    0.811377 0.260940 0.541562 0.057767
H42   H     H_    0.273045 0.791935 0.207193 -0.069048
H43   H     H_    0.377946 0.729365 0.456110 0.069784
H44   H     H_    0.998420 0.851673 0.079226 0.153567
H45   H     H_    0.208010 0.919990 0.088388 0.109548
H46   H     H_    0.349328 0.743985 0.638993 0.005003
H47   H     H_    0.139463 0.739992 0.595347 0.077527
O1    O     O_2   0.887370 0.460630 0.272300 -0.467248
O2    O     O_3   0.680515 0.764710 0.695901 -0.642401
O3    O     O_3   0.097494 0.881749 0.259738 -0.602410
O4    O     O_2   0.302330 0.539400 0.727760 -0.458574
O5    O     O_3   0.060300 0.548700 0.611500 -0.501691
O6    O     O_3   0.519500 0.346920 0.670840 -0.472265
O7    O     O_3   0.171515 0.711059 0.737352 -0.649680
O8    O     O_3   0.614310 0.373510 0.452640 -0.481495
O9    O     O_3   0.100780 0.295230 0.623970 -0.427498
O10   O     O_2   0.189846 0.111022 0.562839 -0.492273
O11   O     O_3   0.103497 0.115436 0.738082 -0.636154
O12   O     O_3   0.129410 0.451380 0.388510 -0.496889
O13   O     O_3   0.575400 0.626570 0.547370 -0.493139
O14   O     O_2   0.344320 0.238700 0.455090 -0.468041
O15   O     O_3   0.513983 0.218093 0.299092 -0.650746
O16   O     O_2   0.409043 0.413583 0.836019 -0.421447
O17   O     O_3   0.463415 0.215716 0.827488 -0.557720
O18   O     O_3   0.670210 0.653170 0.329170 -0.478099
O19   O     O_2   0.790160 0.591693 0.164613 -0.496484
O20   O     O_3   0.017328 0.289032 0.262527 -0.639251
O21   O     O_3   0.718013 0.785627 0.173410 -0.594157
O22   O     O_2   0.845380 0.761330 0.544970 -0.471625
O23   O     O_3   0.088930 0.704860 0.376040 -0.490389
O24   O     O_2   0.002156 0.889370 0.434792 -0.484580
P1    P     P_3+3 0.054400 0.427280 0.286870 0.969699
P2    P     P_3+3 0.668300 0.742890 0.573060 0.968071
P3    P     P_3+3 0.132700 0.842864 0.374049 0.946772
P4    P     P_3+3 0.135310 0.572810 0.713130 0.985748
P5    P     P_3+3 0.059914 0.155632 0.625346 0.992779
P6    P     P_3+3 0.657614 0.654667 0.206412 0.956314
P7    P     P_3+3 0.526612 0.241603 0.421652 0.930789
P8    P     P_3+3 0.533954 0.345067 0.793570 1.033933
H48   H     H_    0.830831 0.649700 0.711151 0.000733
F1    F     F_    0.117111 0.279021 0.815203 -0.686942
H49   H     H_    0.965456 0.043259 0.894552 0.030933

loop_
_geom_bond_atom_site_label_1
_geom_bond_atom_site_label_2
_ccdc_geom_bond_type
C34   H47   S    
C39   H48   S    
C9    C16   A    
Ba1   O1    S    
C8    H32   S    
C39   C40   S    
C17   C18   A    
C12   H42   S    
C5    C6    S    
C21   P8    S    
C28   P3    S    
C1    H22   S    
C34   H46   S    
C36   H2    S    
C15   C24   A    
C4    H19   S    
Ba2   O6    S    
C17   C19   A    
C7    H27   S    
Ba1   O23   S    
C3    C4    S    
O5    P4    S    
Ba2   O13   S    
C13   C14   A    
C27   C31   A    
C23   H45   S    
Ba1   Ba2   S    
O18   P6    S    
C17   C24   A    
C36   H3    S    
C19   P4    S    
O13   P2    S    
C40   H14   S    
C18   C22   A    
Ba2   O8    S    
O2    P2    S    
C14   C15   A    
C2    H15   S    
C21   C22   A    
O9    P5    S    
C7    C8    S    
C39   H10   S    
O24   P3    D    
C8    H29   S    
O6    P8    S    
C3    O15   S    
C19   C20   A    
O12   P1    S    
O19   P6    D    
O4    P4    D    
C29   P2    S    
Ba2   P4    S    
C15   C16   A    
C10   P1    S    
C26   C29   A    
C25   C32   A    
C32   P7    S    
C9    C18   A    
C5    O11   S    
C3    H17   S    
C12   H31   S    
C11   H33   S    
O7    P4    S    
Ba2   O5    S    
C23   H23   S    
C7    H28   S    
C20   H36   S    
Ba1   O8    S    
C37   C38   S    
C6    H49   S    
Ba2   O12   S    
C25   C33   A    
C7    O17   S    
C24   H38   S    
C4    H21   S    
C27   H39   S    
C27   C28   A    
C40   H13   S    
C34   O7    S    
C29   C30   A    
C31   C32   A    
O16   P8    D    
C30   C35   A    
O3    P3    S    
C12   O3    S    
C9    H37   S    
O20   P1    S    
Ba1   O18   S    
C39   O2    S    
C6    H26   S    
C11   C13   A    
C35   H40   S    
O11   P5    S    
Ba1   P1    S    
C1    C2    S    
Ba1   O12   S    
O23   P3    S    
C34   C36   S    
C37   H5    S    
C2    O21   S    
C3    H18   S    
C33   C35   A    
C14   H34   S    
Ba2   O4    S    
C5    F1    S    
O21   P6    S    
Ba1   O5    S    
C2    H1    S    
C38   H9    S    
C30   C31   A    
C4    H20   S    
O8    P7    S    
C25   H41   S    
Ba1   O22   S    
O10   P5    D    
C1    H11   S    
Ba2   O14   S    
C38   H8    S    
O17   P8    S    
C26   C28   A    
C23   H44   S    
O14   P7    D    
C13   P6    S    
O1    P1    D    
C12   C23   S    
C36   H4    S    
C1    H16   S    
C22   H35   S    
C37   O20   S    
C10   C11   A    
Ba2   O9    S    
C6    H25   S    
C10   C16   A    
C26   H43   S    
C20   C21   A    
C33   P5    S    
O22   P2    D    
Ba1   P2    S    
O15   P7    S    
Ba1   O13   S    
C40   H12   S    
C38   H7    S    
C37   H6    S    
C5    H24   S    
C8    H30   S    
