data_mof_unit_10343.cif
_audit_creation_date              2012-10-26T21:13:37-0400
_audit_creation_method            fapswitch 2.2
_symmetry_space_group_name_H-M    P1
_symmetry_Int_Tables_number       1
_space_group_crystal_system       triclinic
_cell_length_a                    9.076878
_cell_length_b                    10.825481
_cell_length_c                    9.548694
_cell_angle_alpha                 89.764748
_cell_angle_beta                  89.989642
_cell_angle_gamma                 90.209828
_cell_volume                      938.255448289

loop_
_atom_site_label
_atom_site_type_symbol
_atom_type_description
_atom_site_fract_x
_atom_site_fract_y
_atom_site_fract_z
_atom_type_partial_charge
Br1   Br    Br    0.564975 0.132867 0.909205 -0.568400
C1    C     C_R   0.498507 0.262277 0.500296 0.549138
C2    C     C_R   0.580457 0.585675 0.925887 0.153456
C3    C     C_3   0.743212 0.604187 0.920032 -0.270848
C4    C     C_R   0.220675 0.499949 0.499988 0.554063
C5    C     C_3   0.743031 0.604577 0.078917 -0.268405
C6    C     C_R   0.498071 0.737603 0.499736 0.546654
C7    C     C_R   0.779308 0.500103 0.500019 0.552017
C8    C     C_1   0.065531 0.500038 0.500008 -0.057119
C9    C     C_1   0.934428 0.500098 0.500018 -0.063326
C10   C     C_R   0.504482 0.062688 0.625908 0.065354
C11   C     C_R   0.486761 0.128957 0.501173 -0.014396
C12   C     C_R   0.450177 0.935990 0.377405 -0.150484
C13   C     C_R   0.450592 0.064815 0.377940 -0.150033
C14   C     C_R   0.486056 0.870661 0.500062 -0.004844
C15   C     C_R   0.504772 0.935389 0.624729 0.005271
C16   C     C_3   0.627354 0.927020 0.728345 -0.232353
C17   C     C_3   0.627628 0.067235 0.730146 0.043213
C18   C     C_R   0.580299 0.585817 0.073196 0.157313
C19   C     C_R   0.409127 0.424026 0.074803 0.025943
C20   C     C_R   0.408624 0.424466 0.925901 0.039363
Cu1   Cu    Cu3+1 0.499990 0.499980 0.640670 0.972517
Cu2   Cu    Cu3+1 0.500010 0.500020 0.359330 0.956337
H1    H     H_    0.428253 0.113661 0.281053 0.168298
H2    H     H_    0.802369 0.523584 0.875707 0.169759
H3    H     H_    0.427655 0.888152 0.280282 0.153309
H4    H     H_    0.773776 0.694961 0.873491 0.122661
H5    H     H_    0.802343 0.524328 0.124589 0.166713
H6    H     H_    0.773089 0.695701 0.124109 0.134438
H7    H     H_    0.590905 0.883223 0.828064 0.175727
H8    H     H_    0.729331 0.887232 0.682639 0.106296
H9    H     H_    0.730097 0.109480 0.687256 0.134505
H10   H     H_    0.338225 0.360351 0.130910 0.126829
H11   H     H_    0.337156 0.361274 0.870356 0.145956
N1    N     N_R   0.500920 0.500930 0.147930 -0.232404
N2    N     N_R   0.500930 0.500890 0.852020 -0.227026
O1    O     O_R   0.500000 0.319640 0.618810 -0.471711
O2    O     O_R   0.500020 0.319680 0.381230 -0.503704
O3    O     O_R   0.288380 0.499980 0.618770 -0.502790
O4    O     O_R   0.288400 0.500020 0.381190 -0.503605
O5    O     O_R   0.499980 0.680320 0.618770 -0.499478
O6    O     O_R   0.500000 0.680360 0.381190 -0.506380
O7    O     O_R   0.711600 0.499980 0.618810 -0.499478
O8    O     O_R   0.711620 0.500020 0.381230 -0.498345

loop_
_geom_bond_atom_site_label_1
_geom_bond_atom_site_label_2
_ccdc_geom_bond_type
C10   C11   A    
C10   C17   S    
C4    C8    S    
C16   H7    S    
Cu2   O2    S    
Cu1   N2    S    
C8    C9    T    
C1    O2    A    
Cu1   O7    S    
C7    O7    A    
C1    C11   S    
C5    H6    S    
C6    C14   S    
C16   C17   S    
C20   N2    A    
C18   N1    A    
C12   C13   A    
C2    C18   A    
C5    C18   S    
C19   N1    A    
C1    O1    A    
Br1   C17   S    
Cu2   O6    S    
C2    N2    A    
C19   H10   S    
C7    C9    S    
C11   C13   A    
C3    H2    S    
Cu2   N1    S    
C12   C14   A    
C16   H8    S    
C12   H3    S    
C4    O4    A    
Cu1   O5    S    
C17   H9    S    
Cu1   O3    S    
Cu2   O4    S    
C7    O8    A    
C3    H4    S    
C19   C20   A    
C3    C5    S    
C10   C15   A    
C6    O6    A    
C13   H1    S    
C4    O3    A    
Cu1   Cu2   S    
C20   H11   S    
Cu1   O1    S    
C5    H5    S    
C2    C3    S    
C14   C15   A    
C6    O5    A    
C15   C16   S    
Cu2   O8    S    
