data_mof_unit_17791.cif
_audit_creation_date              2012-12-10T17:49:34-0500
_audit_creation_method            fapswitch 2.2
_symmetry_space_group_name_H-M    P1
_symmetry_Int_Tables_number       1
_space_group_crystal_system       triclinic
_cell_length_a                    10.559781
_cell_length_b                    10.69802
_cell_length_c                    10.038475
_cell_angle_alpha                 88.564244
_cell_angle_beta                  90.722541
_cell_angle_gamma                 92.827042
_cell_volume                      1132.22472779

loop_
_atom_site_label
_atom_site_type_symbol
_atom_type_description
_atom_site_fract_x
_atom_site_fract_y
_atom_site_fract_z
_atom_type_partial_charge
C1    C     C_R   0.503410 0.260385 0.501517 0.949973
C2    C     C_3   0.966669 0.619661 0.455726 0.425936
C3    C     C_3   0.039299 0.527301 0.373875 -0.190276
C4    C     C_3   0.122419 0.502718 0.497721 -0.096145
C5    C     C_R   0.687996 0.131496 0.672687 -0.211817
C6    C     C_R   0.771579 0.066092 0.754459 0.422300
C7    C     C_R   0.779830 0.937752 0.742940 -0.124302
C8    C     C_R   0.700782 0.873121 0.654173 -0.163790
C9    C     C_R   0.607856 0.935711 0.578989 0.113413
C10   C     C_R   0.602406 0.066627 0.585481 0.005874
C11   C     C_R   0.511338 0.126878 0.503860 -0.155341
C12   C     C_R   0.257690 0.499357 0.499179 0.935405
C13   C     C_R   0.428965 0.057612 0.418910 0.426597
C14   C     C_R   0.434624 0.930886 0.415536 -0.194993
C15   C     C_R   0.520314 0.870672 0.496085 -0.129208
C16   C     C_R   0.299473 0.382337 0.140351 -0.205234
C17   C     C_R   0.184839 0.352933 0.076329 -0.054058
C18   C     C_R   0.179919 0.360487 0.938264 -0.115300
C19   C     C_R   0.292554 0.379393 0.868118 0.346079
C20   C     C_R   0.399386 0.441573 0.929410 0.113196
C21   C     C_R   0.400641 0.442420 0.072583 0.113121
C22   C     C_R   0.596181 0.556461 0.068994 0.017059
C23   C     C_R   0.507912 0.738590 0.498762 0.901068
C24   C     C_R   0.596344 0.554137 0.927142 -0.148445
C25   C     C_R   0.741987 0.506624 0.500899 0.875439
C26   C     C_3   0.032166 0.395259 0.545501 -0.088781
C27   C     C_3   0.947563 0.418397 0.422457 -0.243916
C28   C     C_3   0.877116 0.511772 0.503484 -0.128568
C29   C     C_3   0.961049 0.488663 0.625843 -0.093531
C30   C     C_3   0.052413 0.597551 0.578745 -0.175843
H1    H     H_    0.899016 0.345140 0.361192 0.202232
H2    H     H_    0.847119 0.887554 0.803481 0.191693
H3    H     H_    0.713198 0.773906 0.645810 0.170643
H4    H     H_    0.367412 0.877974 0.353426 0.201300
H5    H     H_    0.309978 0.353625 0.241310 0.245834
H6    H     H_    0.096677 0.321009 0.888177 0.206135
H7    H     H_    0.673954 0.600143 0.872462 0.150821
H8    H     H_    0.098455 0.671047 0.641701 0.193966
H9    H     H_    0.073881 0.544785 0.270821 0.180199
H10   H     H_    0.691115 0.231926 0.680364 0.167336
N1    N     N_R   0.498800 0.498800 0.142780 -0.119384
N2    N     N_R   0.498760 0.498720 0.857170 -0.111572
O1    O     O_R   0.500000 0.316780 0.614690 -0.564300
O2    O     O_R   0.499990 0.316750 0.385360 -0.608149
O3    O     O_R   0.313960 0.499980 0.614650 -0.603862
O4    O     O_R   0.313940 0.499960 0.385310 -0.658661
O5    O     O_R   0.500010 0.683250 0.614640 -0.632064
O6    O     O_R   0.500000 0.683220 0.385310 -0.557376
O7    O     O_R   0.686060 0.500040 0.614690 -0.669972
O8    O     O_R   0.686040 0.500020 0.385350 -0.587968
Zn1   Zn    Zn3+2 0.500010 0.500020 0.653130 0.993493
Zn2   Zn    Zn3+2 0.499990 0.499980 0.346870 1.022374
C31   C     C_2   0.703116 0.626383 0.132073 0.509027
H11   H     H_    0.798774 0.615881 0.097070 0.090816
O9    O     O_2   0.685162 0.703613 0.215923 -0.481863
C32   C     C_2   0.075691 0.301596 0.153751 0.513313
H12   H     H_    0.089356 0.270419 0.256129 0.134331
O10   O     O_2   0.968999 0.296247 0.105546 -0.509540
Cl1   Cl    Cl    0.310372 0.249509 0.770027 -0.554861
C33   C     C_2   0.062448 0.265836 0.589524 0.479341
H13   H     H_    0.037890 0.231640 0.688262 0.113409
O11   O     O_2   0.113004 0.197135 0.513636 -0.487157
C34   C     C_2   0.916045 0.471198 0.766328 0.399985
H14   H     H_    0.848582 0.395152 0.791660 0.128708
O12   O     O_2   0.953395 0.543413 0.852159 -0.571181
Cl2   Cl    Cl    0.921324 0.770293 0.399725 -0.536008
Cl3   Cl    Cl    0.308986 0.120807 0.320049 -0.571674
Cl4   Cl    Cl    0.863784 0.143336 0.875633 -0.595274

loop_
_geom_bond_atom_site_label_1
_geom_bond_atom_site_label_2
_ccdc_geom_bond_type
C14   H4    S    
O8    Zn2   S    
C34   O12   D    
C2    Cl2   S    
C16   C21   A    
C12   O3    A    
C4    C12   S    
C24   N2    A    
C9    C10   A    
N1    Zn2   S    
C4    C26   S    
C19   C20   A    
C1    C11   S    
N2    Zn1   S    
C2    C30   S    
C6    Cl4   S    
O2    Zn2   S    
C15   C23   S    
C17   C18   A    
C9    C15   A    
C3    H9    S    
C5    C10   A    
C31   H11   S    
C32   H12   S    
C25   C28   S    
C20   N2    A    
C11   C13   A    
C17   C32   S    
O1    Zn1   S    
C26   C27   S    
C29   C30   S    
C26   C33   S    
C21   N1    A    
C22   C31   S    
C3    C27   S    
C29   C34   S    
C32   O10   D    
C24   H7    S    
C6    C7    A    
C2    C3    S    
C8    H3    S    
C31   O9    D    
C16   H5    S    
C5    C6    A    
C7    H2    S    
C22   C24   A    
C22   N1    A    
C23   O5    A    
C10   C11   A    
O3    Zn1   S    
C27   H1    S    
C34   H14   S    
C28   C29   S    
O4    Zn2   S    
O6    Zn2   S    
C18   C19   A    
C20   C21   A    
C30   H8    S    
C26   C29   S    
C33   O11   D    
C7    C8    A    
C13   Cl3   S    
C5    H10   S    
C27   C28   S    
C2    C28   S    
C14   C15   A    
C33   H13   S    
C12   O4    A    
O5    Zn1   S    
C23   O6    A    
C1    O2    A    
C19   Cl1   S    
C13   C14   A    
C18   H6    S    
C25   O8    A    
C1    O1    A    
C4    C30   S    
C3    C4    S    
C16   C17   A    
C8    C9    A    
O7    Zn1   S    
C25   O7    A    
