data_mof_unit_24112.cif
_audit_creation_date              2012-12-10T17:17:23-0500
_audit_creation_method            fapswitch 2.2
_symmetry_space_group_name_H-M    P1
_symmetry_Int_Tables_number       1
_space_group_crystal_system       triclinic
_cell_length_a                    10.198888
_cell_length_b                    10.741816
_cell_length_c                    12.539405
_cell_angle_alpha                 90.642307
_cell_angle_beta                  109.327809
_cell_angle_gamma                 96.111757
_cell_volume                      1287.3768044

loop_
_atom_site_label
_atom_site_type_symbol
_atom_type_description
_atom_site_fract_x
_atom_site_fract_y
_atom_site_fract_z
_atom_type_partial_charge
C1    C     C_R   0.050160 0.733032 0.489180 0.889341
C2    C     C_R   0.217654 0.552758 0.832215 -0.232294
C3    C     C_2   0.071860 0.865714 0.469364 -0.046330
C4    C     C_R   0.137794 0.524163 0.711953 0.915515
C5    C     C_2   0.959896 0.929541 0.447114 -0.082379
C6    C     C_2   0.905461 0.132807 0.490688 0.493734
C7    C     C_2   0.972129 0.063782 0.440628 -0.311521
C8    C     C_2   0.430268 0.520660 0.494071 0.547412
C9    C     C_2   0.568718 0.487069 0.489651 0.575012
C10   C     C_R   0.945319 0.266852 0.502901 0.811090
C11   C     C_R   0.865590 0.488473 0.287257 0.902764
C12   C     C_R   0.430591 0.528691 0.988059 0.036924
C13   C     C_R   0.774515 0.456138 0.972067 0.630071
C14   C     C_R   0.791538 0.485933 0.166952 -0.158300
C15   C     C_R   0.146216 0.567009 0.908468 -0.247719
C16   C     C_R   0.212523 0.554105 0.022951 0.683630
C17   C     C_R   0.348176 0.518904 0.061689 -0.024197
C18   C     C_3   0.215441 0.926978 0.476748 -0.742501
C19   C     C_3   0.388378 0.455484 0.173169 -0.662362
C20   C     C_R   0.364272 0.552485 0.873405 0.042378
C21   C     C_R   0.574714 0.512789 0.021263 0.041281
C22   C     C_R   0.640617 0.495978 0.939561 0.017458
C23   C     C_R   0.576691 0.530885 0.830138 -0.156726
C24   C     C_R   0.445733 0.571383 0.801845 -0.151116
C25   C     C_R   0.658987 0.524982 0.133052 -0.258157
C26   C     C_R   0.847492 0.445439 0.086500 -0.194103
F1    F     F_    0.808388 0.079829 0.534537 -0.617800
F2    F     F_    0.571372 0.386962 0.423527 -0.593071
F3    F     F_    0.427032 0.635553 0.538558 -0.739113
F4    F     F_    0.321623 0.331790 0.416579 -0.553021
F5    F     F_    0.833443 0.427531 0.893801 -0.669415
F6    F     F_    0.139379 0.563480 0.094869 -0.674803
H1    H     H_    0.948446 0.410511 0.112142 0.228992
H2    H     H_    0.212400 0.963417 0.393554 0.259079
H3    H     H_    0.249857 0.005366 0.542015 0.256050
H4    H     H_    0.464209 0.387364 0.177694 0.254825
H5    H     H_    0.429310 0.526950 0.244412 0.232186
H6    H     H_    0.295617 0.399133 0.183152 0.281098
H7    H     H_    0.857925 0.883721 0.443207 0.211876
H8    H     H_    0.681675 0.629966 0.593456 0.160159
H9    H     H_    0.630815 0.534396 0.768868 0.183392
H10   H     H_    0.622980 0.569136 0.194147 0.198256
H11   H     H_    0.036407 0.579994 0.878899 0.235697
H12   H     H_    0.408003 0.615989 0.722844 0.226838
H13   H     H_    0.048194 0.107269 0.404719 0.194925
H14   H     H_    0.294683 0.859858 0.500569 0.284993
N1    N     N_2   0.313640 0.446500 0.454900 0.139101
N2    N     N_2   0.686360 0.553430 0.545150 -0.240576
O1    O     O_R   0.936910 0.692950 0.509080 -0.641353
O2    O     O_R   0.138320 0.658600 0.480130 -0.565352
O3    O     O_R   0.002900 0.525670 0.675280 -0.590615
O4    O     O_R   0.204310 0.491320 0.646330 -0.611912
O5    O     O_R   0.861680 0.341400 0.519870 -0.505964
O6    O     O_R   0.063090 0.307050 0.490920 -0.615524
O7    O     O_R   0.795690 0.508680 0.353670 -0.595105
O8    O     O_R   0.997100 0.474330 0.324720 -0.589616
Zn1   Zn    Zn3+2 0.865520 0.522940 0.519330 1.046320
Zn2   Zn    Zn3+2 0.134480 0.477060 0.480670 1.090548

loop_
_geom_bond_atom_site_label_1
_geom_bond_atom_site_label_2
_ccdc_geom_bond_type
C25   H10   S    
C6    C10   S    
O1    Zn1   S    
C2    C4    S    
C23   C24   A    
C6    C7    D    
O3    Zn1   S    
C19   H6    S    
C16   F6    S    
C1    O2    A    
F4    N1    S    
C26   H1    S    
C6    F1    S    
C23   H9    S    
C12   C20   A    
C5    H7    S    
C8    N1    D    
C15   H11   S    
N2    Zn1   S    
C21   C22   A    
C14   C26   A    
N1    Zn2   S    
C2    C15   A    
C18   H2    S    
O4    Zn2   S    
C4    O4    A    
C10   O6    A    
C8    F3    S    
C7    H13   S    
C18   H3    S    
C3    C18   S    
C17   C19   S    
O8    Zn2   S    
C13   C22   A    
C19   H4    S    
O7    Zn1   S    
C14   C25   A    
C24   H12   S    
C11   C14   S    
C13   C26   A    
C4    O3    A    
C2    C20   A    
C15   C16   A    
O2    Zn2   S    
C18   H14   S    
C12   C17   A    
C11   O7    A    
C9    N2    D    
H8    N2    S    
O6    Zn2   S    
C5    C7    S    
C10   O5    A    
O5    Zn1   S    
C22   C23   A    
C16   C17   A    
C21   C25   A    
C19   H5    S    
C3    C5    D    
C1    O1    A    
C12   C21   A    
C13   F5    S    
C11   O8    A    
C20   C24   A    
C9    F2    S    
C8    C9    S    
C1    C3    S    
