data_mof_unit_8216.cif
_audit_creation_date              2012-12-11T15:57:32-0500
_audit_creation_method            fapswitch 2.2
_symmetry_space_group_name_H-M    P1
_symmetry_Int_Tables_number       1
_space_group_crystal_system       triclinic
_cell_length_a                    10.762315
_cell_length_b                    10.754344
_cell_length_c                    17.064723
_cell_angle_alpha                 99.670517
_cell_angle_beta                  99.907487
_cell_angle_gamma                 61.303057
_cell_volume                      1698.31547874

loop_
_atom_site_label
_atom_site_type_symbol
_atom_type_description
_atom_site_fract_x
_atom_site_fract_y
_atom_site_fract_z
_atom_type_partial_charge
C1    C     C_R   0.353093 0.777187 0.402481 0.573260
C2    C     C_2   0.332167 0.338175 0.827488 -0.071654
C3    C     C_2   0.464702 0.291559 0.808746 -0.123925
C4    C     C_R   0.369346 0.346266 0.357298 0.554579
C5    C     C_2   0.490608 0.296467 0.728135 -0.106019
C6    C     C_1   0.816532 0.342402 0.708896 -0.040650
C7    C     C_1   0.843454 0.313912 0.776480 -0.037884
C8    C     C_1   0.336353 0.819490 0.707793 -0.045091
C9    C     C_1   0.309633 0.846197 0.775678 -0.030049
C10   C     C_R   0.889818 0.309763 0.084855 0.569980
C11   C     C_R   0.318033 0.298162 0.120236 0.528958
C12   C     C_2   0.795234 0.343175 0.146602 0.268738
C13   C     C_R   0.293538 0.893690 0.084830 0.535619
C14   C     C_R   0.885331 0.297152 0.858627 0.544158
C15   C     C_R   0.308203 0.293781 0.895253 0.532427
C16   C     C_R   0.719015 0.408805 0.392491 0.565572
C17   C     C_R   0.276845 0.887700 0.855793 0.553783
C18   C     C_R   0.356909 0.773842 0.626197 0.535557
C19   C     C_R   0.413144 0.382292 0.596809 0.583107
C20   C     C_R   0.772730 0.381205 0.629836 0.549731
C21   C     C_1   0.342091 0.335392 0.274125 -0.044056
C22   C     C_1   0.330582 0.324764 0.203393 -0.043754
C23   C     C_2   0.810190 0.236967 0.186438 0.261109
C24   C     C_2   0.774440 0.369448 0.316378 -0.083208
C25   C     C_3   0.893042 0.996493 0.202035 -0.116670
C26   C     C_3   0.722345 0.588111 0.167404 -0.115839
C27   C     C_3   0.347448 0.618983 0.108612 -0.062170
C28   C     C_2   0.744261 0.280632 0.261522 -0.113205
C29   C     C_2   0.320070 0.857662 0.334718 -0.001993
C30   C     C_2   0.344823 0.833514 0.161901 0.268054
C31   C     C_2   0.389761 0.907541 0.221725 -0.127434
C32   C     C_2   0.416631 0.876602 0.305349 0.080548
C33   C     C_2   0.395349 0.395216 0.680770 0.077696
Cr1   Cr    Cr6+3 0.608020 0.610770 0.522990 1.052518
Cr2   Cr    Cr6+3 0.289390 0.599570 0.488050 1.026539
Cr3   Cr    Cr6+3 0.602610 0.289690 0.489020 1.015942
Cr4   Cr    Cr6+3 0.053780 0.052210 0.965970 1.056045
Cr5   Cr    Cr6+3 0.060060 0.372530 0.992430 1.013845
Cr6   Cr    Cr6+3 0.372600 0.061970 0.991430 1.016333
H1    H     H_    0.587877 0.210940 0.705875 0.128230
H2    H     H_    0.966515 0.887741 0.177389 0.161045
H3    H     H_    0.183083 0.528504 0.681971 0.248430
H4    H     H_    0.287110 0.609250 0.702819 0.248164
H5    H     H_    0.647827 0.682055 0.202715 0.142195
H6    H     H_    0.710604 0.621438 0.107268 0.151364
H7    H     H_    0.830868 0.558491 0.199065 0.115769
H8    H     H_    0.541218 0.968882 0.353021 0.238843
H9    H     H_    0.631001 0.791452 0.329227 0.223510
H10   H     H_    0.384497 0.512694 0.128110 0.156875
H11   H     H_    0.428436 0.607534 0.071325 0.130410
H12   H     H_    0.237679 0.387091 0.786528 0.149367
H13   H     H_    0.242538 0.649960 0.072570 0.133203
H14   H     H_    0.680542 0.233810 0.273596 0.121982
H15   H     H_    0.840835 0.413552 0.304579 0.112092
H16   H     H_    0.404772 0.995353 0.209802 0.104521
H17   H     H_    0.218229 0.881494 0.299374 0.120858
H18   H     H_    0.556540 0.230598 0.849357 0.139874
H19   H     H_    0.782753 0.009756 0.187477 0.110810
H20   H     H_    0.922458 0.003965 0.267755 0.122113
N1    N     N_3   0.278671 0.521477 0.712877 -0.642713
N2    N     N_3   0.540904 0.872260 0.354411 -0.592827
O1    O     O_R   0.749250 0.499990 0.439200 -0.500920
O2    O     O_R   0.411120 0.181190 0.091480 -0.520501
O3    O     O_R   0.364220 0.944920 0.062310 -0.535470
O4    O     O_R   0.477870 0.725740 0.440280 -0.462403
O5    O     O_R   0.158740 0.906940 0.874970 -0.505674
O6    O     O_R   0.930920 0.176940 0.885610 -0.502936
O7    O     O_R   0.910730 0.394510 0.895320 -0.508720
O8    O     O_R   0.185840 0.361180 0.920280 -0.499940
O9    O     O_R   0.399210 0.173040 0.915160 -0.508761
O10   O     O_R   0.353170 0.937370 0.898860 -0.495852
O11   O     O_3   0.162150 0.162240 0.983280 -0.257080
O12   O     O_R   0.299400 0.468710 0.556310 -0.495394
O13   O     O_R   0.260770 0.742210 0.412610 -0.524676
O14   O     O_R   0.297990 0.466320 0.394220 -0.484324
O15   O     O_R   0.487720 0.253870 0.385870 -0.532534
O16   O     O_R   0.721940 0.304340 0.422320 -0.500902
O17   O     O_R   0.750770 0.502570 0.614050 -0.495875
O18   O     O_R   0.479280 0.728140 0.602370 -0.491247
O19   O     O_R   0.262290 0.744790 0.587460 -0.526987
O20   O     O_3   0.910284 0.095872 0.166565 -0.558526
O21   O     O_3   0.682715 0.479404 0.161989 -0.613267
O22   O     O_3   0.333901 0.716086 0.177448 -0.580210
O23   O     O_R   0.489240 0.256450 0.560730 -0.509649
O24   O     O_R   0.723350 0.306730 0.584410 -0.517543
O25   O     O_3   0.500010 0.500010 0.500020 -0.305087
O26   O     O_R   0.170650 0.915100 0.051290 -0.484554
O27   O     O_R   0.941960 0.184500 0.049060 -0.455583
O28   O     O_R   0.922640 0.402670 0.071640 -0.545552
O29   O     O_R   0.196880 0.368740 0.083740 -0.504445

loop_
_geom_bond_atom_site_label_1
_geom_bond_atom_site_label_2
_ccdc_geom_bond_type
Cr2   O13   S    
Cr4   O27   S    
C26   H5    S    
C18   O19   A    
Cr6   O3    S    
C12   C23   D    
Cr2   O14   S    
C17   O5    A    
C1    O13   A    
C32   N2    S    
C29   C32   D    
C11   O2    A    
Cr3   O16   S    
C30   C31   D    
Cr2   O25   S    
C24   H15   S    
Cr2   O19   S    
Cr1   O1    S    
C16   O16   A    
Cr1   O25   S    
C30   O22   S    
C4    O14   A    
Cr3   O15   S    
C26   H6    S    
C7    C14   S    
C10   O28   A    
C18   O18   A    
C5    C33   D    
C1    O4    A    
C14   O6    A    
C27   H11   S    
Cr5   O8    S    
C16   C24   S    
C21   C22   T    
C20   O24   A    
C25   O20   S    
C16   O1    A    
Cr1   O4    S    
C15   O8    A    
Cr5   O11   S    
C13   C30   S    
C19   O12   A    
C19   C33   S    
H3    N1    S    
C8    C9    T    
Cr3   O25   S    
C8    C18   S    
Cr1   O18   S    
C31   C32   S    
Cr5   O28   S    
Cr6   O11   S    
C10   O27   A    
Cr4   O5    S    
C13   O26   A    
C1    C29   S    
C12   O21   S    
C23   C28   S    
C2    C15   S    
C10   C12   S    
H4    N1    S    
C3    H18   S    
C9    C17   S    
Cr5   O7    S    
C17   O10   A    
C33   N1    S    
Cr4   O11   S    
C25   H19   S    
C25   H2    S    
C19   O23   A    
C6    C20   S    
C27   H13   S    
C15   O9    A    
Cr2   O12   S    
C14   O7    A    
C23   O20   S    
Cr4   O26   S    
C24   C28   D    
C3    C5    S    
H8    N2    S    
C28   H14   S    
C6    C7    T    
C29   H17   S    
Cr3   O24   S    
Cr6   O2    S    
Cr5   O29   S    
C11   C22   S    
C20   O17   A    
C27   O22   S    
C2    C3    D    
Cr1   O17   S    
C4    C21   S    
C11   O29   A    
H9    N2    S    
C13   O3    A    
Cr3   O23   S    
Cr4   O6    S    
Cr6   O9    S    
C4    O15   A    
C2    H12   S    
C26   H7    S    
C26   O21   S    
C5    H1    S    
Cr6   O10   S    
C25   H20   S    
C31   H16   S    
C27   H10   S    
