data_mof_unit_65962.cif
_audit_creation_date              2013-03-05T16:43:53-0500
_audit_creation_method            fapswitch 2.2
_symmetry_space_group_name_H-M    P1
_symmetry_Int_Tables_number       1
_space_group_crystal_system       triclinic
_cell_length_a                    10.941459
_cell_length_b                    15.946265
_cell_length_c                    16.986483
_cell_angle_alpha                 96.097619
_cell_angle_beta                  91.904258
_cell_angle_gamma                 92.311968
_cell_volume                      2942.45715607

loop_
_atom_site_label
_atom_site_type_symbol
_atom_site_description
_atom_site_fract_x
_atom_site_fract_y
_atom_site_fract_z
_atom_type_partial_charge
O1    O     O_R   0.494430 0.420530 0.382500 -0.543525
O2    O     O_R   0.504490 0.563720 0.388950 -0.548929
C1    C     C_R   0.500191 0.489568 0.348849 0.890810
O3    O     O_R   0.316910 0.428420 0.496780 -0.553975
O4    O     O_R   0.326970 0.571610 0.503230 -0.561915
C2    C     C_R   0.265580 0.499808 0.496737 0.873282
Cu1   Cu    Cu3+1 0.494040 0.415220 0.496180 1.114166
Cu2   Cu    Cu3+1 0.505960 0.584780 0.503820 1.107287
O5    O     O_R   0.495510 0.436280 0.611050 -0.561538
O6    O     O_R   0.505570 0.579470 0.617500 -0.533461
O7    O     O_R   0.673030 0.428390 0.496770 -0.523058
O8    O     O_R   0.683090 0.571580 0.503220 -0.556625
C3    C     C_R   0.496857 0.510552 0.651237 0.866336
C4    C     C_R   0.734819 0.500255 0.501378 0.895038
C5    C     C_2   0.938056 0.560018 0.479738 0.246940
C6    C     C_2   0.866898 0.502918 0.512795 0.056916
C7    C     C_2   0.069973 0.566340 0.495177 -0.090635
C8    C     C_2   0.134333 0.497240 0.484413 -0.251448
H1    H     H_    0.113993 0.628197 0.511607 0.234604
H2    H     H_    0.088939 0.436390 0.464502 0.211783
C9    C     C_R   0.498654 0.482929 0.262587 -0.163296
C10   C     C_R   0.400959 0.516911 0.223334 -0.216772
C11   C     C_R   0.390712 0.508283 0.140911 0.316459
C12   C     C_R   0.481652 0.466419 0.096751 0.249342
C13   C     C_R   0.575494 0.428724 0.136036 -0.226506
C14   C     C_R   0.586073 0.436780 0.218816 0.324317
C15   C     C_R   0.548703 0.467451 0.861626 -0.160480
C16   C     C_R   0.556933 0.464569 0.780115 -0.166864
C17   C     C_R   0.471562 0.524256 0.902560 0.265667
N1    N     N_2   0.483463 0.460761 0.013193 -0.195867
N2    N     N_2   0.462616 0.528604 0.986046 -0.133952
C18   C     C_R   0.487736 0.517279 0.737436 -0.141123
H3    H     H_    0.619298 0.421976 0.750443 0.244521
H4    H     H_    0.604261 0.426030 0.892868 0.206003
H5    H     H_    0.643623 0.395546 0.101525 0.212579
C19   C     C_R   0.411315 0.575733 0.777669 0.202472
C20   C     C_R   0.405581 0.580055 0.860609 0.249361
H6    H     H_    0.329912 0.547696 0.257049 0.226578
N3    N     N_R   0.514910 0.712130 0.509560 -0.318101
C21   C     C_R   0.437847 0.750761 0.460330 0.373486
C22   C     C_R   0.432213 0.839636 0.465698 0.116304
C23   C     C_R   0.515110 0.891338 0.517230 0.131271
C24   C     C_R   0.596085 0.850790 0.565889 0.112668
C25   C     C_R   0.593226 0.761040 0.562075 0.352846
C26   C     C_R   0.535714 0.156989 0.543568 -0.302570
C27   C     C_R   0.536680 0.245838 0.549547 0.443013
C28   C     C_R   0.483481 0.107836 0.476845 0.215995
N4    N     N_2   0.514667 0.982486 0.527129 -0.118687
N5    N     N_2   0.484361 0.016855 0.466794 -0.086080
N6    N     N_R   0.485090 0.287850 0.490450 -0.303459
H7    H     H_    0.578530 0.126974 0.591022 0.244810
C29   C     C_R   0.428164 0.240162 0.425908 0.372297
C30   C     C_R   0.429405 0.150634 0.417549 0.133389
Br1   Br    Br    0.877216 0.633589 0.405818 -0.273679
Br2   Br    Br    0.245822 0.547968 0.092977 -0.261297
Br3   Br    Br    0.306037 0.661053 0.917477 -0.205585
N7    N     N_R   0.591561 0.290326 0.619856 0.145687
O9    O     O_R   0.697655 0.328895 0.616592 -0.291335
O10   O     O_R   0.554971 0.271516 0.688207 -0.338489
N8    N     N_R   0.682085 0.900874 0.619139 0.188434
O11   O     O_R   0.743733 0.964339 0.595288 -0.259856
O12   O     O_R   0.696475 0.885143 0.692379 -0.212979
N9    N     N_R   0.677747 0.721610 0.610826 0.184294
O13   O     O_R   0.792097 0.720031 0.592354 -0.279572
O14   O     O_R   0.649175 0.709621 0.682625 -0.268806
N10   N     N_R   0.362445 0.279936 0.367069 0.169573
O15   O     O_R   0.400698 0.274994 0.295048 -0.286760
O16   O     O_R   0.251313 0.302282 0.380043 -0.305396
Br4   Br    Br    0.301761 0.885405 0.406283 -0.190442
Br5   Br    Br    0.352591 0.086429 0.325478 -0.180700
Br6   Br    Br    0.929271 0.436311 0.592547 -0.343154
N11   N     N_R   0.365866 0.701575 0.399101 0.171330
O17   O     O_R   0.249894 0.687403 0.409059 -0.315787
O18   O     O_R   0.403750 0.698427 0.327112 -0.299494
N12   N     N_R   0.686956 0.399683 0.256821 0.156269
O19   O     O_R   0.734348 0.332309 0.222575 -0.262438
O20   O     O_R   0.741375 0.438258 0.320553 -0.353427
Br7   Br    Br    0.308581 0.645992 0.720193 -0.318064

loop_
_geom_bond_atom_site_label_1
_geom_bond_atom_site_label_2
_geom_bond_distance
_ccdc_geom_bond_type
N10   O16   1.300059 A    
C9    C14   1.413182 A    
N9    O14   1.300686 A    
C15   C17   1.408294 A    
C22   C23   1.414994 A    
C3    C18   1.463765 S    
C24   C25   1.424793 A    
Cu1   Cu2   2.690821 S    
C28   N5    1.443154 S    
C26   C27   1.409229 A    
Cu1   O7    1.960778 S    
C18   C19   1.414422 A    
C19   C20   1.406837 A    
O4    C2    1.296336 A    
O7    C4    1.300529 A    
N7    O10   1.301336 A    
C26   H7    1.083184 S    
C5    C6    1.353150 D    
C10   H6    1.083459 S    
N8    O12   1.300756 A    
O5    C3    1.301954 A    
C20   Br3   1.925107 S    
N6    C29   1.381114 A    
C11   C12   1.412516 A    
Cu2   N3    2.020973 S    
C28   C30   1.403342 A    
N10   O15   1.301630 A    
C25   N9    1.429316 S    
C9    C10   1.398912 A    
C6    Br6   1.931788 S    
O3    Cu1   1.958125 S    
C30   Br5   1.924481 S    
C7    C8    1.331102 D    
C26   C28   1.399146 A    
C15   H4    1.082982 S    
C2    C8    1.442615 S    
C5    Br1   1.927836 S    
C16   C18   1.396285 A    
C12   C13   1.396549 A    
N11   O18   1.300770 A    
N3    C21   1.376314 A    
C13   C14   1.398836 A    
N8    O11   1.301350 A    
O1    C1    1.293511 A    
N12   O19   1.301443 A    
Cu2   O8    1.958126 S    
C14   N12   1.439289 S    
C23   N4    1.445536 S    
N12   O20   1.300401 A    
C24   N8    1.439016 S    
C13   H5    1.083608 S    
O3    C2    1.289595 A    
N4    N5    1.253841 D    
O8    C4    1.288601 A    
C16   H3    1.080974 S    
C27   N7    1.424140 S    
C4    C6    1.449999 S    
C1    C9    1.457321 S    
C23   C24   1.413261 A    
C29   N10   1.428977 S    
C29   C30   1.420254 A    
C22   Br4   1.932186 S    
Cu1   O5    1.943869 S    
C21   C22   1.414425 A    
C21   N11   1.428154 S    
O1    Cu1   1.941982 S    
O2    Cu2   1.943869 S    
Cu1   N6    2.021300 S    
N11   O17   1.299626 A    
O6    C3    1.293925 A    
O4    Cu2   1.960777 S    
C11   Br2   1.918664 S    
N3    C25   1.373235 A    
C27   N6    1.382334 A    
O2    C1    1.298722 A    
C17   N2    1.419284 S    
C19   Br7   1.932084 S    
N7    O9    1.297222 A    
N1    N2    1.246574 D    
C7    H1    1.084941 S    
C8    H2    1.087593 S    
C12   N1    1.413488 S    
N9    O13   1.300558 A    
Cu2   O6    1.941982 S    
C17   C20   1.404645 A    
C15   C16   1.386515 A    
C10   C11   1.392511 A    
C5    C7    1.455937 S    
