data_mof_unit_51890.cif
_audit_creation_date              2012-10-26T19:59:38-0400
_audit_creation_method            fapswitch 2.2
_symmetry_space_group_name_H-M    P1
_symmetry_Int_Tables_number       1
_space_group_crystal_system       triclinic
_cell_length_a                    10.774384
_cell_length_b                    8.696857
_cell_length_c                    7.476506
_cell_angle_alpha                 102.752675
_cell_angle_beta                  94.879926
_cell_angle_gamma                 92.715693
_cell_volume                      679.23506644

loop_
_atom_site_label
_atom_site_type_symbol
_atom_type_description
_atom_site_fract_x
_atom_site_fract_y
_atom_site_fract_z
_atom_type_partial_charge
C1    C     C_R   0.495700 0.199860 0.453443 0.545117
C2    C     C_R   0.503446 0.800105 0.546563 0.528394
C3    C     C_R   0.737437 0.510025 0.500202 0.528423
C4    C     C_R   0.153360 0.735066 0.794174 -0.076825
C5    C     C_R   0.100146 0.838228 0.933071 0.110141
C6    C     C_R   0.970808 0.847224 0.921058 -0.102469
C7    C     C_R   0.895439 0.749441 0.775806 -0.126918
C8    C     C_R   0.947186 0.634581 0.642808 0.017468
C9    C     C_3   0.285310 0.310858 0.967774 -0.028269
C10   C     C_R   0.078429 0.629693 0.649172 -0.006230
C11   C     C_R   0.129824 0.521304 0.507930 0.002812
C12   C     C_R   0.052636 0.423764 0.363637 -0.148778
C13   C     C_R   0.924952 0.425785 0.360554 -0.149280
C14   C     C_R   0.871675 0.526555 0.500798 0.006326
C15   C     C_2   0.493091 0.031994 0.427282 -0.151678
C16   C     C_2   0.504793 0.967879 0.572717 -0.153200
C17   C     C_R   0.263030 0.507578 0.502914 0.532103
Cu1   Cu    Cu3+1 0.513920 0.517380 0.684380 1.003070
Cu2   Cu    Cu3+1 0.486080 0.482620 0.315620 0.987265
H1    H     H_    0.091296 0.341272 0.255219 0.103177
H2    H     H_    0.128051 0.013961 0.168204 0.217005
H3    H     H_    0.238525 0.424122 0.989075 0.138373
H4    H     H_    0.285448 0.259234 0.090224 0.134978
H5    H     H_    0.229898 0.226455 0.852385 0.090861
H6    H     H_    0.586957 0.634837 0.052049 0.193430
H7    H     H_    0.253795 0.742204 0.802889 0.158851
H8    H     H_    0.927994 0.930118 0.024132 0.104719
H9    H     H_    0.796701 0.766740 0.769035 0.137619
H10   H     H_    0.867367 0.343996 0.251086 0.132702
H11   H     H_    0.481858 0.960783 0.286953 0.138237
H12   H     H_    0.515824 0.039052 0.713035 0.157271
H13   H     H_    0.246847 0.994431 0.035213 0.215159
N1    N     N_2   0.465100 0.456430 0.038520 0.047823
N2    N     N_2   0.534900 0.543570 0.961480 -0.186842
N3    N     N_3   0.179212 0.931055 0.086974 -0.628442
O1    O     O_R   0.509050 0.286130 0.619770 -0.436776
O2    O     O_R   0.485540 0.256780 0.308360 -0.502668
O3    O     O_R   0.331410 0.514680 0.655740 -0.490445
O4    O     O_R   0.307900 0.485330 0.344330 -0.529342
O5    O     O_R   0.514460 0.743220 0.691640 -0.529585
O6    O     O_R   0.490950 0.713870 0.380230 -0.518131
O7    O     O_R   0.692100 0.514670 0.655670 -0.511842
O8    O     O_R   0.668590 0.485320 0.344260 -0.516529
O9    O     O_3   0.407121 0.329200 0.919796 -0.437074

loop_
_geom_bond_atom_site_label_1
_geom_bond_atom_site_label_2
_ccdc_geom_bond_type
C4    H7    S    
C11   C12   A    
C9    H5    S    
C6    C7    A    
C1    C15   S    
C2    C16   S    
C6    H8    S    
C1    O2    A    
H6    N2    S    
C12   H1    S    
N1    N2    D    
Cu1   O3    S    
C7    C8    A    
C3    O7    A    
C13   C14   A    
C16   H12   S    
Cu1   N2    S    
C3    O8    A    
C3    C14   S    
Cu2   O4    S    
H2    N3    S    
C5    N3    S    
C13   H10   S    
Cu2   O8    S    
C17   O3    A    
Cu1   O7    S    
Cu2   N1    S    
C5    C6    A    
C9    H3    S    
C10   C11   A    
C2    O6    A    
C4    C10   A    
C15   C16   D    
H13   N3    S    
C2    O5    A    
C12   C13   A    
C15   H11   S    
C8    C10   A    
Cu1   Cu2   S    
C17   O4    A    
Cu1   O5    S    
C9    H4    S    
C9    O9    S    
C8    C14   A    
Cu2   O2    S    
N1    O9    S    
Cu1   O1    S    
C11   C17   S    
C7    H9    S    
Cu2   O6    S    
C1    O1    A    
C4    C5    A    
