data_mof_unit_5164.cif
_audit_creation_date              2012-12-10T18:35:12-0500
_audit_creation_method            fapswitch 2.2
_symmetry_space_group_name_H-M    P1
_symmetry_Int_Tables_number       1
_space_group_crystal_system       triclinic
_cell_length_a                    18.895333
_cell_length_b                    18.721191
_cell_length_c                    18.991127
_cell_angle_alpha                 109.433572
_cell_angle_beta                  109.817934
_cell_angle_gamma                 109.023089
_cell_volume                      5180.17369149

loop_
_atom_site_label
_atom_site_type_symbol
_atom_type_description
_atom_site_fract_x
_atom_site_fract_y
_atom_site_fract_z
_atom_type_partial_charge
C1    C     C_R   0.382374 0.502004 0.381602 0.821291
C2    C     C_R   0.756042 0.881805 0.824685 -0.128933
C3    C     C_R   0.914891 0.753343 0.966794 0.189779
C4    C     C_R   0.917116 0.733719 0.031988 -0.110673
C5    C     C_R   0.995815 0.772424 0.107541 0.039873
C6    C     C_R   0.289017 0.515999 0.015604 -0.131117
C7    C     C_R   0.215179 0.459649 0.933249 0.220373
C8    C     C_R   0.163801 0.372104 0.909580 0.049687
C9    C     C_R   0.194835 0.340652 0.963617 -0.215141
C10   C     C_R   0.267559 0.397330 0.045757 -0.224351
C11   C     C_R   0.314515 0.486302 0.073668 -0.054526
C12   C     C_R   0.075246 0.244099 0.763495 -0.204390
C13   C     C_R   0.807658 0.837842 0.575926 0.175437
C14   C     C_R   0.999260 0.187270 0.683324 -0.097619
C15   C     C_R   0.926187 0.199187 0.665858 0.002181
C16   C     C_R   0.926188 0.256647 0.735317 -0.245036
C17   C     C_R   0.002525 0.314430 0.815695 -0.090938
C18   C     C_R   0.079392 0.310998 0.828237 -0.006681
C19   C     C_R   0.840103 0.179568 0.516250 -0.009546
C20   C     C_R   0.765747 0.128128 0.434219 -0.191689
C21   C     C_R   0.702620 0.045785 0.408448 0.125473
C22   C     C_R   0.712469 0.013185 0.466061 0.058670
C23   C     C_R   0.784337 0.066371 0.550547 -0.226481
C24   C     C_R   0.813329 0.816916 0.500187 -0.096706
C25   C     C_R   0.848459 0.149647 0.577220 0.038454
C26   C     C_R   0.749792 0.737435 0.423356 -0.063513
C27   C     C_R   0.687573 0.673314 0.425230 0.097055
C28   C     C_R   0.685812 0.689910 0.502599 -0.158066
C29   C     C_R   0.743581 0.774568 0.577684 -0.044039
C30   C     C_R   0.708667 0.762296 0.297415 -0.098395
C31   C     C_R   0.703221 0.749566 0.218683 -0.177306
C32   C     C_R   0.730000 0.694510 0.178727 0.183922
C33   C     C_R   0.619966 0.619863 0.501688 0.843925
C34   C     C_R   0.760363 0.650495 0.217964 0.196200
C35   C     C_R   0.767504 0.665415 0.298056 -0.209627
C36   C     C_R   0.743667 0.722717 0.339064 0.039164
C37   C     C_R   0.378042 0.769619 0.531771 0.221491
C38   C     C_R   0.338231 0.683252 0.463861 0.105820
C39   C     C_R   0.366672 0.665396 0.403068 0.023140
C40   C     C_R   0.431087 0.734377 0.408474 -0.213989
C41   C     C_R   0.467356 0.819806 0.473201 -0.213094
C42   C     C_R   0.442051 0.837698 0.535375 0.178946
C43   C     C_R   0.252920 0.575605 0.252255 -0.198408
C44   C     C_R   0.616216 0.497700 0.618604 0.803933
C45   C     C_R   0.183802 0.495494 0.182318 -0.057456
C46   C     C_R   0.175697 0.417383 0.181666 0.040297
C47   C     C_R   0.245652 0.422117 0.244460 -0.233777
C48   C     C_R   0.314465 0.502567 0.315529 -0.047963
C49   C     C_R   0.314130 0.580106 0.322361 0.056071
C50   C     C_R   0.053966 0.283345 0.154906 -0.050067
C51   C     C_R   0.983789 0.196880 0.097561 -0.040890
C52   C     C_R   0.954288 0.160157 0.008730 -0.134087
C53   C     C_R   0.990013 0.209547 0.976417 -0.152602
C54   C     C_R   0.058411 0.294646 0.032612 -0.118441
C55   C     C_R   0.380766 0.380734 0.499928 0.802987
C56   C     C_R   0.094196 0.331153 0.122082 0.039942
C57   C     C_R   0.324843 0.566473 0.674555 -0.138160
C58   C     C_R   0.325521 0.487850 0.643688 -0.102628
C59   C     C_R   0.262882 0.418787 0.559443 0.120448
C60   C     C_R   0.196984 0.428435 0.508302 -0.149150
C61   C     C_R   0.195218 0.506482 0.539980 -0.141967
C62   C     C_R   0.259657 0.575795 0.622684 -0.098037
C63   C     C_R   0.194783 0.266177 0.529884 0.118598
C64   C     C_R   0.186461 0.183083 0.500172 -0.127444
C65   C     C_R   0.246248 0.166216 0.479865 -0.058053
C66   C     C_R   0.680628 0.854243 0.749018 0.094642
C67   C     C_R   0.308678 0.230232 0.478279 0.111989
C68   C     C_R   0.314265 0.313338 0.501536 -0.132659
C69   C     C_R   0.258052 0.332047 0.529934 -0.043625
C70   C     C_R   0.284405 0.073322 0.537377 -0.096133
C71   C     C_R   0.293248 0.999785 0.526404 -0.120388
C72   C     C_R   0.265313 0.935521 0.444151 -0.132108
C73   C     C_R   0.228757 0.944945 0.372836 -0.112581
C74   C     C_R   0.220450 0.018988 0.383375 -0.122736
C75   C     C_R   0.248466 0.083985 0.466088 0.130043
C76   C     C_R   0.484030 0.463043 0.797905 -0.207823
C77   C     C_R   0.674666 0.819079 0.667944 0.253708
C78   C     C_R   0.559341 0.505908 0.795953 -0.024319
C79   C     C_R   0.583695 0.455515 0.745108 0.024067
C80   C     C_R   0.529527 0.364952 0.693977 -0.238963
C81   C     C_R   0.453464 0.324061 0.694012 -0.154247
C82   C     C_R   0.430382 0.372638 0.746436 0.216200
C83   C     C_R   0.739012 0.497005 0.821587 0.116697
C84   C     C_R   0.815187 0.507403 0.818919 -0.025941
C85   C     C_R   0.825232 0.516697 0.751232 -0.039329
C86   C     C_R   0.758928 0.512836 0.686444 -0.256263
C87   C     C_R   0.682110 0.498584 0.686696 -0.066545
C88   C     C_R   0.740302 0.801833 0.660024 0.048538
C89   C     C_R   0.671006 0.490625 0.754151 0.050342
C90   C     C_R   0.967461 0.591648 0.758371 0.190461
C91   C     C_R   0.038416 0.589154 0.752449 -0.110056
C92   C     C_R   0.041288 0.511834 0.728232 -0.165662
C93   C     C_R   0.971669 0.435869 0.706380 -0.118688
C94   C     C_R   0.897531 0.435518 0.706565 0.005969
C95   C     C_R   0.897725 0.515023 0.738418 0.011432
C96   C     C_R   0.998620 0.878890 0.381817 0.795960
C97   C     C_R   0.881270 0.880719 0.499018 0.805318
C98   C     C_R   0.999469 0.118801 0.618190 0.760092
C99   C     C_R   0.814490 0.829081 0.735630 -0.217694
C100  C     C_R   0.118586 0.115951 0.497907 0.832379
C101  C     C_R   0.001516 0.380988 0.882623 0.785691
C102  C     C_R   0.118194 0.497515 0.116563 0.774180
C103  C     C_R   0.999798 0.619131 0.118049 0.790994
C104  C     C_R   0.881424 0.502885 0.883488 0.865071
C105  C     C_R   0.109762 0.771553 0.551522 -0.031636
C106  C     C_R   0.098177 0.786314 0.481408 -0.192826
C107  C     C_R   0.021197 0.731036 0.401492 0.060228
C108  C     C_R   0.957552 0.656810 0.390031 -0.253138
C109  C     C_R   0.966837 0.641207 0.458921 0.134901
C110  C     C_R   0.826331 0.875060 0.817841 -0.093416
C111  C     C_R   0.042630 0.698697 0.540200 0.171904
C112  C     C_R   0.009338 0.680187 0.258761 -0.236464
C113  C     C_R   0.001864 0.686977 0.185885 -0.085213
C114  C     C_R   0.997740 0.758575 0.179890 -0.000630
C115  C     C_R   0.995258 0.819171 0.244344 -0.243875
C116  C     C_R   0.001335 0.812165 0.316970 -0.072082
C117  C     C_R   0.011619 0.743163 0.326007 0.045824
C118  C     C_R   0.072591 0.829123 0.116632 -0.169604
C119  C     C_R   0.071386 0.848365 0.051062 0.013256
C120  C     C_R   0.991766 0.811102 0.976795 -0.195606
Cu1   Cu    Cu3+1 0.499980 0.561800 0.561790 0.967829
Cu2   Cu    Cu3+1 0.500020 0.438200 0.438210 0.990448
Cu3   Cu    Cu3+1 0.061810 0.999960 0.561770 0.992357
Cu4   Cu    Cu3+1 0.938190 0.999990 0.438190 0.973522
Cu5   Cu    Cu3+1 0.061800 0.561770 0.999960 0.964871
Cu6   Cu    Cu3+1 0.938200 0.438190 0.000000 1.014158
H1    H     H_    0.789470 0.630900 0.327710 0.142706
H2    H     H_    0.450629 0.722358 0.360245 0.226871
H3    H     H_    0.515797 0.872651 0.475736 0.198608
H4    H     H_    0.254539 0.635315 0.255979 0.159451
H5    H     H_    0.242949 0.362364 0.241551 0.151495
H6    H     H_    0.900787 0.094382 0.963795 0.182302
H7    H     H_    0.964225 0.182016 0.907461 0.154784
H8    H     H_    0.082730 0.332813 0.006310 0.127610
H9    H     H_    0.258357 0.636215 0.646985 0.149789
H10   H     H_    0.374151 0.619691 0.739119 0.142160
H11   H     H_    0.374961 0.480778 0.685009 0.132057
H12   H     H_    0.144945 0.374009 0.445806 0.196385
H13   H     H_    0.143499 0.513088 0.500787 0.152856
H14   H     H_    0.305471 0.121733 0.601585 0.120113
H15   H     H_    0.322260 0.992888 0.581776 0.183875
H16   H     H_    0.272096 0.878458 0.435679 0.145253
H17   H     H_    0.208037 0.894917 0.309844 0.140658
H18   H     H_    0.193142 0.026051 0.327599 0.147035
H19   H     H_    0.464750 0.500208 0.837072 0.178036
H20   H     H_    0.866965 0.820923 0.730109 0.204463
H21   H     H_    0.548067 0.325332 0.656156 0.155796
H22   H     H_    0.413851 0.254321 0.654408 0.137646
H23   H     H_    0.766245 0.518296 0.633892 0.161763
H24   H     H_    0.092326 0.647775 0.768518 0.175730
H25   H     H_    0.097313 0.510629 0.725806 0.167272
H26   H     H_    0.976293 0.377643 0.690556 0.163471
H27   H     H_    0.149744 0.840195 0.488251 0.192685
H28   H     H_    0.901075 0.609943 0.326850 0.174620
H29   H     H_    0.014892 0.625991 0.263866 0.163300
H30   H     H_    0.990378 0.873359 0.238589 0.171481
H31   H     H_    0.133207 0.858046 0.174551 0.155386
H32   H     H_    0.989167 0.825228 0.925564 0.191517
H33   H     H_    0.857609 0.689760 0.024458 0.138163
H34   H     H_    0.326571 0.583505 0.034186 0.170909
H35   H     H_    0.158886 0.272626 0.944368 0.163164
H36   H     H_    0.283808 0.371038 0.087765 0.151942
H37   H     H_    0.132876 0.238325 0.774868 0.168481
H38   H     H_    0.867524 0.258645 0.725835 0.180586
H39   H     H_    0.757911 0.150682 0.387831 0.165965
H40   H     H_    0.792047 0.042107 0.595501 0.161801
H41   H     H_    0.686867 0.804222 0.326737 0.176825
H42   H     H_    0.678044 0.782654 0.188918 0.146919
O1    O     O_R   0.409800 0.552190 0.462000 -0.605479
O2    O     O_R   0.947810 0.909820 0.357620 -0.588443
O3    O     O_R   0.962020 0.909790 0.552160 -0.576281
O4    O     O_R   0.857630 0.909810 0.447800 -0.585012
O5    O     O_R   0.052190 0.090130 0.642340 -0.580521
O6    O     O_R   0.947800 0.090160 0.537980 -0.594843
O7    O     O_R   0.142370 0.090140 0.552150 -0.605747
O8    O     O_R   0.037980 0.090170 0.447800 -0.551190
O9    O     O_R   0.052200 0.461970 0.909800 -0.598125
O10   O     O_R   0.947810 0.357610 0.909840 -0.572619
O11   O     O_R   0.142370 0.552160 0.090140 -0.584520
O12   O     O_R   0.409840 0.447810 0.357640 -0.565320
O13   O     O_R   0.037990 0.447800 0.090170 -0.567372
O14   O     O_R   0.052190 0.642350 0.090120 -0.581871
O15   O     O_R   0.947800 0.537990 0.090150 -0.579047
O16   O     O_R   0.962010 0.552150 0.909780 -0.606262
O17   O     O_R   0.857630 0.447800 0.909820 -0.532221
O18   O     O_R   0.590160 0.642370 0.552180 -0.615991
O19   O     O_R   0.590190 0.537990 0.447820 -0.542900
O20   O     O_R   0.590160 0.552190 0.642360 -0.540175
O21   O     O_R   0.590200 0.447810 0.538000 -0.591940
O22   O     O_R   0.409810 0.462010 0.552180 -0.583527
O23   O     O_R   0.409840 0.357630 0.447820 -0.598388
O24   O     O_R   0.052200 0.909800 0.461980 -0.579546
C121  C     C_2   0.759826 0.917040 0.909174 0.897139
O25   O     O_2   0.746818 0.978245 0.933418 -0.607167
O26   O     O_R   0.775937 0.878434 0.959974 -0.729432
H43   H     H_    0.774353 0.906255 0.014822 0.361380
N1    N     N_3   0.725615 0.681992 0.098267 -0.576351
H44   H     H_    0.698230 0.716111 0.076532 0.264114
H45   H     H_    0.789216 0.710748 0.110673 0.210884
N2    N     N_3   0.782121 0.588875 0.176293 -0.600792
H46   H     H_    0.829805 0.620396 0.164452 0.236403
H47   H     H_    0.727198 0.539863 0.116627 0.246294
N3    N     N_3   0.480793 0.925575 0.602246 -0.565643
H48   H     H_    0.469808 0.962377 0.573090 0.217151
H49   H     H_    0.547618 0.950178 0.636233 0.238664
N4    N     N_3   0.352292 0.790593 0.595673 -0.547338
H50   H     H_    0.403847 0.809998 0.654608 0.236380
H51   H     H_    0.299492 0.736393 0.582459 0.240468
N5    N     N_3   0.265333 0.615630 0.453693 -0.619928
H52   H     H_    0.211347 0.591430 0.394478 0.245937
H53   H     H_    0.277867 0.565133 0.452856 0.253782
N6    N     N_3   0.608925 0.862647 0.752816 -0.589488
H54   H     H_    0.628832 0.928690 0.787559 0.263678
H55   H     H_    0.588867 0.831029 0.784262 0.221815
C122  C     C_2   0.083649 0.325530 0.248282 0.868518
O27   O     O_2   0.099804 0.288551 0.288700 -0.608058
O28   O     O_R   0.093778 0.408369 0.289661 -0.759653
H56   H     H_    0.113605 0.430951 0.353038 0.316018
C123  C     C_2   0.937820 0.145108 0.128103 0.913610
O29   O     O_2   0.917419 0.068212 0.099408 -0.539739
O30   O     O_R   0.916720 0.183733 0.188805 -0.735938
H57   H     H_    0.885394 0.141567 0.204290 0.338412
N7    N     N_3   0.602011 0.804096 0.595676 -0.553836
H58   H     H_    0.602491 0.776796 0.538588 0.225920
H59   H     H_    0.545733 0.758154 0.587273 0.252269
N8    N     N_3   0.140824 0.282543 0.564374 -0.551930
H60   H     H_    0.155777 0.273046 0.617660 0.186196
H61   H     H_    0.152908 0.346536 0.588531 0.260192
N9    N     N_3   0.368425 0.210146 0.456924 -0.571159
H62   H     H_    0.356453 0.205050 0.397088 0.259388
H63   H     H_    0.431900 0.258547 0.504913 0.227356
N10   N     N_3   0.352853 0.331466 0.748304 -0.581033
H64   H     H_    0.312950 0.355802 0.725921 0.208043
H65   H     H_    0.319040 0.264404 0.705154 0.214830
C124  C     C_2   0.607941 0.602433 0.844096 0.834690
O31   O     O_2   0.604492 0.642690 0.907274 -0.612506
O32   O     O_R   0.653021 0.647730 0.814254 -0.732466
H66   H     H_    0.675397 0.712586 0.847116 0.352136
N11   N     N_3   0.730454 0.490415 0.891863 -0.584422
H67   H     H_    0.677518 0.430002 0.867320 0.243755
H68   H     H_    0.719065 0.539648 0.922503 0.224084
N12   N     N_3   0.968657 0.672979 0.786933 -0.575524
H69   H     H_    0.964517 0.686254 0.842593 0.224679
H70   H     H_    0.913690 0.665687 0.739915 0.209929
C125  C     C_2   0.817915 0.351878 0.667356 0.779437
O33   O     O_2   0.783100 0.298947 0.591044 -0.567878
O34   O     O_R   0.780366 0.334617 0.715928 -0.787481
H71   H     H_    0.725368 0.276053 0.680940 0.334008
N13   N     N_3   0.051352 0.682943 0.610818 -0.531700
H72   H     H_    0.000101 0.681817 0.621077 0.244566
H73   H     H_    0.046273 0.621536 0.593339 0.240700
C126  C     C_2   0.915923 0.923968 0.893073 0.802195
O35   O     O_2   0.929352 0.950231 0.966905 -0.536212
O36   O     O_R   0.986266 0.942501 0.879069 -0.747505
H74   H     H_    0.043989 0.979061 0.934829 0.360775
C127  C     C_2   0.192676 0.832677 0.635052 0.873411
O37   O     O_2   0.212315 0.813710 0.691816 -0.567190
O38   O     O_R   0.249312 0.912435 0.648718 -0.791300
H75   H     H_    0.303822 0.948081 0.707452 0.339256
N14   N     N_3   0.899591 0.566291 0.446433 -0.589420
H76   H     H_    0.842814 0.570130 0.425953 0.218494
H77   H     H_    0.889173 0.510892 0.396811 0.242054
C128  C     C_2   0.152769 0.906922 0.059832 0.848449
O39   O     O_2   0.221388 0.944444 0.127282 -0.597523
O40   O     O_R   0.151414 0.919000 0.990667 -0.757047
H78   H     H_    0.210879 0.960334 0.004514 0.345946
N15   N     N_3   0.833913 0.715497 0.891102 -0.549979
H79   H     H_    0.837974 0.683416 0.837230 0.210778
H80   H     H_    0.824517 0.766249 0.887358 0.265943
N16   N     N_3   0.862213 0.924804 0.650385 -0.556030
H81   H     H_    0.822111 0.950244 0.658801 0.230300
H82   H     H_    0.905358 0.968316 0.642447 0.220881
C129  C     C_2   0.388260 0.549423 0.163508 0.852238
O41   O     O_2   0.413368 0.627264 0.192131 -0.561179
O42   O     O_R   0.429555 0.523021 0.217665 -0.754076
H83   H     H_    0.416976 0.460964 0.187321 0.298443
N17   N     N_3   0.197017 0.492350 0.874544 -0.597683
H84   H     H_    0.183106 0.541403 0.899783 0.237924
H85   H     H_    0.143157 0.443798 0.814194 0.230333
C130  C     C_2   0.905278 0.263133 0.532642 0.858549
O43   O     O_2   0.880613 0.306549 0.506074 -0.512390
O44   O     O_R   0.993750 0.292371 0.573687 -0.759304
H86   H     H_    0.007418 0.246899 0.580794 0.311828
N18   N     N_3   0.622317 0.592417 0.346960 -0.525068
H87   H     H_    0.591576 0.605965 0.300067 0.271970
H88   H     H_    0.652150 0.558954 0.325571 0.219793
N19   N     N_3   0.630404 0.994230 0.322084 -0.524522
H89   H     H_    0.654183 0.985865 0.279350 0.213446
H90   H     H_    0.598057 0.029097 0.312933 0.240163
C131  C     C_2   0.651445 0.922272 0.437567 0.798072
O45   O     O_2   0.580226 0.880910 0.372379 -0.560698
O46   O     O_R   0.676414 0.882324 0.483849 -0.802417
H91   H     H_    0.633815 0.817688 0.451683 0.325363

loop_
_geom_bond_atom_site_label_1
_geom_bond_atom_site_label_2
_ccdc_geom_bond_type
Cu1   O1    S    
N3    H48   S    
C78   C79   A    
C125  O34   S    
C70   H14   S    
C93   C94   A    
C5    C114  S    
C103  O14   A    
Cu3   Cu4   S    
C73   C74   A    
C35   C36   A    
C33   O19   A    
C42   N3    S    
C114  C115  A    
C90   C91   A    
C128  O39   D    
C45   C46   A    
C16   H38   S    
C72   H16   S    
C104  O17   A    
N3    H49   S    
N13   H72   S    
C37   C38   A    
C97   O4    A    
C103  O15   A    
N7    H59   S    
C13   C29   A    
C28   C29   A    
C103  C113  S    
N11   H67   S    
C76   C78   A    
C30   H41   S    
C34   C35   A    
Cu6   O13   S    
C109  C111  A    
C73   H17   S    
C112  C117  A    
C115  H30   S    
C1    O12   A    
N4    H51   S    
C15   C25   S    
C4    H33   S    
Cu4   O6    S    
C106  C107  A    
N1    H44   S    
C43   C49   A    
C15   C16   A    
C54   H8    S    
C130  O44   S    
C2    C110  A    
O32   H66   S    
C108  C109  A    
C17   C18   A    
C131  O45   D    
C41   C42   A    
C1    O1    A    
C37   C42   A    
N1    H45   S    
C17   C101  S    
C118  C119  A    
C11   C129  S    
C29   C88   S    
C74   H18   S    
C101  O10   A    
N5    H53   S    
Cu1   O18   S    
C77   N7    S    
C80   H21   S    
C119  C128  S    
Cu6   O17   S    
O42   H83   S    
C77   C88   A    
C8    C9    A    
C65   C67   A    
C112  H29   S    
C127  O38   S    
C100  O8    A    
C47   C48   A    
N12   H70   S    
C107  C108  A    
N19   H90   S    
C57   H10   S    
C70   C71   A    
C129  O41   D    
C27   N18   S    
C44   C87   S    
O40   H78   S    
C7    N17   S    
C122  O28   S    
C121  O25   D    
C71   H15   S    
C27   C28   A    
C106  H27   S    
C23   C25   A    
C19   C130  S    
C105  C111  A    
C59   C60   A    
C10   H36   S    
C96   O2    A    
N17   H84   S    
Cu5   O16   S    
C120  H32   S    
C102  O11   A    
C124  O32   S    
Cu6   O15   S    
C94   C95   A    
C100  O7    A    
C22   C131  S    
C38   N5    S    
N10   H65   S    
C112  C113  A    
Cu3   O5    S    
N9    H62   S    
C14   C98   S    
C63   N8    S    
C54   C56   A    
C43   H4    S    
C83   C89   A    
C83   N11   S    
N13   H73   S    
C60   H12   S    
C3    N15   S    
C74   C75   A    
C63   C64   A    
C51   C52   A    
C52   H6    S    
C55   O22   A    
C63   C69   A    
C7    C8    A    
C53   H7    S    
C84   C85   A    
N7    H58   S    
N5    H52   S    
C3    C120  A    
C86   H23   S    
C76   C82   A    
Cu1   O22   S    
C98   O5    A    
C55   C68   S    
N4    H50   S    
C68   C69   A    
C121  O26   S    
C58   C59   A    
C85   C86   A    
C99   C110  A    
C81   C82   A    
C67   C68   A    
C13   C24   A    
C47   H5    S    
C60   C61   A    
C32   C34   A    
C62   H9    S    
C35   H1    S    
C122  O27   D    
Cu5   O11   S    
C32   N1    S    
C20   H39   S    
C44   O21   A    
C123  O30   S    
C23   H40   S    
C21   N19   S    
C6    H34   S    
C83   C84   A    
Cu2   O23   S    
C64   C100  S    
C30   C31   A    
C124  O31   D    
C81   H22   S    
C127  O37   D    
C20   C21   A    
C92   H25   S    
C8    C18   S    
C50   C51   A    
C26   C27   A    
Cu4   O2    S    
N11   H68   S    
N2    H46   S    
C31   H42   S    
C9    H35   S    
C92   C93   A    
C43   C45   A    
Cu1   Cu2   S    
C33   O18   A    
N14   H76   S    
C44   O20   A    
Cu3   O24   S    
C58   H11   S    
N14   H77   S    
C40   C41   A    
C104  O16   A    
C99   H20   S    
C12   C14   A    
C76   H19   S    
C78   C124  S    
N8    H61   S    
C10   C11   A    
N17   H85   S    
N19   H89   S    
Cu5   O9    S    
Cu5   Cu6   S    
C84   C104  S    
N16   H82   S    
C79   C80   A    
C57   C62   A    
Cu2   O12   S    
C12   C18   A    
C3    C4    A    
C16   C17   A    
C6    C11   A    
C52   C53   A    
C86   C87   A    
Cu2   O21   S    
C126  O36   S    
C113  C114  A    
C9    C10   A    
C59   C69   S    
C26   C36   S    
C123  O29   D    
C37   N4    S    
C82   N10   S    
C46   C47   A    
O46   H91   S    
C28   C33   S    
N12   H69   S    
Cu5   O14   S    
N16   H81   S    
C102  O13   A    
C31   C32   A    
C61   H13   S    
C14   C15   A    
C90   C95   A    
C24   C26   A    
C80   C81   A    
C2    C66   A    
C97   O3    A    
O30   H57   S    
C91   H24   S    
Cu3   O7    S    
C119  C120  A    
C39   C49   S    
C1    C48   S    
C53   C54   A    
C6    C7    A    
Cu4   O8    S    
C111  N13   S    
C105  C106  A    
C19   C20   A    
O44   H86   S    
C65   C75   S    
C115  C116  A    
C30   C36   A    
C5    C118  A    
N15   H79   S    
C51   C123  S    
C21   C22   A    
C2    C121  S    
O36   H74   S    
C90   N12   S    
O38   H75   S    
C118  H31   S    
C130  O43   D    
N9    H63   S    
C128  O40   S    
C13   N16   S    
C64   C65   A    
C12   H37   S    
C41   H3    S    
C85   C95   S    
C96   O24   A    
Cu2   O19   S    
C38   C39   A    
C50   C122  S    
C109  N14   S    
C72   C73   A    
C48   C49   A    
C4    C5    A    
O28   H56   S    
N18   H88   S    
N10   H64   S    
C129  O42   S    
C116  C117  A    
Cu6   O10   S    
C131  O46   S    
C24   C97   S    
C66   C77   A    
C110  C126  S    
C61   C62   A    
C19   C25   A    
C94   C125  S    
C50   C56   A    
C79   C89   S    
C88   C99   A    
N18   H87   S    
C45   C102  S    
N6    H55   S    
O26   H43   S    
C39   C40   A    
C34   N2    S    
C71   C72   A    
C108  H28   S    
N6    H54   S    
C67   N9    S    
N2    H47   S    
N8    H60   S    
C46   C56   S    
C70   C75   A    
C87   C89   A    
C22   C23   A    
C96   C116  S    
C93   H26   S    
C105  C127  S    
Cu4   O4    S    
C57   C58   A    
C125  O33   D    
C66   N6    S    
C107  C117  S    
C101  O9    A    
Cu3   O3    S    
C91   C92   A    
N15   H80   S    
O34   H71   S    
C55   O23   A    
C126  O35   D    
Cu1   O20   S    
C98   O6    A    
C40   H2    S    
