data_mof_unit_41417.cif
_audit_creation_date              2012-12-11T20:21:53-0500
_audit_creation_method            fapswitch 2.2
_symmetry_space_group_name_H-M    P1
_symmetry_Int_Tables_number       1
_space_group_crystal_system       triclinic
_cell_length_a                    8.260095
_cell_length_b                    17.387824
_cell_length_c                    26.92427
_cell_angle_alpha                 99.547471
_cell_angle_beta                  92.878862
_cell_angle_gamma                 81.528185
_cell_volume                      3770.50762498

loop_
_atom_site_label
_atom_site_type_symbol
_atom_type_description
_atom_site_fract_x
_atom_site_fract_y
_atom_site_fract_z
_atom_type_partial_charge
Ba1   Ba    Ba6+2 0.860160 0.462360 0.521850 1.670826
Ba2   Ba    Ba6+2 0.329680 0.537570 0.478140 1.692945
C1    C     C_3   0.769455 0.184582 0.648541 -0.300459
C2    C     C_3   0.721794 0.262383 0.629022 0.439458
C3    C     C_3   0.493626 0.664692 0.634556 0.302882
C4    C     C_3   0.484139 0.694367 0.690901 -0.372613
C5    C     C_3   0.024815 0.710637 0.346687 0.338994
C6    C     C_3   0.034049 0.735924 0.295676 -0.344720
C7    C     C_3   0.482865 0.747256 0.369027 0.365311
C8    C     C_3   0.435110 0.824585 0.349006 -0.358407
C9    C     C_R   0.017282 0.439576 0.175608 0.703110
C10   C     C_R   0.884612 0.572420 0.177788 0.578153
C11   C     C_2   0.750921 0.549421 0.274201 -0.148010
C12   C     C_3   0.212116 0.273371 0.653694 0.642206
C13   C     C_3   0.734159 0.578491 0.329888 -0.061803
C14   C     C_1   0.985827 0.488777 0.342519 -0.023640
C15   C     C_2   0.024087 0.484016 0.294108 0.554804
C16   C     C_2   0.897814 0.513209 0.256152 0.119863
C17   C     C_R   0.011042 0.501840 0.100015 -0.090843
C18   C     C_R   0.061047 0.436545 0.124792 -0.145426
C19   C     C_R   0.149974 0.368640 0.097777 -0.063123
C20   C     C_R   0.918966 0.569452 0.126591 -0.002888
C21   C     C_2   0.849975 0.530909 0.361855 -0.391699
C22   C     C_2   0.355570 0.483913 0.639814 -0.270242
C23   C     C_3   0.158183 0.266690 0.706329 0.186749
C24   C     C_R   0.204139 0.434299 0.972801 0.034260
C25   C     C_R   0.023122 0.560677 0.971507 0.024196
C26   C     C_R   0.134351 0.497038 0.946846 0.045632
C27   C     C_R   0.327704 0.377316 0.948155 -0.047281
C28   C     C_R   0.368730 0.377479 0.898498 -0.077413
C29   C     C_R   0.292976 0.436103 0.871440 -0.029047
C30   C     C_R   0.177685 0.496771 0.895881 -0.078231
C31   C     C_R   0.106837 0.557692 0.869546 -0.029733
C32   C     C_R   0.153063 0.557699 0.819654 0.588370
C33   C     C_R   0.332473 0.436013 0.820754 0.581818
C34   C     C_3   0.200707 0.289452 0.404397 0.870594
C35   C     C_2   0.462928 0.485260 0.728404 -0.057785
C36   C     C_3   0.503934 0.490131 0.674559 -0.069468
C37   C     C_1   0.210419 0.515482 0.657039 0.044558
C38   C     C_2   0.172077 0.512851 0.703949 -0.113312
C39   C     C_2   0.304523 0.496830 0.742943 0.188460
C40   C     C_R   0.152451 0.432417 0.022727 -0.063980
C41   C     C_R   0.051591 0.499488 0.048557 -0.008735
C42   C     C_R   0.989617 0.564247 0.023381 0.045382
C43   C     C_R   0.193774 0.365768 0.047929 0.567904
C44   C     C_R   0.863501 0.633776 0.101705 -0.054098
C45   C     C_3   0.132555 0.211442 0.395963 -0.274672
C46   C     C_R   0.949441 0.619146 0.943215 -0.100622
C47   C     C_R   0.991086 0.617771 0.893620 -0.055153
C48   C     C_R   0.896974 0.631239 0.051373 -0.097647
C49   C     C_2   0.441814 0.277910 0.511424 -0.228601
C50   C     C_3   0.371439 0.225169 0.541176 0.026298
C51   C     C_2   0.409769 0.139575 0.519961 -0.119086
C52   C     C_2   0.544886 0.114195 0.492212 0.003485
C53   C     C_2   0.634070 0.173768 0.475455 -0.109759
C54   C     C_1   0.572232 0.249449 0.483868 0.140839
C55   C     C_R   0.786638 0.862062 0.470427 -0.126718
C56   C     C_3   0.974404 0.701959 0.587827 0.307470
C57   C     C_R   0.846586 0.781775 0.465103 0.013796
C58   C     C_R   0.616544 0.759047 0.510080 0.042529
C59   C     C_R   0.556471 0.839129 0.516062 -0.117070
C60   C     C_R   0.639261 0.891073 0.495564 0.010675
C61   C     C_2   0.607196 0.029165 0.478485 -0.070013
C62   C     C_2   0.577704 0.975894 0.506657 -0.076068
C63   C     C_R   0.757378 0.730078 0.482784 -0.282256
C64   C     C_3   0.943780 0.790952 0.603368 -0.378659
C65   C     C_3   0.692612 0.366510 0.369424 0.351694
C66   C     C_3   0.702936 0.346788 0.312405 -0.313613
H1    H     H_    0.827284 0.274332 0.609419 0.089696
H2    H     H_    0.174370 0.175997 0.359490 0.120839
H3    H     H_    0.176380 0.177527 0.426701 0.070501
H4    H     H_    0.996877 0.221603 0.394864 0.078864
H5    H     H_    0.857746 0.680271 0.575393 0.006811
H6    H     H_    0.060225 0.687766 0.556205 0.075564
H7    H     H_    0.852326 0.806909 0.633554 0.136723
H8    H     H_    0.896893 0.819834 0.570802 0.061031
H9    H     H_    0.059833 0.812992 0.617502 0.124476
H10   H     H_    0.808876 0.385497 0.385278 -0.056377
H11   H     H_    0.590673 0.415172 0.378842 0.082223
H12   H     H_    0.817058 0.137889 0.617096 0.054073
H13   H     H_    0.809811 0.301099 0.301933 0.121443
H14   H     H_    0.716817 0.400091 0.296434 0.051261
H15   H     H_    0.589277 0.324512 0.296071 0.171981
H16   H     H_    0.620387 0.256436 0.601043 -0.012498
H17   H     H_    0.662347 0.166526 0.664582 0.133356
H18   H     H_    0.370269 0.651776 0.620431 0.028577
H19   H     H_    0.583450 0.610044 0.628119 0.032137
H20   H     H_    0.400944 0.751139 0.697936 0.138707
H21   H     H_    0.435628 0.651194 0.710102 0.071871
H22   H     H_    0.607859 0.703226 0.706896 0.129451
H23   H     H_    0.866156 0.190322 0.678543 0.161832
H24   H     H_    0.255028 0.282855 0.734889 0.088279
H25   H     H_    0.095867 0.650843 0.345578 0.071464
H26   H     H_    0.894117 0.709014 0.353645 -0.053510
H27   H     H_    0.162476 0.741179 0.287659 0.154027
H28   H     H_    0.990358 0.690949 0.265966 0.138096
H29   H     H_    0.955951 0.793744 0.294890 0.115615
H30   H     H_    0.618805 0.736674 0.371767 -0.072231
H31   H     H_    0.433167 0.753614 0.407343 0.078957
H32   H     H_    0.490441 0.872258 0.373802 0.072228
H33   H     H_    0.300054 0.840792 0.348312 0.150387
H34   H     H_    0.206134 0.337274 0.651381 0.019686
H35   H     H_    0.480444 0.819005 0.310171 0.125012
H36   H     H_    0.185331 0.316271 0.115105 0.161295
H37   H     H_    0.562405 0.477655 0.755865 0.111891
H38   H     H_    0.463136 0.331768 0.881593 0.134545
H39   H     H_    0.401121 0.333529 0.966932 0.172314
H40   H     H_    0.651643 0.567991 0.248935 0.151556
H41   H     H_    0.792535 0.686977 0.121113 0.124564
H42   H     H_    0.856194 0.666520 0.958013 0.073555
H43   H     H_    0.931386 0.664510 0.874065 0.124647
H44   H     H_    0.044863 0.522957 0.714495 0.132557
H45   H     H_    0.851624 0.684219 0.035938 0.071934
H46   H     H_    0.836305 0.545414 0.402332 0.105580
H47   H     H_    0.368501 0.454583 0.601044 0.070970
H48   H     H_    0.504970 0.994603 0.540074 0.068800
H49   H     H_    0.746857 0.154337 0.455054 0.075085
H50   H     H_    0.859604 0.901547 0.457784 0.073914
H51   H     H_    0.683075 0.011081 0.445681 0.076460
H52   H     H_    0.335797 0.099225 0.531308 0.071291
H53   H     H_    0.448534 0.861304 0.538195 0.080227
H54   H     H_    0.404245 0.340933 0.520825 0.061090
H55   H     H_    0.805507 0.668174 0.479516 0.061088
H56   H     H_    0.143602 0.204564 0.707780 0.067715
H57   H     H_    0.170655 0.320379 0.443049 -0.042506
N1    N     N_R   0.933826 0.508005 0.202473 -0.412081
N2    N     N_R   0.263234 0.496697 0.795245 -0.429637
O1    O     O_2   0.906370 0.542040 0.619810 -0.471784
O2    O     O_3   0.665335 0.299148 0.388025 -0.563017
O3    O     O_3   0.108980 0.236608 0.616332 -0.632511
O4    O     O_2   0.283330 0.457940 0.380160 -0.407399
O5    O     O_3   0.051340 0.457960 0.440360 -0.519427
O6    O     O_3   0.503130 0.601610 0.416130 -0.488815
O7    O     O_3   0.138195 0.332250 0.366342 -0.624506
O8    O     O_3   0.616890 0.595000 0.528820 -0.484127
O9    O     O_3   0.087820 0.642040 0.442240 -0.497278
O10   O     O_2   0.181021 0.781610 0.478718 -0.485878
O11   O     O_3   0.091382 0.764769 0.383678 -0.597292
O12   O     O_3   0.138370 0.541980 0.559630 -0.494863
O13   O     O_3   0.572820 0.404940 0.471170 -0.488652
O14   O     O_2   0.345130 0.693150 0.532000 -0.462600
O15   O     O_3   0.544229 0.722954 0.611057 -0.640847
O16   O     O_2   0.416035 0.533707 0.324283 -0.412348
O17   O     O_3   0.418344 0.686034 0.336615 -0.589933
O18   O     O_2   0.051299 0.380691 0.195459 -0.534223
O19   O     O_2   0.427326 0.381346 0.799269 -0.583558
O20   O     O_2   0.811221 0.633265 0.200409 -0.620326
O21   O     O_2   0.096830 0.612978 0.798259 -0.597445
O22   O     O_3   0.686580 0.398330 0.583860 -0.514246
O23   O     O_2   0.844428 0.437028 0.669821 -0.475643
O24   O     O_3   0.039978 0.668224 0.629410 -0.626050
O25   O     O_3   0.672899 0.323105 0.669071 -0.535212
O26   O     O_2   0.844570 0.306830 0.467970 -0.500173
O27   O     O_3   0.101900 0.357890 0.557750 -0.482763
O28   O     O_2   0.034206 0.215261 0.519199 -0.506260
P1    P     P_3+3 0.071770 0.565500 0.613330 0.995213
P2    P     P_3+3 0.664870 0.318630 0.453960 1.059762
P3    P     P_3+3 0.152823 0.257236 0.557113 0.948069
P4    P     P_3+3 0.117940 0.434440 0.386660 1.079014
P5    P     P_3+3 0.052697 0.743618 0.442736 0.945854
P6    P     P_3+3 0.676728 0.414274 0.649546 1.007775
P7    P     P_3+3 0.531917 0.694139 0.545738 0.948958
P8    P     P_3+3 0.518614 0.596528 0.351326 0.978914
F1    F     F_    0.178690 0.454650 0.279052 -0.645735
F2    F     F_    0.264740 0.294420 0.024218 -0.707840
O29   O     O_3   0.375031 0.236919 0.648192 -0.798341
H58   H     H_    0.374028 0.179057 0.644912 0.276304
O30   O     O_3   0.009198 0.314852 0.718093 -0.695128
H59   H     H_    0.036496 0.367155 0.734290 0.308187
F3    F     F_    0.366903 0.272550 0.399472 -0.741609

loop_
_geom_bond_atom_site_label_1
_geom_bond_atom_site_label_2
_ccdc_geom_bond_type
C25   C46   A    
C46   H42   S    
C53   C54   D    
C7    H30   S    
C62   H48   S    
C1    H17   S    
C39   N2    S    
C17   C18   A    
C6    H28   S    
Ba1   O1    S    
C41   C42   A    
Ba1   O5    S    
O2    P2    S    
C51   H52   S    
C5    C6    S    
C38   H44   S    
C51   C52   D    
C56   O24   S    
C65   H10   S    
C24   C40   A    
C54   P2    S    
C11   C16   D    
Ba2   O12   S    
O12   P1    S    
C10   O20   D    
C1    H23   S    
C8    H35   S    
C35   C36   S    
O27   P3    S    
C53   H49   S    
C28   C29   A    
C12   H34   S    
C10   N1    Am   
C52   C61   S    
C31   C47   A    
C10   C20   A    
C22   C37   D    
C4    H20   S    
C34   C45   S    
C59   H53   S    
C49   C54   D    
C5    H26   S    
C60   C62   S    
C19   H36   S    
C32   O21   D    
C25   C42   A    
C56   C64   S    
C36   P6    S    
C34   H57   S    
Ba2   P4    S    
C15   C16   S    
Ba2   O5    S    
Ba1   O22   S    
C12   O29   S    
C7    C8    S    
O25   P6    S    
Ba1   O12   S    
C47   H43   S    
C13   C21   S    
O7    P4    S    
O14   P7    D    
C7    H31   S    
C28   H38   S    
O28   P3    D    
O26   P2    D    
C65   O2    S    
C6    H27   S    
C11   H40   S    
C2    O25   S    
C1    H12   S    
O6    P8    S    
O16   P8    D    
C2    H1    S    
C7    O17   S    
C17   C41   A    
Ba2   O4    S    
C19   C43   A    
C23   O30   S    
C50   P3    S    
C5    H25   S    
C9    C18   A    
O5    P4    S    
C49   C50   S    
Ba2   O6    S    
O30   H59   S    
C55   C60   A    
C9    N1    Am   
C65   H11   S    
C37   C38   D    
C32   N2    Am   
C4    H22   S    
Ba2   O9    S    
C65   C66   S    
C58   C59   A    
C33   O19   D    
O9    P5    S    
Ba1   P1    S    
O4    P4    D    
C6    H29   S    
C45   H2    S    
C35   H37   S    
C27   C28   A    
C15   F1    S    
O13   P2    S    
C61   H51   S    
C57   P5    S    
C22   C36   S    
C29   C30   A    
C2    H16   S    
C26   C30   A    
C64   H8    S    
C17   C20   A    
C31   C32   A    
O24   P1    S    
C8    H32   S    
C45   H3    S    
Ba1   O13   S    
C24   C27   A    
C3    H18   S    
C38   C39   S    
C20   C44   A    
C58   C63   A    
C14   C21   D    
C11   C13   S    
O17   P8    S    
O29   H58   S    
O8    P7    S    
C29   C33   A    
O22   P6    S    
C40   C41   A    
C66   H13   S    
C1    C2    S    
C33   N2    Am   
C50   C51   S    
C56   H6    S    
C12   O3    S    
C13   P8    S    
C49   H54   S    
C64   H9    S    
C52   C53   S    
C46   C47   A    
C23   H24   S    
O10   P5    D    
C66   H15   S    
C24   C26   A    
C8    H33   S    
C9    O18   D    
C34   O7    S    
O15   P7    S    
C5    O11   S    
Ba1   O27   S    
O23   P6    D    
C4    H21   S    
C42   C48   A    
C44   C48   A    
C34   F3    S    
Ba2   O8    S    
C37   P1    S    
O3    P3    S    
C48   H45   S    
C66   H14   S    
C30   C31   A    
Ba1   P2    S    
Ba2   O13   S    
C57   C63   A    
C21   H46   S    
C3    O15   S    
C3    C4    S    
C58   P7    S    
C64   H7    S    
Ba1   Ba2   S    
C63   H55   S    
C12   C23   S    
C35   C39   D    
C59   C60   A    
C23   H56   S    
C45   H4    S    
Ba1   O26   S    
C55   C57   A    
O1    P1    D    
C61   C62   D    
C3    H19   S    
O11   P5    S    
C18   C19   A    
C56   H5    S    
C22   H47   S    
C44   H41   S    
C25   C26   A    
Ba2   O14   S    
C27   H39   S    
Ba1   O8    S    
C43   F2    S    
C40   C43   A    
C16   N1    S    
C14   C15   D    
C55   H50   S    
C14   P4    S    
