data_mof_unit_50060.cif
_audit_creation_date              2012-12-10T16:49:27-0500
_audit_creation_method            fapswitch 2.2
_symmetry_space_group_name_H-M    P1
_symmetry_Int_Tables_number       1
_space_group_crystal_system       triclinic
_cell_length_a                    19.32888
_cell_length_b                    8.688601
_cell_length_c                    7.447321
_cell_angle_alpha                 102.861253
_cell_angle_beta                  94.969059
_cell_angle_gamma                 92.370289
_cell_volume                      1212.37961121

loop_
_atom_site_label
_atom_site_type_symbol
_atom_type_description
_atom_site_fract_x
_atom_site_fract_y
_atom_site_fract_z
_atom_type_partial_charge
C1    C     C_R   0.497910 0.199704 0.453300 0.890248
C2    C     C_R   0.502090 0.800296 0.546700 0.890248
C3    C     C_2   0.496908 0.031907 0.426922 -0.370476
C4    C     C_2   0.503092 0.968092 0.573078 -0.370476
C5    C     C_R   0.367423 0.498906 0.500789 0.793090
C6    C     C_R   0.632577 0.501093 0.499210 0.793090
C7    C     C_R   0.259692 0.527671 0.664585 -0.195193
C8    C     C_R   0.740308 0.472329 0.335415 -0.195193
C9    C     C_R   0.187535 0.527174 0.659996 -0.202420
C10   C     C_R   0.812465 0.472826 0.340004 -0.202420
C11   C     C_R   0.145628 0.495283 0.490478 0.057960
C12   C     C_R   0.854372 0.504717 0.509522 0.057960
C13   C     C_R   0.177124 0.460429 0.322520 0.174368
C14   C     C_R   0.822875 0.539571 0.677479 0.174369
C15   C     C_R   0.249689 0.462223 0.329385 -0.171275
C16   C     C_R   0.750311 0.537777 0.670615 -0.171275
C17   C     C_R   0.291303 0.496391 0.499295 -0.069892
C18   C     C_R   0.708697 0.503608 0.500705 -0.069892
C19   C     C_R   0.930263 0.503042 0.505773 0.411158
C20   C     C_R   0.069737 0.496958 0.494226 0.411158
Cu1   Cu    Cu3+1 0.507710 0.517380 0.684380 0.949070
Cu2   Cu    Cu3+1 0.492290 0.482620 0.315620 0.949070
H1    H     H_    0.290643 0.553932 0.797345 0.159550
H2    H     H_    0.709357 0.446068 0.202655 0.159550
H3    H     H_    0.164335 0.554171 0.789764 0.157053
H4    H     H_    0.835665 0.445829 0.210236 0.157053
H5    H     H_    0.273774 0.435930 0.200813 0.152837
H6    H     H_    0.726226 0.564070 0.799186 0.152837
H7    H     H_    0.491076 0.960509 0.285967 0.179618
H8    H     H_    0.508924 0.039491 0.714033 0.179618
H9    H     H_    0.445052 0.378924 0.948309 0.223523
H10   H     H_    0.554948 0.621076 0.051691 0.223523
N1    N     N_R   0.029865 0.554249 0.368043 -0.228988
N2    N     N_R   0.970134 0.445750 0.631957 -0.228988
N3    N     N_R   0.961341 0.556594 0.373074 -0.237720
N4    N     N_R   0.038659 0.443406 0.626926 -0.237720
N5    N     N_2   0.480680 0.456420 0.038530 -0.218462
N6    N     N_2   0.519320 0.543580 0.961470 -0.218462
O1    O     O_R   0.505010 0.286130 0.619770 -0.581400
O2    O     O_R   0.494990 0.713870 0.380230 -0.581400
O3    O     O_R   0.491990 0.256780 0.308370 -0.584697
O4    O     O_R   0.508010 0.743220 0.691630 -0.584697
O5    O     O_R   0.406650 0.514660 0.655750 -0.589152
O6    O     O_R   0.593350 0.485340 0.344250 -0.589152
O7    O     O_R   0.393640 0.485310 0.344340 -0.587375
O8    O     O_R   0.606360 0.514690 0.655660 -0.587375
C21   C     C_3   0.135196 0.415814 0.135871 -0.831008
H11   H     H_    0.168414 0.372657 0.022875 0.219766
H12   H     H_    0.095409 0.319361 0.133843 0.246594
H13   H     H_    0.109566 0.520291 0.105292 0.253222
C22   C     C_3   0.864804 0.584186 0.864128 -0.831009
H14   H     H_    0.831586 0.627343 0.977125 0.219766
H15   H     H_    0.890434 0.479709 0.894708 0.253222
H16   H     H_    0.904591 0.680639 0.866157 0.246594

loop_
_geom_bond_atom_site_label_1
_geom_bond_atom_site_label_2
_ccdc_geom_bond_type
C16   H6    S    
C2    C4    S    
C15   C17   A    
N5    N6    D    
H10   N6    S    
C11   C13   A    
C15   H5    S    
C21   H11   S    
Cu1   O1    S    
C22   H16   S    
Cu2   O2    S    
C7    C9    A    
C10   H4    S    
C8    C18   A    
C5    O5    A    
C9    H3    S    
C21   H12   S    
C19   N3    A    
Cu1   Cu2   S    
C9    C11   A    
C10   C12   A    
C2    O4    A    
C7    H1    S    
C20   N1    A    
C12   C19   S    
C1    O3    A    
C13   C21   S    
N1    N3    A    
C12   C14   A    
C21   H13   S    
N2    N4    A    
C13   C15   A    
C6    C18   S    
C14   C16   A    
C11   C20   S    
Cu2   O3    S    
C5    C17   S    
C1    O1    A    
C22   H14   S    
C20   N4    A    
C2    O2    A    
Cu2   O7    S    
C6    O6    A    
C16   C18   A    
Cu1   O8    S    
C1    C3    S    
C3    H7    S    
Cu2   O6    S    
Cu1   O4    S    
C6    O8    A    
C8    H2    S    
Cu1   O5    S    
Cu2   N5    S    
C5    O7    A    
C19   N2    A    
C8    C10   A    
C4    H8    S    
Cu1   N6    S    
C14   C22   S    
H9    N5    S    
C22   H15   S    
C3    C4    D    
C7    C17   A    
