data_mof_unit_10739.cif
_audit_creation_date              2012-12-10T18:58:45-0500
_audit_creation_method            fapswitch 2.2
_symmetry_space_group_name_H-M    P1
_symmetry_Int_Tables_number       1
_space_group_crystal_system       triclinic
_cell_length_a                    12.992624
_cell_length_b                    10.855903
_cell_length_c                    9.548036
_cell_angle_alpha                 90.887917
_cell_angle_beta                  95.893419
_cell_angle_gamma                 90.387467
_cell_volume                      1339.39261853

loop_
_atom_site_label
_atom_site_type_symbol
_atom_type_description
_atom_site_fract_x
_atom_site_fract_y
_atom_site_fract_z
_atom_type_partial_charge
C1    C     C_R   0.497343 0.262502 0.498588 0.801907
C2    C     C_R   0.027822 0.509057 0.567111 0.177222
C3    C     C_R   0.972203 0.488227 0.433702 0.183678
C4    C     C_R   0.864883 0.482232 0.422278 -0.278911
C5    C     C_R   0.867678 0.520439 0.673989 -0.199696
C6    C     C_R   0.975182 0.524541 0.686774 -0.220328
C7    C     C_R   0.473538 0.066701 0.617941 0.129067
C8    C     C_R   0.485890 0.129767 0.494806 -0.098729
C9    C     C_R   0.483995 0.062522 0.367728 -0.223072
C10   C     C_R   0.485055 0.934013 0.369431 -0.217988
C11   C     C_R   0.488385 0.871473 0.498162 -0.096904
C12   C     C_R   0.300559 0.499796 0.473918 0.804947
C13   C     C_R   0.474694 0.939832 0.620076 0.133760
C14   C     C_3   0.533820 0.940909 0.762897 -0.505254
C15   C     C_3   0.531699 0.080192 0.760082 -0.451390
C16   C     C_R   0.584128 0.543637 0.086150 0.219861
C17   C     C_R   0.421906 0.445977 0.062532 -0.086796
C18   C     C_R   0.421775 0.446231 0.913753 -0.081358
C19   C     C_R   0.584535 0.541158 0.938445 0.223815
C20   C     C_3   0.629996 0.666171 0.935972 -0.526699
C21   C     C_3   0.626445 0.673148 0.094462 -0.158866
C22   C     C_R   0.498438 0.737972 0.500419 0.797644
C23   C     C_R   0.699430 0.499551 0.526160 0.796355
C24   C     C_R   0.812177 0.500201 0.541536 -0.053561
C25   C     C_R   0.187808 0.498063 0.458938 -0.048542
C26   C     C_R   0.024724 0.473881 0.313805 -0.225101
C27   C     C_R   0.132203 0.479102 0.326303 -0.197892
C28   C     C_R   0.135236 0.513569 0.578829 -0.270990
Cu1   Cu    Cu3+1 0.499990 0.499980 0.640670 0.937560
Cu2   Cu    Cu3+1 0.500010 0.500020 0.359330 0.932835
H1    H     H_    0.822551 0.463400 0.320378 0.145368
H2    H     H_    0.613273 0.903669 0.761684 0.197751
H3    H     H_    0.483728 0.121611 0.838230 0.196170
H4    H     H_    0.609526 0.122871 0.757318 0.201799
H5    H     H_    0.357898 0.403799 0.108416 0.135286
H6    H     H_    0.357571 0.404325 0.848641 0.138063
H7    H     H_    0.708653 0.664419 0.899971 0.185744
H8    H     H_    0.575504 0.729054 0.878808 0.206675
H9    H     H_    0.569262 0.740799 0.126893 0.170969
H10   H     H_    0.828164 0.533887 0.767433 0.148153
H11   H     H_    0.982799 0.458552 0.210839 0.129680
H12   H     H_    0.017001 0.540433 0.789698 0.131514
H13   H     H_    0.171686 0.466960 0.232576 0.149307
H14   H     H_    0.177691 0.529069 0.681496 0.149339
H15   H     H_    0.487289 0.108495 0.268389 0.164285
H16   H     H_    0.488217 0.884621 0.270754 0.155375
H17   H     H_    0.487025 0.903683 0.843974 0.194713
N1    N     N_R   0.500660 0.500930 0.148010 -0.193352
N2    N     N_R   0.500660 0.500890 0.852110 -0.180619
O1    O     O_R   0.500000 0.319640 0.618810 -0.579442
O2    O     O_R   0.500010 0.319680 0.381230 -0.583707
O3    O     O_R   0.348990 0.499960 0.599490 -0.591396
O4    O     O_R   0.349000 0.500000 0.361910 -0.590754
O5    O     O_R   0.499990 0.680320 0.618770 -0.577681
O6    O     O_R   0.500000 0.680360 0.381190 -0.589384
O7    O     O_R   0.651000 0.500000 0.638090 -0.582525
O8    O     O_R   0.651010 0.500040 0.400510 -0.596688
C29   C     C_3   0.733700 0.686731 0.177598 -0.347500
C30   C     C_3   0.780146 0.815265 0.161403 -0.364799
C31   C     C_3   0.885264 0.828274 0.248022 -0.835472
H18   H     H_    0.877276 0.814461 0.361509 0.256758
H19   H     H_    0.940174 0.759413 0.212060 0.256158
H20   H     H_    0.917285 0.921985 0.234890 0.242505
H21   H     H_    0.790168 0.831909 0.049043 0.224993
H22   H     H_    0.727175 0.886340 0.197716 0.221418
H23   H     H_    0.725453 0.674222 0.290679 0.226443
H24   H     H_    0.787037 0.615555 0.142337 0.188277

loop_
_geom_bond_atom_site_label_1
_geom_bond_atom_site_label_2
_ccdc_geom_bond_type
C10   H16   S    
C28   H14   S    
Cu2   O2    S    
C16   C21   S    
C9    H15   S    
C22   O6    A    
Cu1   O7    S    
C25   C27   A    
C1    C8    S    
C20   H8    S    
C9    C10   A    
C19   N2    A    
C15   H4    S    
C12   O4    A    
C21   H9    S    
C17   N1    A    
C12   C25   S    
C23   C24   S    
Cu1   O5    S    
C21   C29   S    
C16   N1    A    
C19   C20   S    
C7    C15   S    
C17   C18   A    
C30   H21   S    
C30   C31   S    
C22   O5    A    
Cu1   N2    S    
C13   C14   S    
C30   H22   S    
C25   C28   A    
C20   H7    S    
C11   C13   A    
C23   O7    A    
C26   C27   A    
Cu1   Cu2   S    
C5    C24   A    
C31   H20   S    
Cu2   N1    S    
C12   O3    A    
C15   H3    S    
C2    C3    A    
Cu1   O1    S    
C16   C19   A    
C6    H12   S    
C5    C6    A    
C4    C24   A    
Cu2   O4    S    
C4    H1    S    
C7    C8    A    
C10   C11   A    
C3    C4    A    
Cu2   O8    S    
C27   H13   S    
C29   H24   S    
C7    C13   A    
C17   H5    S    
C20   C21   S    
C26   H11   S    
C31   H19   S    
C1    O1    A    
C5    H10   S    
C23   O8    A    
C14   C15   S    
C8    C9    A    
C2    C28   A    
C1    O2    A    
C11   C22   S    
C29   C30   S    
C14   H17   S    
C18   H6    S    
Cu2   O6    S    
C29   H23   S    
C3    C26   A    
C2    C6    A    
C18   N2    A    
C14   H2    S    
C31   H18   S    
Cu1   O3    S    
