data_mof_unit_13112.cif
_audit_creation_date              2012-12-10T17:10:25-0500
_audit_creation_method            fapswitch 2.2
_symmetry_space_group_name_H-M    P1
_symmetry_Int_Tables_number       1
_space_group_crystal_system       triclinic
_cell_length_a                    10.861559
_cell_length_b                    12.963683
_cell_length_c                    11.778431
_cell_angle_alpha                 99.233023
_cell_angle_beta                  94.684354
_cell_angle_gamma                 94.902279
_cell_volume                      1623.30729476

loop_
_atom_site_label
_atom_site_type_symbol
_atom_type_description
_atom_site_fract_x
_atom_site_fract_y
_atom_site_fract_z
_atom_type_partial_charge
C1    C     C_R   0.503594 0.299733 0.478871 0.818975
C2    C     C_R   0.494906 0.700004 0.521037 0.839271
C3    C     C_R   0.487358 0.812896 0.533271 -0.010241
C4    C     C_R   0.507449 0.186362 0.466318 -0.004102
C5    C     C_R   0.479044 0.014909 0.345304 -0.188172
C6    C     C_R   0.513432 0.984309 0.654177 -0.189410
C7    C     C_R   0.489465 0.123662 0.356227 -0.164883
C8    C     C_R   0.503268 0.875603 0.643367 -0.110664
C9    C     C_R   0.519990 0.139636 0.565184 -0.209422
C10   C     C_R   0.475010 0.859440 0.434189 -0.248782
C11   C     C_R   0.506991 0.030998 0.555106 0.167409
C12   C     C_R   0.486181 0.968119 0.444303 0.165697
C13   C     C_R   0.368127 0.408532 0.024346 -0.279444
C14   C     C_R   0.630821 0.592906 0.975672 -0.281023
C15   C     C_R   0.381951 0.417375 0.144945 0.057061
C16   C     C_R   0.616159 0.584906 0.855089 0.069899
C17   C     C_R   0.560523 0.538628 0.155939 0.161905
C18   C     C_R   0.440620 0.460215 0.843892 0.153735
C19   C     C_R   0.548721 0.533201 0.033330 -0.003180
C20   C     C_R   0.451585 0.466721 0.966574 -0.001544
C21   C     C_R   0.261926 0.491061 0.497564 0.811012
C22   C     C_R   0.738182 0.508459 0.502502 0.805017
C23   C     C_R   0.150268 0.667856 0.438508 -0.156071
C24   C     C_R   0.851338 0.333666 0.567837 -0.148957
C25   C     C_R   0.104302 0.762259 0.427620 -0.143777
C26   C     C_R   0.900883 0.243032 0.589169 -0.154552
C27   C     C_R   0.987834 0.780220 0.459937 -0.195101
C28   C     C_R   0.019527 0.226168 0.562030 -0.153241
C29   C     C_R   0.912421 0.701592 0.497966 -0.087376
C30   C     C_R   0.091258 0.301154 0.515124 0.018754
C31   C     C_R   0.951434 0.597997 0.492692 0.027974
C32   C     C_R   0.049799 0.402826 0.512366 0.041845
C33   C     C_R   0.076433 0.584847 0.473170 0.078396
C34   C     C_R   0.924288 0.415526 0.530102 0.073467
C35   C     C_R   0.873451 0.508803 0.509902 -0.130439
C36   C     C_R   0.126833 0.490830 0.491017 -0.121894
Cu1   Cu    Cu3+1 0.509250 0.507730 0.615930 0.996525
Cu2   Cu    Cu3+1 0.490750 0.492270 0.384070 0.982553
H1    H     H_    0.050918 0.149957 0.568322 0.163413
H2    H     H_    0.961382 0.859222 0.463378 0.152287
H3    H     H_    0.291104 0.356334 0.977487 0.168009
H4    H     H_    0.706608 0.646412 0.022720 0.168184
H5    H     H_    0.244638 0.662088 0.418783 0.144658
H6    H     H_    0.755776 0.338300 0.584112 0.147531
H7    H     H_    0.162661 0.824423 0.401198 0.155309
H8    H     H_    0.844144 0.182677 0.620317 0.153144
H9    H     H_    0.461001 0.811438 0.349009 0.180545
H10   H     H_    0.537035 0.187523 0.650227 0.187411
H11   H     H_    0.512380 0.840898 0.720987 0.161987
H12   H     H_    0.480302 0.158447 0.278670 0.152005
H13   H     H_    0.463948 0.967553 0.259836 0.143984
H14   H     H_    0.528151 0.031724 0.739626 0.146483
H15   H     H_    0.680176 0.631210 0.813316 0.190140
H16   H     H_    0.315670 0.373582 0.186581 0.168106
N1    N     N_R   0.523180 0.519350 0.790130 -0.231601
N2    N     N_R   0.476820 0.480650 0.209870 -0.226361
O1    O     O_R   0.506570 0.354460 0.582000 -0.576555
O2    O     O_R   0.493430 0.645540 0.418000 -0.576006
O3    O     O_R   0.490940 0.341410 0.386200 -0.596690
O4    O     O_R   0.509060 0.658590 0.613800 -0.577692
O5    O     O_R   0.327470 0.506520 0.597900 -0.567149
O6    O     O_R   0.672530 0.493480 0.402100 -0.567352
O7    O     O_R   0.311840 0.493460 0.402100 -0.574136
O8    O     O_R   0.688160 0.506540 0.597900 -0.570667
C37   C     C_2   0.811644 0.739671 0.565894 0.847809
O9    O     O_2   0.795238 0.708881 0.656533 -0.571149
O10   O     O_R   0.745425 0.820697 0.536255 -0.749803
H17   H     H_    0.754686 0.834877 0.455190 0.318382
C38   C     C_2   0.189588 0.259619 0.446781 0.781726
O11   O     O_2   0.246588 0.189978 0.477387 -0.622505
O12   O     O_R   0.204853 0.288662 0.339400 -0.762810
H18   H     H_    0.264638 0.245491 0.295454 0.323463
C39   C     C_2   0.339268 0.388028 0.775838 0.858221
O13   O     O_2   0.235317 0.416729 0.764275 -0.595719
O14   O     O_R   0.358403 0.283364 0.739111 -0.775690
H19   H     H_    0.279290 0.238925 0.703374 0.344537
C40   C     C_2   0.666778 0.605220 0.223300 0.853544
O15   O     O_2   0.653405 0.693389 0.272158 -0.633667
O16   O     O_R   0.785099 0.570754 0.220027 -0.755670
H20   H     H_    0.852644 0.626229 0.260462 0.333121

loop_
_geom_bond_atom_site_label_1
_geom_bond_atom_site_label_2
_ccdc_geom_bond_type
C27   C29   A    
C39   O13   D    
C19   C20   A    
Cu1   O8    S    
C13   H3    S    
C21   C36   S    
C40   O15   D    
C22   C35   S    
C32   C36   A    
C24   C26   A    
C1    O3    A    
C2    O4    A    
C33   C36   A    
C23   H5    S    
C18   C20   A    
C34   C35   A    
C38   O12   S    
C16   H15   S    
Cu2   O2    S    
C37   O10   S    
C31   C33   A    
C21   O5    A    
C14   H4    S    
C39   O14   S    
C4    C7    A    
C40   O16   S    
O10   H17   S    
C15   H16   S    
C5    C12   A    
C3    C8    A    
C6    C11   A    
C5    C7    A    
C6    C8    A    
C28   H1    S    
C23   C33   A    
C24   C34   A    
O16   H20   S    
C32   C34   A    
O14   H19   S    
Cu1   Cu2   S    
C1    O1    A    
C22   O6    A    
C27   H2    S    
C17   C40   S    
C9    C11   A    
C17   N2    A    
C10   C12   A    
C18   N1    A    
C29   C37   S    
C18   C39   S    
C13   C15   A    
C24   H6    S    
C14   C16   A    
C25   H7    S    
C30   C38   S    
Cu2   O7    S    
C13   C20   A    
C14   C19   A    
C7    H12   S    
Cu1   O5    S    
C11   C12   A    
C2    O2    A    
C25   C27   A    
C26   C28   A    
C1    C4    S    
C15   N2    A    
C28   C30   A    
C2    C3    S    
C16   N1    A    
O12   H18   S    
C29   C31   A    
C3    C10   A    
C30   C32   A    
C17   C19   A    
C31   C35   A    
C23   C25   A    
C38   O11   D    
C21   O7    A    
Cu1   O4    S    
C26   H8    S    
C22   O8    A    
Cu2   O3    S    
Cu1   N1    S    
Cu2   N2    S    
C9    H10   S    
C37   O9    D    
C10   H9    S    
C5    H13   S    
C6    H14   S    
C4    C9    A    
C8    H11   S    
Cu1   O1    S    
Cu2   O6    S    
