data_mof_unit_58944.cif
_audit_creation_date              2013-03-05T15:42:08-0500
_audit_creation_method            fapswitch 2.2
_symmetry_space_group_name_H-M    P1
_symmetry_Int_Tables_number       1
_space_group_crystal_system       triclinic
_cell_length_a                    21.994307
_cell_length_b                    7.206554
_cell_length_c                    14.913089
_cell_angle_alpha                 89.760337
_cell_angle_beta                  107.019659
_cell_angle_gamma                 89.868948
_cell_volume                      2260.21388983

loop_
_atom_site_label
_atom_site_type_symbol
_atom_site_description
_atom_site_fract_x
_atom_site_fract_y
_atom_site_fract_z
_atom_type_partial_charge
O1    O     O_R   0.584770 0.505770 0.002090 -0.556517
O2    O     O_R   0.415230 0.005770 0.997910 -0.553539
O3    O     O_R   0.467060 0.173340 0.861950 -0.557028
O4    O     O_R   0.532940 0.673340 0.138050 -0.560134
C1    C     C_R   0.455442 0.344943 0.825902 0.803026
C2    C     C_R   0.544636 0.843696 0.174131 0.796763
O5    O     O_R   0.587510 0.175890 0.993210 -0.566046
O6    O     O_R   0.412490 0.675890 0.006790 -0.567419
O7    O     O_R   0.536540 0.008150 0.130100 -0.557759
O8    O     O_R   0.463460 0.508150 0.869900 -0.553643
C3    C     C_R   0.613594 0.344206 0.001741 0.820187
C4    C     C_R   0.387909 0.845304 0.006087 0.823408
O9    O     O_3   0.483140 0.340040 0.044760 -0.286043
O10   O     O_3   0.516860 0.840040 0.955240 -0.282533
V1    V     V_3+5 0.503130 0.064190 0.991700 1.133225
V2    V     V_3+5 0.496870 0.564190 0.008300 1.131789
C5    C     C_2   0.214073 0.732742 0.000163 -0.087514
C6    C     C_2   0.784701 0.234140 0.992410 -0.083662
C7    C     C_2   0.178022 0.887382 0.988171 -0.155161
C8    C     C_2   0.818203 0.390481 0.992612 -0.182718
H1    H     H_    0.193909 0.600474 0.011574 0.098449
H2    H     H_    0.807683 0.100110 0.994166 0.105300
H3    H     H_    0.196479 0.016760 0.969739 0.085999
H4    H     H_    0.794174 0.523688 0.983059 0.068864
C9    C     C_2   0.279504 0.729815 0.989818 -0.073335
C10   C     C_2   0.714911 0.233933 0.980244 -0.094764
C11   C     C_2   0.324637 0.861060 0.022438 -0.068631
C12   C     C_2   0.683528 0.356263 0.019737 -0.069702
H5    H     H_    0.291436 0.608843 0.955046 0.083786
H6    H     H_    0.688193 0.122501 0.937753 0.076186
C13   C     C_R   0.927828 0.888412 0.723240 -0.149580
C14   C     C_R   0.071949 0.384278 0.276614 -0.150870
C15   C     C_R   0.572425 0.847850 0.275886 -0.064093
C16   C     C_R   0.427476 0.356558 0.724303 -0.063707
C17   C     C_R   0.935184 0.924531 0.565556 -0.096042
C18   C     C_R   0.063823 0.344796 0.433675 -0.095067
C19   C     C_R   0.965390 0.914172 0.662096 0.320213
C20   C     C_R   0.033852 0.360975 0.337250 0.318647
C21   C     C_R   0.861756 0.869680 0.687352 -0.169990
C22   C     C_R   0.138286 0.391854 0.312761 -0.168960
C23   C     C_R   0.830676 0.877488 0.589764 0.060046
C24   C     C_R   0.169125 0.377649 0.410195 0.060184
C25   C     C_R   0.868999 0.907144 0.529452 0.004792
C26   C     C_R   0.130219 0.353443 0.470107 0.003832
C27   C     C_R   0.763108 0.858986 0.550155 0.025546
C28   C     C_R   0.236946 0.385687 0.450072 0.025123
C29   C     C_R   0.735308 0.875372 0.451030 0.018656
C30   C     C_R   0.264280 0.365293 0.549080 0.018120
C31   C     C_R   0.776069 0.904865 0.394468 -0.078337
C32   C     C_R   0.222919 0.343833 0.605350 -0.075447
C33   C     C_R   0.841281 0.919414 0.433020 -0.038027
C34   C     C_R   0.157557 0.338567 0.566515 -0.035927
C35   C     C_R   0.722784 0.822435 0.606392 -0.089673
C36   C     C_R   0.278034 0.415279 0.394263 -0.089772
C37   C     C_R   0.657080 0.802357 0.568474 0.049737
C38   C     C_R   0.344048 0.424020 0.432487 0.050211
C39   C     C_R   0.629111 0.819367 0.470773 0.066104
C40   C     C_R   0.371568 0.401233 0.530002 0.065609
C41   C     C_R   0.667909 0.858397 0.411369 0.029924
C42   C     C_R   0.331909 0.369760 0.588941 0.030297
C43   C     C_R   0.562899 0.795390 0.430797 -0.076159
C44   C     C_R   0.438249 0.410621 0.570218 -0.075477
C45   C     C_R   0.535219 0.806800 0.334358 -0.105473
C46   C     C_R   0.465672 0.390133 0.666395 -0.105758
C47   C     C_R   0.637635 0.876067 0.313682 -0.104109
C48   C     C_R   0.361668 0.344771 0.686318 -0.099125
H7    H     H_    0.870397 0.940903 0.386465 0.131831
H8    H     H_    0.128018 0.322866 0.612864 0.136028
H9    H     H_    0.663131 0.907160 0.263945 0.052155
H10   H     H_    0.335483 0.317169 0.735564 0.050601
H11   H     H_    0.484663 0.782660 0.305163 0.053801
H12   H     H_    0.516785 0.401110 0.695750 0.052066
H13   H     H_    0.963600 0.944861 0.517930 0.134208
H14   H     H_    0.035058 0.327204 0.481019 0.135041
H15   H     H_    0.836178 0.854289 0.738407 0.056967
H16   H     H_    0.164129 0.406612 0.262005 0.055840
H17   H     H_    0.759608 0.915376 0.319289 0.078498
H18   H     H_    0.239058 0.332862 0.680528 0.080130
H19   H     H_    0.741247 0.805254 0.681078 0.068512
H20   H     H_    0.260046 0.434906 0.319678 0.068871
H21   H     H_    0.531836 0.764194 0.473198 0.068463
H22   H     H_    0.470001 0.435680 0.528166 0.068756
O11   O     O_R   0.036450 0.233070 0.130130 -0.561593
O12   O     O_R   0.963550 0.733070 0.869870 -0.552578
O13   O     O_R   0.912470 0.560570 0.006790 -0.554487
O14   O     O_R   0.087530 0.060570 0.993210 -0.562112
C49   C     C_R   0.886696 0.392537 0.000046 0.881473
C50   C     C_R   0.112537 0.891795 0.995925 0.870703
O15   O     O_R   0.032920 0.562940 0.138050 -0.545975
O16   O     O_R   0.967080 0.062940 0.861950 -0.559642
O17   O     O_R   0.084790 0.730500 0.002090 -0.557969
O18   O     O_R   0.915210 0.230500 0.997910 -0.562995
C51   C     C_R   0.044573 0.393915 0.174579 0.892981
C52   C     C_R   0.955237 0.894849 0.825376 0.889408
O19   O     O_3   0.016820 0.396170 0.955260 -0.286500
O20   O     O_3   0.983180 0.896170 0.044740 -0.285427
V3    V     V_3+5 0.996880 0.672090 0.008300 1.187436
V4    V     V_3+5 0.003120 0.172090 0.991700 1.177858
N1    N     N_R   0.033641 0.929414 0.696210 0.081279
O21   O     O_R   0.065626 0.844208 0.772578 -0.389816
O22   O     O_R   0.064833 0.011622 0.645563 -0.388141
N2    N     N_R   0.965410 0.352514 0.302934 0.079043
O23   O     O_R   0.934304 0.439791 0.226729 -0.390225
O24   O     O_R   0.933305 0.271390 0.352627 -0.387004
C53   C     C_3   0.315312 0.021387 0.082489 -0.406667
H23   H     H_    0.361631 0.064113 0.131527 0.116789
H24   H     H_    0.294919 0.142650 0.037549 0.126535
H25   H     H_    0.284622 0.981996 0.126760 0.116241
C54   C     C_3   0.717735 0.500014 0.090321 -0.369575
H26   H     H_    0.690468 0.530386 0.140643 0.112619
H27   H     H_    0.765153 0.449615 0.132997 0.163610
H28   H     H_    0.722259 0.631565 0.053911 0.117956
C55   C     C_3   0.617838 0.761221 0.634290 -0.412537
H29   H     H_    0.593511 0.625659 0.616246 0.113456
H30   H     H_    0.647311 0.753428 0.708730 0.114234
H31   H     H_    0.581945 0.872640 0.628767 0.119405
C56   C     C_3   0.384145 0.458462 0.367162 -0.413255
H32   H     H_    0.417420 0.340479 0.371186 0.118806
H33   H     H_    0.354916 0.472911 0.292848 0.115766
H34   H     H_    0.411507 0.588824 0.386997 0.112851

loop_
_geom_bond_atom_site_label_1
_geom_bond_atom_site_label_2
_geom_bond_distance
_ccdc_geom_bond_type
C40   C44   1.414614 A    
C38   C56   1.513399 S    
C6    C10   1.492013 S    
C46   H12   1.083677 S    
O2    C4    1.325940 A    
C16   C48   1.394301 A    
C2    O7    1.338481 A    
O19   V4    1.756298 S    
O18   V4    2.006412 S    
C29   C31   1.415094 A    
O5    C3    1.333560 A    
C53   H24   1.109663 S    
O12   V3    2.024192 S    
C17   C19   1.399516 A    
C56   H33   1.110858 S    
O14   C50   1.329282 A    
C39   C41   1.426056 A    
C11   C53   1.514634 S    
C40   C42   1.425798 A    
O11   C51   1.324000 A    
C8    C49   1.477931 S    
C24   C28   1.436490 A    
C27   C29   1.429039 A    
C43   C45   1.389987 A    
C4    C11   1.485660 S    
C44   C46   1.390737 A    
C8    H4    1.083331 S    
C38   C40   1.410820 A    
C31   C33   1.384631 A    
O11   V4    2.028666 S    
O1    C3    1.325211 A    
C32   C34   1.384393 A    
O16   C52   1.325343 A    
C21   H15   1.076498 S    
C17   C25   1.402580 A    
C54   H28   1.109614 S    
C34   H8    1.084089 S    
C15   C45   1.390768 A    
C55   H31   1.110504 S    
C26   C34   1.390130 A    
C30   C32   1.414964 A    
C14   C51   1.464696 S    
C44   H22   1.081488 S    
C42   C48   1.417933 A    
O6    V2    2.015275 S    
C49   O18   1.329116 A    
O20   V3    1.759208 S    
C23   C25   1.417104 A    
C24   C26   1.417006 A    
C32   H18   1.074876 S    
C30   C42   1.431680 A    
C36   H20   1.074499 S    
C35   C37   1.397256 A    
C9    H5    1.086375 S    
C53   H25   1.110085 S    
C36   C38   1.397574 A    
O13   C49   1.329894 A    
C15   C47   1.394687 A    
O4    C2    1.337482 A    
C7    C50   1.478571 S    
C56   H34   1.110380 S    
O12   C52   1.324581 A    
O5    V1    2.018734 S    
C37   C55   1.513549 S    
C27   C35   1.412073 A    
C5    H1    1.085805 S    
C22   H16   1.076471 S    
O15   V3    2.019335 S    
O4    V2    2.027112 S    
C7    H3    1.083774 S    
N1    O21   1.300827 A    
C50   O17   1.329370 A    
O6    C4    1.332862 A    
C1    C16   1.460889 S    
C28   C36   1.412303 A    
C16   C46   1.390662 A    
O1    V2    2.006212 S    
C33   H7    1.084407 S    
O17   V3    2.008104 S    
N2    O24   1.301613 A    
O2    V1    2.007907 S    
C18   H14   1.084403 S    
N1    O22   1.301371 A    
C45   H11   1.083679 S    
C10   H6    1.086359 S    
C14   C20   1.411006 A    
C37   C39   1.410622 A    
C18   C26   1.402804 A    
C18   C20   1.399749 A    
C19   N1    1.441691 S    
O3    V1    2.019407 S    
C55   H29   1.110580 S    
C17   H13   1.084402 S    
C35   H19   1.074545 S    
C6    H2    1.085786 S    
O3    C1    1.340229 A    
C39   C43   1.414149 A    
C12   C54   1.515368 S    
C9    C11   1.357233 D    
C13   C52   1.465864 S    
C53   H23   1.111154 S    
C10   C12   1.356470 D    
C2    C15   1.461065 S    
C5    C9    1.491689 S    
C54   H27   1.110133 S    
O7    V1    2.016648 S    
C1    O8    1.335905 A    
C20   N2    1.442694 S    
C43   H21   1.081477 S    
C56   H32   1.110477 S    
C41   C47   1.418491 A    
C25   C33   1.390339 A    
C48   H10   1.075880 S    
C3    C12   1.484807 S    
C47   H9    1.075884 S    
C22   C24   1.415407 A    
C5    C7    1.346810 D    
C31   H17   1.074874 S    
C6    C8    1.347182 D    
C14   C22   1.400913 A    
O15   C51   1.325701 A    
N2    O23   1.300797 A    
O14   V4    2.015362 S    
O13   V3    2.018824 S    
C29   C41   1.431932 A    
C28   C30   1.428724 A    
C13   C19   1.410233 A    
C21   C23   1.416057 A    
O9    V2    1.757041 S    
C13   C21   1.400941 A    
C23   C27   1.436275 A    
O10   V1    1.759950 S    
O8    V2    2.020774 S    
C54   H26   1.111309 S    
O16   V4    2.027037 S    
C55   H30   1.110773 S    
