data_mof_unit_50501.cif
_audit_creation_date              2012-12-10T19:42:31-0500
_audit_creation_method            fapswitch 2.2
_symmetry_space_group_name_H-M    P1
_symmetry_Int_Tables_number       1
_space_group_crystal_system       triclinic
_cell_length_a                    10.909455
_cell_length_b                    10.907891
_cell_length_c                    9.814199
_cell_angle_alpha                 98.814736
_cell_angle_beta                  98.80867
_cell_angle_gamma                 93.015326
_cell_volume                      1137.00976828

loop_
_atom_site_label
_atom_site_type_symbol
_atom_type_description
_atom_site_fract_x
_atom_site_fract_y
_atom_site_fract_z
_atom_type_partial_charge
C1    C     C_R   0.500437 0.261955 0.499206 0.790248
C2    C     C_R   0.499563 0.738045 0.500794 0.790248
C3    C     C_R   0.872279 0.498610 0.503927 -0.085609
C4    C     C_R   0.127721 0.501390 0.496073 -0.085609
C5    C     C_R   0.959142 0.527389 0.630150 -0.004394
C6    C     C_R   0.040857 0.472611 0.369850 -0.004394
C7    C     C_R   0.293879 0.076090 0.017752 -0.160031
C8    C     C_R   0.706123 0.923910 0.982248 -0.160032
C9    C     C_R   0.322051 0.047114 0.152311 -0.160391
C10   C     C_R   0.677950 0.952886 0.847688 -0.160391
C11   C     C_R   0.442566 0.075523 0.228835 0.134137
C12   C     C_R   0.557435 0.924477 0.771165 0.134137
C13   C     C_R   0.534980 0.131264 0.167696 -0.073012
C14   C     C_R   0.465021 0.868736 0.832304 -0.073012
C15   C     C_R   0.505592 0.162587 0.034245 -0.118684
C16   C     C_R   0.494409 0.837413 0.965755 -0.118684
C17   C     C_R   0.385009 0.135141 0.959412 -0.100290
C18   C     C_R   0.614992 0.864860 0.040588 -0.100290
C19   C     C_R   0.470861 0.914644 0.376275 -0.251030
C20   C     C_R   0.529139 0.085356 0.623725 -0.251030
C21   C     C_R   0.498582 0.872278 0.503919 -0.085512
C22   C     C_R   0.501418 0.127722 0.496080 -0.085512
C23   C     C_R   0.261956 0.500432 0.499203 0.790348
C24   C     C_R   0.738044 0.499568 0.500797 0.790347
C25   C     C_R   0.527235 0.959144 0.630165 -0.004335
C26   C     C_R   0.472765 0.040856 0.369835 -0.004335
C27   C     C_2   0.510818 0.510433 0.079116 0.506496
C28   C     C_2   0.489181 0.489567 0.920884 0.506497
C29   C     C_R   0.162227 0.505057 0.033965 -0.118878
C30   C     C_R   0.837773 0.494943 0.966034 -0.118879
C31   C     C_R   0.131201 0.534549 0.167548 -0.073715
C32   C     C_R   0.868798 0.465450 0.832452 -0.073715
C33   C     C_R   0.075492 0.442228 0.228850 0.134279
C34   C     C_R   0.924508 0.557771 0.771150 0.134279
C35   C     C_R   0.046872 0.321687 0.152390 -0.160556
C36   C     C_R   0.953128 0.678312 0.847610 -0.160556
C37   C     C_R   0.075573 0.293403 0.017715 -0.160775
C38   C     C_R   0.924427 0.706596 0.982285 -0.160775
C39   C     C_R   0.134550 0.384451 0.959184 -0.099688
C40   C     C_R   0.865450 0.615548 0.040816 -0.099688
C41   C     C_R   0.914654 0.470757 0.376299 -0.250853
C42   C     C_R   0.085345 0.529243 0.623701 -0.250852
Cu1   Cu    Cu3+1 0.521120 0.521140 0.639640 0.998969
Cu2   Cu    Cu3+1 0.478880 0.478860 0.360360 0.998969
H1    H     H_    0.629114 0.151325 0.224005 0.105688
H2    H     H_    0.370886 0.848675 0.775996 0.105688
H3    H     H_    0.620175 0.619162 0.904529 0.211923
H4    H     H_    0.379825 0.380838 0.095471 0.211923
H5    H     H_    0.206638 0.575971 0.987984 0.119233
H6    H     H_    0.793362 0.424028 0.012015 0.119233
H7    H     H_    0.050897 0.201196 0.958158 0.116396
H8    H     H_    0.949103 0.798803 0.041842 0.116396
H9    H     H_    0.848958 0.447988 0.279676 0.165592
H10   H     H_    0.151042 0.552011 0.720324 0.165593
H11   H     H_    0.201687 0.051591 0.958141 0.116439
H12   H     H_    0.798314 0.948409 0.041858 0.116439
H13   H     H_    0.250403 0.001713 0.196501 0.117503
H14   H     H_    0.749597 0.998287 0.803498 0.117503
N1    N     N_2   0.447120 0.447110 0.150550 -0.306088
N2    N     N_2   0.552880 0.552890 0.849450 -0.306088
O1    O     O_R   0.517830 0.337490 0.617920 -0.537036
O2    O     O_R   0.482170 0.662510 0.382080 -0.537036
O3    O     O_R   0.482150 0.301790 0.382070 -0.583925
O4    O     O_R   0.517850 0.698210 0.617930 -0.583925
O5    O     O_R   0.337480 0.517860 0.617920 -0.536222
O6    O     O_R   0.662520 0.482140 0.382080 -0.536222
O7    O     O_R   0.301810 0.482160 0.382070 -0.584228
O8    O     O_R   0.698190 0.517840 0.617930 -0.584228
H15   H     H_    0.156692 0.362012 0.854937 0.174094
H16   H     H_    0.843308 0.637987 0.145063 0.174094
H17   H     H_    0.576567 0.207052 0.988404 0.118546
H18   H     H_    0.423434 0.792948 0.011597 0.118547
H19   H     H_    0.448168 0.848938 0.279640 0.165212
H20   H     H_    0.551832 0.151062 0.720360 0.165212
F1    F     F_    0.400071 0.401238 0.850637 -0.707340
F2    F     F_    0.599928 0.598762 0.149363 -0.707340
H21   H     H_    0.151396 0.628712 0.223794 0.105933
H22   H     H_    0.848604 0.371288 0.776206 0.105933
H23   H     H_    0.001474 0.250116 0.196702 0.117564
H24   H     H_    0.998526 0.749883 0.803299 0.117564
H25   H     H_    0.362643 0.157527 0.855272 0.173989
H26   H     H_    0.637358 0.842474 0.144728 0.173989

loop_
_geom_bond_atom_site_label_1
_geom_bond_atom_site_label_2
_ccdc_geom_bond_type
C7    C17   A    
C30   C32   A    
C5    C42   A    
Cu2   O6    S    
C16   H18   S    
C7    H11   S    
C8    H12   S    
C14   H2    S    
C29   H5    S    
C40   H16   S    
C38   C40   A    
C37   H7    S    
C38   H8    S    
C20   C25   A    
Cu2   N1    S    
C15   C17   A    
C23   O7    A    
C19   C26   A    
C18   H26   S    
H3    N2    S    
Cu1   O8    S    
C10   H14   S    
C6    C41   A    
C31   C33   A    
C34   C36   A    
C24   O6    A    
C30   H6    S    
C1    C22   S    
C29   C31   A    
C3    C24   S    
C1    O3    A    
C2    O4    A    
Cu1   O4    S    
C31   H21   S    
C28   N2    D    
Cu2   O3    S    
C30   C40   A    
C19   H19   S    
C9    H13   S    
C4    C6    A    
C36   H24   S    
C4    C23   S    
C11   C26   S    
Cu2   O2    S    
C8    C18   A    
C32   C34   A    
Cu1   Cu2   S    
Cu1   O5    S    
C5    C34   S    
C29   C39   A    
C2    C21   S    
C39   H15   S    
C20   H20   S    
C9    C11   A    
C41   H9    S    
C10   C12   A    
Cu1   N2    S    
C16   C18   A    
C20   C22   A    
C13   C15   A    
C14   C16   A    
C27   F2    S    
Cu1   O1    S    
H4    N1    S    
C35   C37   A    
C7    C9    A    
C21   C25   A    
C3    C41   A    
C19   C21   A    
C12   C14   A    
C3    C5    A    
C1    O1    A    
C15   H17   S    
C6    C33   S    
C12   C25   S    
C23   O5    A    
C36   C38   A    
C37   C39   A    
C27   N1    D    
C42   H10   S    
C13   H1    S    
C11   C13   A    
C4    C42   A    
C35   H23   S    
C33   C35   A    
C17   H25   S    
C24   O8    A    
C32   H22   S    
C8    C10   A    
C22   C26   A    
C27   C28   S    
Cu2   O7    S    
C28   F1    S    
C2    O2    A    
