data_mof_unit_28547.cif
_audit_creation_date              2012-12-11T16:29:36-0500
_audit_creation_method            fapswitch 2.2
_symmetry_space_group_name_H-M    P1
_symmetry_Int_Tables_number       1
_space_group_crystal_system       triclinic
_cell_length_a                    6.953272
_cell_length_b                    17.200389
_cell_length_c                    18.906299
_cell_angle_alpha                 106.228726
_cell_angle_beta                  89.919844
_cell_angle_gamma                 90.561636
_cell_volume                      2170.96826813

loop_
_atom_site_label
_atom_site_type_symbol
_atom_type_description
_atom_site_fract_x
_atom_site_fract_y
_atom_site_fract_z
_atom_type_partial_charge
O1    O     O_R   0.494360 0.415680 0.413760 -0.517371
O2    O     O_R   0.818810 0.432910 0.557230 -0.535492
O3    O     O_R   0.994290 0.584320 0.586240 -0.526874
C1    C     C_R   0.650114 0.416346 0.580965 0.800370
O4    O     O_R   0.823740 0.406440 0.412520 -0.545357
O5    O     O_R   0.999250 0.557660 0.440500 -0.520042
C2    C     C_R   0.653994 0.382375 0.385864 0.809711
O6    O     O_R   0.489400 0.442340 0.559500 -0.512275
O7    O     O_3   0.662500 0.549650 0.509350 -0.366333
V1    V     V_3+5 0.935340 0.490790 0.498270 1.490310
O8    O     O_R   0.329270 0.567090 0.442770 -0.532245
C3    C     C_R   0.161106 0.583848 0.419197 0.800011
O9    O     O_R   0.324340 0.593560 0.587480 -0.545097
C4    C     C_R   0.155481 0.618171 0.613488 0.827341
V2    V     V_3+5 0.435970 0.509210 0.501730 1.499928
O10   O     O_3   0.158940 0.450350 0.490650 -0.360334
C5    C     C_R   0.240501 0.588624 0.749541 -0.169402
C6    C     C_R   0.275906 0.567963 0.813695 -0.152007
C7    C     C_R   0.253773 0.624725 0.880754 -0.076173
C8    C     C_R   0.198057 0.704228 0.885329 0.142468
C9    C     C_R   0.168411 0.729222 0.819418 0.063666
C10   C     C_R   0.186104 0.668156 0.750422 0.022535
C11   C     C_R   0.118931 0.810386 0.818772 -0.121582
C12   C     C_R   0.081277 0.827040 0.750260 -0.037524
C13   C     C_R   0.094034 0.764998 0.682465 -0.075189
C14   C     C_R   0.146792 0.685479 0.682912 -0.150916
C15   C     C_R   0.031428 0.906128 0.748427 -0.204742
C16   C     C_R   0.992021 0.924650 0.682559 0.117874
C17   C     C_R   0.004428 0.863665 0.615459 0.113455
C18   C     C_R   0.056381 0.784890 0.615565 0.544383
H1    H     H_    0.256293 0.540460 0.699076 0.101570
H2    H     H_    0.318029 0.506850 0.811390 0.137303
H3    H     H_    0.279387 0.605718 0.929934 0.130178
H4    H     H_    0.022149 0.955170 0.798568 0.132059
C19   C     C_1   0.111305 0.866778 0.135075 -0.202874
C20   C     C_1   0.118667 0.823974 0.178434 0.000997
C21   C     C_1   0.127904 0.773167 0.229820 -0.000012
C22   C     C_1   0.135865 0.730303 0.273128 -0.000054
C23   C     C_1   0.145338 0.679408 0.324434 -0.006862
C24   C     C_1   0.153004 0.636316 0.367545 -0.169552
C25   C     C_1   0.641804 0.364234 0.632863 -0.168058
C26   C     C_1   0.637553 0.321444 0.676260 0.004223
C27   C     C_1   0.633977 0.270949 0.727929 0.011208
C28   C     C_1   0.631236 0.228458 0.771592 0.023923
C29   C     C_1   0.627551 0.178110 0.823377 0.030811
C30   C     C_1   0.623255 0.135481 0.866904 -0.146754
H5    H     H_    0.455469 0.132835 0.446308 0.154556
C31   C     C_R   0.733453 0.405427 0.244926 -0.272874
C32   C     C_R   0.769868 0.421348 0.177704 -0.008824
C33   C     C_R   0.753345 0.358762 0.112784 0.628421
C34   C     C_R   0.703341 0.280621 0.114600 0.472369
C35   C     C_R   0.669699 0.262173 0.182637 -0.128252
C36   C     C_R   0.682781 0.326689 0.248850 -0.040511
C37   C     C_R   0.625135 0.181917 0.185895 -0.111672
C38   C     C_R   0.595190 0.166302 0.256001 -0.023274
C39   C     C_R   0.590267 0.233704 0.321294 -0.066685
C40   C     C_R   0.641418 0.312973 0.317743 -0.102699
C41   C     C_R   0.571746 0.085936 0.264846 0.131744
C42   C     C_R   0.516686 0.076305 0.333208 -0.202175
C43   C     C_R   0.496781 0.142147 0.393997 -0.201304
C44   C     C_R   0.537592 0.219463 0.389412 0.579634
H6    H     H_    0.744576 0.455783 0.294137 0.136764
H7    H     H_    0.492754 0.016614 0.340383 0.147229
O11   O     O_R   0.775690 0.057750 0.940570 -0.512165
O12   O     O_R   0.441200 0.093570 0.087490 -0.533120
O13   O     O_R   0.265840 0.942320 0.059480 -0.536776
C45   C     C_R   0.610658 0.115366 0.116007 0.847793
O14   O     O_R   0.446270 0.067110 0.942790 -0.523229
O15   O     O_R   0.270950 0.915660 0.913750 -0.538933
C46   C     C_R   0.614956 0.083545 0.918947 0.827183
O16   O     O_R   0.770580 0.084400 0.086300 -0.521716
O17   O     O_3   0.602640 0.950400 0.990690 -0.378074
V3    V     V_3+5 0.329740 0.009200 0.001730 1.455950
O18   O     O_R   0.940900 0.906360 0.912450 -0.541633
C47   C     C_R   0.110164 0.879936 0.887448 0.701722
O19   O     O_R   0.935830 0.932820 0.057160 -0.531323
C48   C     C_R   0.103576 0.918462 0.082712 0.697045
V4    V     V_3+5 0.829130 0.990680 0.998180 1.449790
O20   O     O_3   0.106100 0.049590 0.009310 -0.345639
C49   C     C_3   0.963448 0.882664 0.543551 -0.694840
H8    H     H_    0.065743 0.929756 0.536239 0.195253
H9    H     H_    0.977633 0.829171 0.494911 0.253243
H10   H     H_    0.814217 0.905069 0.543761 0.197415
C50   C     C_3   0.824929 0.505199 0.174917 -0.648628
H11   H     H_    0.717182 0.527442 0.142073 0.225613
H12   H     H_    0.831984 0.548554 0.230811 0.182427
H13   H     H_    0.968399 0.503965 0.148778 0.225550
F1    F     F_    0.785720 0.373467 0.046806 -0.639635
F2    F     F_    0.687994 0.224257 0.048513 -0.679397
C51   C     C_3   0.620292 0.008314 0.206972 -0.748499
H14   H     H_    0.621518 0.955187 0.229537 0.196645
H15   H     H_    0.511873 0.994144 0.162486 0.205435
H16   H     H_    0.767332 0.012749 0.185721 0.201260
F3    F     F_    0.522328 0.279533 0.453011 -0.718859
C52   C     C_3   0.168782 0.757364 0.961873 -0.792019
H17   H     H_    0.178828 0.723835 0.004155 0.201329
H18   H     H_    0.284687 0.803527 0.974534 0.219885
H19   H     H_    0.022470 0.783282 0.967116 0.202453
C53   C     C_3   0.937461 0.010105 0.684941 -0.753482
H20   H     H_    0.791617 0.010419 0.661226 0.211680
H21   H     H_    0.935426 0.050653 0.742111 0.200824
H22   H     H_    0.042866 0.035567 0.653073 0.214977
F4    F     F_    0.072164 0.728561 0.549404 -0.729155

loop_
_geom_bond_atom_site_label_1
_geom_bond_atom_site_label_2
_ccdc_geom_bond_type
C38   C39   A    
C25   C26   T    
C52   H17   S    
C12   C15   A    
C1    O6    A    
C52   H19   S    
C29   C30   T    
C28   C29   S    
C21   C22   T    
C32   C50   S    
C20   C21   S    
O19   V4    S    
O5    C3    A    
C22   C23   S    
C1    C25   S    
V2    O10   S    
O12   V3    S    
C39   C40   A    
C6    C7    A    
O17   V4    S    
H5    C43   S    
C51   H15   S    
C50   H11   S    
C7    C8    A    
O12   C45   A    
C18   F4    S    
C11   C12   A    
C50   H13   S    
O15   V3    S    
O1    V2    S    
O11   C46   A    
O7    V1    S    
C33   F1    S    
C42   C43   A    
O9    C4    A    
O8    V2    S    
C49   H10   S    
C35   C37   A    
C5    C6    A    
C15   H4    S    
C31   C36   A    
O18   C47   A    
C34   C35   A    
C12   C13   A    
C49   H9    S    
C7    H3    S    
C23   C24   T    
O4    C2    A    
C36   C40   A    
V4    O20   S    
C49   H8    S    
C37   C45   S    
O14   V3    S    
O13   V3    S    
C19   C48   S    
C4    C14   S    
C43   C44   A    
C19   C20   T    
C3    C24   S    
O2    C1    A    
C27   C28   T    
C17   C18   A    
C31   H6    S    
C53   H20   S    
C33   C34   A    
V3    O20   S    
O19   C48   A    
C41   C51   S    
O3    C4    A    
C16   C53   S    
C31   C32   A    
C53   H21   S    
C8    C52   S    
O6    V2    S    
C9    C11   A    
C10   C14   A    
C5    H1    S    
C41   C42   A    
C6    H2    S    
C26   C27   S    
O2    V1    S    
C35   C36   A    
C51   H16   S    
C13   C18   A    
O13   C48   A    
C37   C38   A    
C16   C17   A    
O1    C2    A    
O11   V4    S    
C11   C47   S    
O17   V3    S    
O5    V1    S    
O8    C3    A    
C52   H18   S    
C42   H7    S    
C5    C10   A    
O9    V2    S    
C13   C14   A    
O4    V1    S    
O3    V1    S    
V1    O10   S    
C34   F2    S    
C51   H14   S    
C17   C49   S    
C44   F3    S    
O15   C47   A    
C45   O16   A    
O7    V2    S    
C30   C46   S    
C53   H22   S    
C8    C9    A    
O14   C46   A    
C32   C33   A    
O18   V4    S    
C38   C41   A    
C15   C16   A    
C39   C44   A    
C50   H12   S    
C9    C10   A    
C2    C40   S    
O16   V4    S    
