data_mof_unit_49535.cif
_audit_creation_date              2012-12-10T18:57:38-0500
_audit_creation_method            fapswitch 2.2
_symmetry_space_group_name_H-M    P1
_symmetry_Int_Tables_number       1
_space_group_crystal_system       triclinic
_cell_length_a                    10.895271
_cell_length_b                    10.836978
_cell_length_c                    9.571746
_cell_angle_alpha                 89.729089
_cell_angle_beta                  88.912007
_cell_angle_gamma                 90.454114
_cell_volume                      1129.90070025

loop_
_atom_site_label
_atom_site_type_symbol
_atom_type_description
_atom_site_fract_x
_atom_site_fract_y
_atom_site_fract_z
_atom_type_partial_charge
C1    C     C_R   0.500193 0.262487 0.500248 0.778782
C2    C     C_R   0.506692 0.129308 0.500598 -0.091504
C3    C     C_R   0.534497 0.065432 0.376675 -0.213611
C4    C     C_R   0.534355 0.936866 0.376318 -0.215914
C5    C     C_R   0.508120 0.870864 0.500064 -0.078445
C6    C     C_R   0.494055 0.935495 0.624984 0.068024
C7    C     C_3   0.395670 0.924694 0.735329 -0.456212
C8    C     C_3   0.392531 0.065363 0.736440 -0.054446
C9    C     C_R   0.531683 0.604005 0.071062 0.213892
C10   C     C_R   0.456696 0.401597 0.075804 -0.078998
C11   C     C_R   0.457241 0.401415 0.927220 -0.076093
C12   C     C_R   0.265297 0.495284 0.501491 0.842340
C13   C     C_R   0.526964 0.605314 0.924404 0.243804
C14   C     C_3   0.639690 0.682324 0.907835 -0.531551
C15   C     C_3   0.650237 0.676476 0.066069 -0.291670
C16   C     C_R   0.500586 0.737555 0.499793 0.797550
C17   C     C_R   0.734687 0.499318 0.499180 0.844575
C18   C     C_2   0.933713 0.444145 0.402330 -0.122694
C19   C     C_2   0.867049 0.503873 0.498908 -0.309099
C20   C     C_2   0.067890 0.454231 0.395513 -0.147132
C21   C     C_2   0.133088 0.482355 0.508210 -0.338621
C22   C     C_R   0.491620 0.062560 0.625102 0.064049
Cu1   Cu    Cu3+1 0.499990 0.499980 0.640670 0.939744
Cu2   Cu    Cu3+1 0.500010 0.500020 0.359330 0.948867
H1    H     H_    0.888722 0.390046 0.322667 0.173414
H2    H     H_    0.426383 0.105023 0.835580 0.148518
H3    H     H_    0.422892 0.321083 0.131878 0.136450
H4    H     H_    0.423785 0.321078 0.873340 0.136293
H5    H     H_    0.713554 0.634888 0.847333 0.218933
H6    H     H_    0.619186 0.776447 0.868845 0.183626
H7    H     H_    0.644223 0.768148 0.116300 0.137168
H8    H     H_    0.908679 0.558508 0.580143 0.140198
H9    H     H_    0.113444 0.435927 0.295892 0.172701
H10   H     H_    0.090087 0.489859 0.610891 0.155685
H11   H     H_    0.551935 0.114222 0.279187 0.158934
H12   H     H_    0.550202 0.889821 0.278573 0.150884
H13   H     H_    0.311329 0.878942 0.696196 0.198073
H14   H     H_    0.430157 0.885139 0.834221 0.171416
N1    N     N_R   0.500780 0.500930 0.147930 -0.187176
N2    N     N_R   0.500780 0.500890 0.852020 -0.178798
O1    O     O_R   0.500000 0.319640 0.618810 -0.593217
O2    O     O_R   0.500010 0.319680 0.381230 -0.595358
O3    O     O_R   0.321940 0.499980 0.618760 -0.585246
O4    O     O_R   0.321950 0.500020 0.381180 -0.572944
O5    O     O_R   0.499990 0.680320 0.618770 -0.578614
O6    O     O_R   0.500000 0.680360 0.381190 -0.589401
O7    O     O_R   0.678050 0.499980 0.618820 -0.582354
O8    O     O_R   0.678060 0.500020 0.381240 -0.562548
C23   C     C_1   0.759397 0.606476 0.104588 0.357055
N3    N     N_1   0.846965 0.552363 0.131022 -0.316092
C24   C     C_3   0.270120 0.120038 0.688305 -0.356675
C25   C     C_3   0.170606 0.106887 0.801816 -0.840850
H15   H     H_    0.152423 0.008027 0.825954 0.257062
H16   H     H_    0.199276 0.154793 0.898386 0.243326
H17   H     H_    0.084377 0.149161 0.765211 0.244950
H18   H     H_    0.282816 0.219800 0.665120 0.208574
H19   H     H_    0.238989 0.074182 0.591304 0.210378

loop_
_geom_bond_atom_site_label_1
_geom_bond_atom_site_label_2
_ccdc_geom_bond_type
C16   O5    A    
C2    C22   A    
C8    C22   S    
Cu1   Cu2   S    
C4    H12   S    
C15   H7    S    
C6    C7    S    
Cu1   O5    S    
C8    H2    S    
Cu1   O1    S    
C25   H17   S    
C3    H11   S    
C17   O8    A    
Cu2   O6    S    
C2    C3    A    
C7    H13   S    
C10   H3    S    
C7    C8    S    
C12   O4    A    
C13   C14   S    
C20   C21   D    
C8    C24   S    
C24   C25   S    
C5    C6    A    
C18   H1    S    
C11   H4    S    
C14   H6    S    
C24   H19   S    
C20   H9    S    
C24   H18   S    
C1    O1    A    
C17   C19   S    
C7    H14   S    
C25   H16   S    
C18   C19   D    
C12   O3    A    
C18   C20   S    
C15   C23   S    
C9    C15   S    
C11   N2    A    
Cu2   O4    S    
Cu1   O7    S    
C10   C11   A    
C19   H8    S    
C14   H5    S    
C3    C4    A    
Cu2   O8    S    
C1    O2    A    
C9    N1    A    
Cu2   N1    S    
Cu2   O2    S    
C25   H15   S    
C1    C2    S    
C16   O6    A    
C23   N3    T    
Cu1   N2    S    
C9    C13   A    
C14   C15   S    
C10   N1    A    
C5    C16   S    
C21   H10   S    
Cu1   O3    S    
C12   C21   S    
C17   O7    A    
C4    C5    A    
C13   N2    A    
C6    C22   A    
