data_mof_unit_23821.cif
_audit_creation_date              2012-12-11T15:16:39-0500
_audit_creation_method            fapswitch 2.2
_symmetry_space_group_name_H-M    P1
_symmetry_Int_Tables_number       1
_space_group_crystal_system       triclinic
_cell_length_a                    25.084872
_cell_length_b                    7.27983
_cell_length_c                    22.127835
_cell_angle_alpha                 90.006579
_cell_angle_beta                  109.717231
_cell_angle_gamma                 90.00351
_cell_volume                      3803.92544415

loop_
_atom_site_label
_atom_site_type_symbol
_atom_type_description
_atom_site_fract_x
_atom_site_fract_y
_atom_site_fract_z
_atom_type_partial_charge
O1    O     O_R   0.554350 0.505270 0.581390 -0.514872
O2    O     O_R   0.445650 0.005270 0.418610 -0.514835
O3    O     O_R   0.553380 0.177580 0.454800 -0.544326
O4    O     O_R   0.446620 0.677580 0.545200 -0.544109
C1    C     C_R   0.564740 0.344277 0.437168 0.753192
C2    C     C_R   0.435225 0.844288 0.562792 0.752807
O5    O     O_R   0.560970 0.175640 0.583140 -0.531870
O6    O     O_R   0.439030 0.675640 0.416860 -0.531627
O7    O     O_R   0.453290 0.004120 0.547860 -0.517415
O8    O     O_R   0.546710 0.504120 0.452140 -0.517411
C3    C     C_R   0.577295 0.344600 0.606234 0.807350
C4    C     C_R   0.422700 0.844584 0.393775 0.807335
O9    O     O_3   0.464660 0.338800 0.488280 -0.363963
O10   O     O_3   0.535340 0.838800 0.511720 -0.364523
V1    V     V_3+5 0.506560 0.064420 0.502170 1.585844
V2    V     V_3+5 0.493440 0.564420 0.497830 1.586688
C5    C     C_R   0.143829 0.912246 0.284672 0.436751
C6    C     C_R   0.856368 0.403179 0.715630 0.469905
H1    H     H_    0.058976 0.918136 0.218317 0.146079
H2    H     H_    0.941077 0.413149 0.782033 0.151248
H3    H     H_    0.226809 0.964984 0.393548 0.200815
H4    H     H_    0.773590 0.459764 0.606654 0.193429
C7    C     C_R   0.120144 0.937859 0.170155 -0.187576
C8    C     C_R   0.879820 0.437341 0.829875 -0.199251
C9    C     C_R   0.398341 0.799017 0.277949 0.187206
C10   C     C_R   0.601491 0.300578 0.722122 0.187311
C11   C     C_R   0.360201 0.774252 0.216712 -0.189456
C12   C     C_R   0.639561 0.275894 0.783413 -0.189194
C13   C     C_R   0.302273 0.799386 0.202543 0.384424
C14   C     C_R   0.697545 0.299646 0.797581 0.383674
C15   C     C_R   0.280373 0.867025 0.250416 -0.047139
C16   C     C_R   0.719582 0.365936 0.749666 -0.045975
C17   C     C_R   0.320221 0.889385 0.314935 -0.061530
C18   C     C_R   0.679825 0.388109 0.685109 -0.061861
C19   C     C_R   0.220722 0.906821 0.238349 -0.080011
C20   C     C_R   0.779290 0.404443 0.761729 -0.076094
C21   C     C_R   0.202001 0.914727 0.292264 -0.072459
C22   C     C_R   0.798110 0.409006 0.707861 -0.087809
C23   C     C_R   0.241162 0.936722 0.353430 -0.132669
C24   C     C_R   0.759056 0.432159 0.646676 -0.146673
C25   C     C_R   0.298528 0.945108 0.363517 0.212797
C26   C     C_R   0.701686 0.442462 0.636529 0.220304
C27   C     C_R   0.178088 0.941597 0.176681 0.378026
C28   C     C_R   0.821865 0.440926 0.823302 0.378087
C29   C     C_R   0.103565 0.919983 0.223687 -0.322788
C30   C     C_R   0.896462 0.415928 0.776522 -0.305075
C31   C     C_R   0.379507 0.851522 0.328293 -0.138284
C32   C     C_R   0.620461 0.351620 0.671739 -0.139417
H5    H     H_    0.375798 0.731526 0.178819 0.189463
H6    H     H_    0.623863 0.234156 0.821327 0.189635
C33   C     C_R   0.112860 0.777442 0.870796 -0.153992
C34   C     C_R   0.886820 0.277336 0.128852 -0.154833
H7    H     H_    0.088954 0.654935 0.872622 0.139020
H8    H     H_    0.910749 0.154843 0.127090 0.139074
C35   C     C_R   0.150118 0.772147 0.835826 -0.133938
C36   C     C_R   0.849428 0.271988 0.163657 -0.134327
H9    H     H_    0.152944 0.646068 0.811188 0.189699
H10   H     H_    0.846538 0.145891 0.188243 0.189781
C37   C     C_R   0.182701 0.926669 0.831940 -0.038053
C38   C     C_R   0.816813 0.426494 0.167466 -0.037848
C39   C     C_R   0.176563 0.088908 0.864783 0.292395
C40   C     C_R   0.823022 0.588719 0.134666 0.292393
C41   C     C_R   0.137346 0.094747 0.897307 -0.203207
C42   C     C_R   0.862372 0.594617 0.102312 -0.203291
H11   H     H_    0.132672 0.221655 0.920551 0.147492
H12   H     H_    0.867103 0.721522 0.079109 0.147438
C43   C     C_R   0.105666 0.939404 0.901674 -0.094085
C44   C     C_R   0.894125 0.439339 0.098074 -0.094192
N1    N     N_R   0.243121 0.067591 0.775427 -0.190365
N2    N     N_R   0.756253 0.567444 0.223813 -0.190173
N3    N     N_R   0.275838 0.057297 0.739058 -0.193138
N4    N     N_R   0.723553 0.557204 0.260205 -0.193167
C45   C     C_R   0.287417 0.893451 0.717035 0.538442
C46   C     C_R   0.712065 0.393424 0.282345 0.539246
N5    N     N_R   0.265579 0.739172 0.734389 -0.236881
N6    N     N_R   0.733959 0.239146 0.265067 -0.236414
N7    N     N_R   0.232989 0.749546 0.771147 -0.239448
N8    N     N_R   0.766533 0.249467 0.228290 -0.239417
C47   C     C_R   0.220946 0.914462 0.792601 0.531931
C48   C     C_R   0.778505 0.414322 0.206738 0.532132
C49   C     C_R   0.352661 0.718014 0.673467 -0.103567
C50   C     C_R   0.646945 0.218037 0.326109 -0.103673
H13   H     H_    0.348288 0.599914 0.701125 0.199168
H14   H     H_    0.651237 0.099945 0.298395 0.198999
C51   C     C_R   0.387887 0.703407 0.636085 -0.113278
C52   C     C_R   0.611855 0.203409 0.363650 -0.113920
H15   H     H_    0.409021 0.574115 0.635349 0.172488
H16   H     H_    0.590727 0.074123 0.364432 0.172127
C53   C     C_R   0.396881 0.855350 0.601600 -0.092148
C54   C     C_R   0.602983 0.355323 0.398236 -0.091740
C55   C     C_R   0.369121 0.020816 0.604842 -0.096206
C56   C     C_R   0.630717 0.520796 0.394922 -0.096099
H17   H     H_    0.375201 0.140577 0.578938 0.190077
H18   H     H_    0.624739 0.640514 0.420920 0.189692
C57   C     C_R   0.331801 0.034330 0.639503 0.289653
C58   C     C_R   0.667878 0.534364 0.360059 0.290179
C59   C     C_R   0.324011 0.882884 0.675965 -0.057980
C60   C     C_R   0.675563 0.382915 0.323524 -0.057444
O11   O     O_R   0.953220 0.285790 0.047790 -0.539220
O12   O     O_R   0.046780 0.785790 0.952210 -0.539279
O13   O     O_R   0.939020 0.617570 0.916840 -0.538363
O14   O     O_R   0.060980 0.117570 0.083160 -0.538370
C61   C     C_R   0.924253 0.448388 0.893272 0.775832
C62   C     C_R   0.075705 0.948444 0.106757 0.775489
O15   O     O_R   0.946600 0.615450 0.045180 -0.541881
O16   O     O_R   0.053400 0.115450 0.954820 -0.541919
O17   O     O_R   0.054370 0.786770 0.081410 -0.537845
O18   O     O_R   0.945630 0.286770 0.918590 -0.537741
C63   C     C_R   0.934207 0.447165 0.061351 0.706463
C64   C     C_R   0.065737 0.947177 0.938583 0.706106
O19   O     O_3   0.035300 0.454160 0.011680 -0.382397
O20   O     O_3   0.964700 0.954160 0.988320 -0.382420
V3    V     V_3+5 0.993450 0.728620 0.997830 1.403713
V4    V     V_3+5 0.006550 0.228620 0.002170 1.403784
Br1   Br    Br    0.221823 0.306282 0.871897 -0.512161
Br2   Br    Br    0.777709 0.806003 0.127408 -0.512442
Br3   Br    Br    0.289975 0.260065 0.629465 -0.491169
Br4   Br    Br    0.709643 0.760191 0.369910 -0.489860
O21   O     O_3   0.125877 0.911290 0.337294 -0.549993
C65   C     C_3   0.117434 0.727175 0.351953 0.072130
H19   H     H_    0.156881 0.644745 0.361304 0.133001
H20   H     H_    0.082576 0.663047 0.312019 0.126959
C66   C     C_3   0.101114 0.722647 0.412168 -0.615698
H21   H     H_    0.061410 0.801414 0.404221 0.225519
H22   H     H_    0.094330 0.578368 0.424167 0.188675
H23   H     H_    0.135438 0.783977 0.453069 0.234589
O22   O     O_3   0.874991 0.395273 0.663459 -0.555110
C67   C     C_3   0.872206 0.211725 0.641321 0.100924
H24   H     H_    0.867286 0.216010 0.589559 0.172067
H25   H     H_    0.835013 0.133876 0.644766 0.117983
C68   C     C_3   0.926799 0.108328 0.676561 -0.714617
H26   H     H_    0.931022 0.087677 0.727668 0.205615
H27   H     H_    0.926026 0.971538 0.654057 0.207708
H28   H     H_    0.963925 0.186655 0.673877 0.239048
O23   O     O_3   0.189902 0.974614 0.121128 -0.545801
C69   C     C_3   0.219904 0.139948 0.125407 0.127335
H29   H     H_    0.258727 0.146083 0.168507 0.123797
H30   H     H_    0.192096 0.256767 0.127160 0.089116
C70   C     C_3   0.237832 0.154351 0.066144 -0.612359
H31   H     H_    0.200254 0.181736 0.023370 0.199665
H32   H     H_    0.269229 0.265507 0.071620 0.180289
H33   H     H_    0.257659 0.024796 0.058042 0.271446
O24   O     O_3   0.809992 0.474523 0.878787 -0.545493
C71   C     C_3   0.779991 0.639899 0.874347 0.127434
H34   H     H_    0.741248 0.645943 0.831153 0.123274
H35   H     H_    0.807841 0.756663 0.872644 0.089387
C72   C     C_3   0.761912 0.654565 0.933509 -0.612103
H36   H     H_    0.799399 0.682621 0.976319 0.199602
H37   H     H_    0.730365 0.765314 0.927846 0.180232
H38   H     H_    0.742209 0.524900 0.941732 0.271694
Br5   Br    Br    0.477106 0.754765 0.290639 -0.544712
Br6   Br    Br    0.522637 0.257989 0.709388 -0.544613
O25   O     O_3   0.270039 0.773485 0.139123 -0.532752
C73   C     C_3   0.240593 0.606083 0.130507 0.144878
H39   H     H_    0.213102 0.597523 0.160707 0.104117
H40   H     H_    0.271180 0.490430 0.143116 0.091742
C74   C     C_3   0.203140 0.592988 0.059855 -0.620530
H41   H     H_    0.229761 0.571005 0.029312 0.225629
H42   H     H_    0.172160 0.479615 0.052098 0.158266
H43   H     H_    0.178430 0.720814 0.043729 0.252025
O26   O     O_3   0.729754 0.273395 0.860994 -0.532908
C75   C     C_3   0.759207 0.106036 0.869503 0.145232
H44   H     H_    0.786669 0.097534 0.839274 0.104436
H45   H     H_    0.728615 0.990399 0.856845 0.091887
C76   C     C_3   0.796712 0.092800 0.940126 -0.620620
H46   H     H_    0.770141 0.070307 0.970695 0.225787
H47   H     H_    0.827765 0.979698 0.947769 0.158231
H48   H     H_    0.821339 0.220782 0.956304 0.252111
Br7   Br    Br    0.339375 0.070982 0.440800 -0.580811
Br8   Br    Br    0.661074 0.568455 0.559196 -0.582791

loop_
_geom_bond_atom_site_label_1
_geom_bond_atom_site_label_2
_ccdc_geom_bond_type
C22   C24   A    
C41   H11   S    
O12   C64   A    
C74   H41   S    
C7    C29   A    
C35   C37   A    
C11   C13   A    
C50   C60   A    
C72   H36   S    
O1    C3    A    
C68   H28   S    
O2    C4    A    
C67   H24   S    
O11   V4    S    
O26   C75   S    
C66   H21   S    
C23   C25   A    
C57   Br3   S    
C45   C59   S    
C76   H46   S    
C46   N6    A    
O16   V4    S    
C42   C44   A    
C58   Br4   S    
C72   H37   S    
C5    C29   A    
C4    C31   S    
O14   C62   A    
C70   H33   S    
N8    C48   A    
C66   H22   S    
O24   C71   S    
O11   C63   A    
C56   C58   A    
C7    C27   A    
C38   C40   A    
O6    V2    S    
O18   V4    S    
N1    N3    A    
O17   V3    S    
C40   C42   A    
C26   Br8   S    
C12   H6    S    
C65   H20   S    
C18   C26   A    
C58   C60   A    
C39   Br1   S    
C15   C17   A    
C61   O18   A    
C53   C55   A    
C19   C27   A    
C9    C31   A    
C73   H40   S    
C1    C54   S    
C34   C44   A    
C65   C66   S    
C10   C32   A    
C51   H15   S    
C76   H47   S    
C13   C15   A    
C45   N5    A    
C71   C72   S    
C3    C32   S    
C2    O7    A    
C69   C70   S    
C6    C30   A    
C56   H18   S    
O20   V3    S    
C49   H13   S    
C34   H8    S    
C75   H45   S    
N7    C47   A    
C41   C43   A    
C37   C39   A    
N2    C48   A    
O23   C69   S    
C72   H38   S    
C73   C74   S    
N4    C46   A    
C52   C54   A    
C37   C47   S    
N3    C45   A    
C51   C53   A    
C71   H34   S    
C66   H23   S    
C33   C43   A    
O5    V1    S    
C33   C35   A    
C68   H27   S    
C50   C52   A    
C25   Br7   S    
H1    C29   S    
C36   C38   A    
C33   H7    S    
C42   H12   S    
O4    V2    S    
O5    C3    A    
C40   Br2   S    
O14   V4    S    
C6    O22   S    
C55   H17   S    
C75   C76   S    
C43   C64   S    
C54   C56   A    
C7    C62   S    
H3    C23   S    
O6    C4    A    
H4    C24   S    
C39   C41   A    
O1    V2    S    
C5    C21   A    
O21   C65   S    
C27   O23   S    
O2    V1    S    
N5    N7    A    
C73   H39   S    
C11   H5    S    
C71   H35   S    
C76   H48   S    
C50   H14   S    
C35   H9    S    
C9    C11   A    
C17   C31   A    
C15   C19   A    
N1    C47   A    
O4    C2    A    
C18   C32   A    
O22   C67   S    
C67   C68   S    
C16   C20   A    
O3    V1    S    
C65   H19   S    
C69   H30   S    
C13   O25   S    
C75   H44   S    
O16   C64   A    
O15   V3    S    
O15   C63   A    
C38   C48   S    
C46   C60   S    
C19   C21   A    
O12   V3    S    
N6    N8    A    
C69   H29   S    
O3    C1    A    
C67   H25   S    
C70   H31   S    
C57   C59   A    
C74   H43   S    
C2    C53   S    
C10   C12   A    
O13   C61   A    
C9    Br5   S    
C8    C61   S    
C8    C30   A    
C10   Br6   S    
C6    C22   A    
C17   C25   A    
C12   C14   A    
C21   C23   A    
O8    V2    S    
C20   C22   A    
C14   C16   A    
C70   H32   S    
C49   C59   A    
C28   O24   S    
C8    C28   A    
C24   C26   A    
C36   H10   S    
O19   V4    S    
C52   H16   S    
C44   C63   S    
O7    V1    S    
O13   V3    S    
H2    C30   S    
C20   C28   A    
C5    O21   S    
C55   C57   A    
C34   C36   A    
C1    O8    A    
C74   H42   S    
O9    V2    S    
O10   V1    S    
N2    N4    A    
C14   O26   S    
O25   C73   S    
C62   O17   A    
C49   C51   A    
C68   H26   S    
C16   C18   A    
