data_mof_unit_38109.cif
_audit_creation_date              2012-12-10T20:41:53-0500
_audit_creation_method            fapswitch 2.2
_symmetry_space_group_name_H-M    P1
_symmetry_Int_Tables_number       1
_space_group_crystal_system       triclinic
_cell_length_a                    14.87166
_cell_length_b                    15.296423
_cell_length_c                    9.907556
_cell_angle_alpha                 90.184851
_cell_angle_beta                  90.982674
_cell_angle_gamma                 89.660421
_cell_volume                      2253.42050775

loop_
_atom_site_label
_atom_site_type_symbol
_atom_type_description
_atom_site_fract_x
_atom_site_fract_y
_atom_site_fract_z
_atom_type_partial_charge
C1    C     C_R   0.380444 0.879379 0.499146 0.892830
C2    C     C_R   0.924836 0.524406 0.069100 0.190698
C3    C     C_R   0.576848 0.986987 0.075215 -0.073452
C4    C     C_R   0.076849 0.486993 0.075215 -0.073427
C5    C     C_R   0.577950 0.989053 0.932339 0.370306
C6    C     C_R   0.077950 0.489059 0.932340 0.370302
C7    C     C_R   0.424970 0.025151 0.927023 0.155093
C8    C     C_R   0.924968 0.525145 0.927023 0.155083
C9    C     C_3   0.334196 0.985041 0.918442 -0.496588
C10   C     C_3   0.834196 0.485028 0.918442 -0.496565
C11   C     C_3   0.334669 0.982682 0.071619 -0.498429
C12   C     C_R   0.377584 0.118063 0.499381 0.894680
C13   C     C_3   0.834670 0.482669 0.071619 -0.498445
C14   C     C_R   0.614741 0.124420 0.500493 0.890306
C15   C     C_R   0.613164 0.874025 0.499746 0.891583
C16   C     C_R   0.114741 0.624421 0.500492 0.890328
C17   C     C_R   0.113163 0.374025 0.499746 0.891581
C18   C     C_R   0.257423 0.193561 0.617834 0.095008
C19   C     C_R   0.277266 0.786680 0.618610 0.096967
C20   C     C_R   0.757419 0.693557 0.617833 0.095009
C21   C     C_R   0.777285 0.286660 0.618606 0.096947
C22   C     C_R   0.298345 0.170844 0.497613 -0.189871
C23   C     C_R   0.880444 0.379379 0.499146 0.892832
C24   C     C_R   0.307530 0.819681 0.497694 -0.187200
C25   C     C_R   0.798344 0.670843 0.497612 -0.189871
C26   C     C_R   0.807531 0.319682 0.497693 -0.187204
C27   C     C_R   0.254976 0.191720 0.375007 -0.234550
C28   C     C_R   0.256025 0.806272 0.379581 -0.237783
C29   C     C_R   0.754978 0.691722 0.375005 -0.234554
C30   C     C_R   0.756005 0.306293 0.379594 -0.237768
C31   C     C_R   0.682947 0.749893 0.374137 0.429905
C32   C     C_R   0.683525 0.249404 0.381133 0.432689
C33   C     C_R   0.182945 0.249890 0.374139 0.429907
C34   C     C_R   0.877584 0.618063 0.499381 0.894682
C35   C     C_R   0.183543 0.749386 0.381116 0.432656
C36   C     C_R   0.659763 0.791371 0.497515 -0.259354
C37   C     C_R   0.666403 0.202933 0.501405 -0.258194
C38   C     C_R   0.159762 0.291371 0.497516 -0.259358
C39   C     C_R   0.166401 0.702934 0.501398 -0.258186
C40   C     C_R   0.687986 0.752262 0.617883 0.040887
C41   C     C_R   0.705620 0.232102 0.621343 0.056757
C42   C     C_R   0.187989 0.252265 0.617884 0.040892
C43   C     C_R   0.205603 0.732118 0.621340 0.056729
C44   C     C_3   0.714780 0.787072 0.754062 -0.086516
C45   C     C_3   0.294524 0.224156 0.750851 -0.484484
C46   C     C_3   0.738359 0.188178 0.747910 -0.089928
C47   C     C_3   0.214784 0.287078 0.754061 -0.086517
C48   C     C_3   0.238336 0.688195 0.747911 -0.089943
C49   C     C_3   0.645200 0.768200 0.864942 -0.284485
C50   C     C_3   0.598188 0.678731 0.854016 -0.365260
C51   C     C_3   0.532562 0.665784 0.968829 -0.875436
C52   C     C_3   0.680566 0.212043 0.872344 -0.296693
C53   C     C_3   0.634740 0.303093 0.864190 -0.372602
C54   C     C_3   0.590766 0.329312 0.995816 -0.816611
C55   C     C_3   0.145207 0.268205 0.864946 -0.284485
C56   C     C_3   0.323234 0.742916 0.735991 -0.499618
C57   C     C_3   0.098193 0.178736 0.854018 -0.365264
C58   C     C_3   0.032575 0.165785 0.968837 -0.875439
C59   C     C_3   0.180534 0.712054 0.872335 -0.296699
C60   C     C_3   0.134720 0.803110 0.864191 -0.372485
C61   C     C_3   0.090698 0.829302 0.995799 -0.816692
C62   C     C_3   0.794519 0.724148 0.750853 -0.484481
C63   C     C_3   0.823260 0.242896 0.735980 -0.499621
C64   C     C_R   0.424838 0.024412 0.069100 0.190703
H1    H     H_    0.278476 0.165998 0.279774 0.184310
H2    H     H_    0.752033 0.117142 0.735848 0.169105
H3    H     H_    0.236862 0.356218 0.751107 0.199733
H4    H     H_    0.252015 0.617160 0.735850 0.169121
H5    H     H_    0.360108 0.257902 0.740651 0.186121
H6    H     H_    0.382570 0.703775 0.704324 0.184991
H7    H     H_    0.860104 0.757893 0.740658 0.186126
H8    H     H_    0.882592 0.203752 0.704301 0.184981
H9    H     H_    0.294382 0.173385 0.830083 0.201015
H10   H     H_    0.336634 0.785242 0.824179 0.195969
H11   H     H_    0.794373 0.673375 0.830082 0.201013
H12   H     H_    0.271974 0.838686 0.286305 0.173345
H13   H     H_    0.836669 0.285224 0.824164 0.195979
H14   H     H_    0.638645 0.975407 0.131776 0.192516
H15   H     H_    0.138647 0.475418 0.131776 0.192515
H16   H     H_    0.282258 0.029457 0.875189 0.189998
H17   H     H_    0.335898 0.920119 0.870916 0.210797
H18   H     H_    0.782255 0.529441 0.875191 0.189997
H19   H     H_    0.835901 0.420106 0.870917 0.210803
H20   H     H_    0.576830 0.775725 0.267893 0.341060
H21   H     H_    0.570505 0.231156 0.288539 0.339751
H22   H     H_    0.076825 0.275726 0.267900 0.341061
H23   H     H_    0.778480 0.666002 0.279773 0.184312
H24   H     H_    0.070536 0.731146 0.288483 0.339743
H25   H     H_    0.569577 0.662594 0.066865 0.291804
H26   H     H_    0.482712 0.720141 0.971348 0.259380
H27   H     H_    0.495963 0.603359 0.953603 0.249826
H28   H     H_    0.559694 0.674489 0.757102 0.221132
H29   H     H_    0.648292 0.624761 0.857065 0.220341
H30   H     H_    0.679276 0.774384 0.965216 0.240648
H31   H     H_    0.592184 0.819302 0.858517 0.228608
H32   H     H_    0.545476 0.276815 0.030653 0.278261
H33   H     H_    0.643528 0.343324 0.073244 0.295360
H34   H     H_    0.771936 0.338726 0.286327 0.173330
H35   H     H_    0.550420 0.389874 0.980092 0.236578
H36   H     H_    0.684461 0.354103 0.839151 0.228851
H37   H     H_    0.581857 0.302260 0.783483 0.220740
H38   H     H_    0.627040 0.162337 0.881572 0.212394
H39   H     H_    0.723735 0.207919 0.964885 0.223916
H40   H     H_    0.069595 0.162586 0.066867 0.291814
H41   H     H_    0.982729 0.220144 0.971372 0.259383
H42   H     H_    0.995971 0.103363 0.953607 0.249822
H43   H     H_    0.059694 0.174498 0.757109 0.221131
H44   H     H_    0.148297 0.124766 0.857056 0.220344
H45   H     H_    0.282962 0.026065 0.116732 0.201830
H46   H     H_    0.179285 0.274387 0.965217 0.240646
H47   H     H_    0.092191 0.319308 0.858526 0.228604
H48   H     H_    0.045405 0.776793 0.030592 0.278199
H49   H     H_    0.143434 0.843313 0.073269 0.295375
H50   H     H_    0.050348 0.889859 0.980071 0.236585
H51   H     H_    0.184459 0.854122 0.839220 0.228821
H52   H     H_    0.081865 0.802298 0.783437 0.220726
H53   H     H_    0.127001 0.662353 0.881541 0.212398
H54   H     H_    0.223693 0.707919 0.964885 0.223945
H55   H     H_    0.654068 0.998892 0.779230 0.376800
H56   H     H_    0.337627 0.915177 0.112238 0.207441
H57   H     H_    0.154068 0.498893 0.779228 0.376802
H58   H     H_    0.782960 0.526047 0.116734 0.201831
H59   H     H_    0.837635 0.415163 0.112237 0.207439
H60   H     H_    0.736860 0.856212 0.751111 0.199737
N1    N     N_R   0.499140 0.000000 0.142800 -0.148615
N2    N     N_R   0.999140 0.500000 0.142800 -0.148618
N3    N     N_R   0.499160 0.000000 0.857150 -0.167693
N4    N     N_R   0.999160 0.500000 0.857150 -0.167698
O1    O     O_R   0.408400 0.908380 0.614690 -0.614288
O2    O     O_R   0.591610 0.908390 0.614650 -0.637979
O3    O     O_R   0.091610 0.591610 0.614650 -0.650439
O4    O     O_R   0.091610 0.408390 0.614650 -0.637981
O5    O     O_R   0.591590 0.091600 0.385310 -0.587003
O6    O     O_R   0.591590 0.908400 0.385310 -0.597003
O7    O     O_R   0.091590 0.591600 0.385310 -0.586987
O8    O     O_R   0.091590 0.408400 0.385310 -0.597007
O9    O     O_3   0.642054 0.768488 0.251773 -0.783453
O10   O     O_3   0.634350 0.238128 0.263686 -0.781995
O11   O     O_3   0.142048 0.268481 0.251776 -0.783453
O12   O     O_R   0.408400 0.091620 0.614690 -0.608939
O13   O     O_3   0.134389 0.738089 0.263650 -0.781965
O14   O     O_3   0.660418 0.980740 0.873681 -0.824488
O15   O     O_3   0.160419 0.480749 0.873681 -0.824482
O16   O     O_R   0.908400 0.408380 0.614690 -0.614289
O17   O     O_R   0.908400 0.591620 0.614690 -0.608939
O18   O     O_R   0.408370 0.908370 0.385350 -0.633181
O19   O     O_R   0.408370 0.091630 0.385350 -0.629799
O20   O     O_R   0.908370 0.408370 0.385350 -0.633181
O21   O     O_R   0.908370 0.591630 0.385350 -0.629801
O22   O     O_R   0.591610 0.091610 0.614650 -0.650429
Zn1   Zn    Zn3+2 0.500010 1.000000 0.653130 0.922530
Zn2   Zn    Zn3+2 0.000010 0.500000 0.653130 0.922526
Zn3   Zn    Zn3+2 0.499980 1.000000 0.346870 0.949069
Zn4   Zn    Zn3+2 0.999980 0.500000 0.346870 0.949072

loop_
_geom_bond_atom_site_label_1
_geom_bond_atom_site_label_2
_ccdc_geom_bond_type
C44   C49   S    
C19   C56   S    
C21   C26   A    
C52   H39   S    
C46   C52   S    
C11   H45   S    
H57   O15   S    
C8    N4    A    
O3    Zn2   S    
C15   O6    A    
C53   C54   S    
C27   C33   A    
C29   H23   S    
O18   Zn3   S    
C52   H38   S    
O7    Zn4   S    
O5    Zn3   S    
C12   O19   A    
C46   H2    S    
C1    O1    A    
C18   C42   A    
C51   H26   S    
C20   C40   A    
C34   O17   A    
O6    Zn3   S    
C20   C25   A    
C12   C22   S    
C10   H19   S    
C45   H9    S    
C23   C26   S    
C2    C13   S    
C16   O3    A    
N3    Zn1   S    
N4    Zn2   S    
C28   C35   A    
C53   H37   S    
C19   C43   A    
C41   C46   S    
C12   O12   A    
C54   H33   S    
C49   H30   S    
C31   O9    S    
C43   C48   S    
C31   C36   A    
C54   H32   S    
C25   C34   S    
C17   C38   S    
C51   H27   S    
C59   C60   S    
C59   H53   S    
C17   O4    A    
C20   C62   S    
C5    N3    A    
C1    O18   A    
O20   Zn4   S    
O19   Zn3   S    
C11   H56   S    
C47   H3    S    
C34   O21   A    
N1    Zn3   S    
C57   C58   S    
C45   C47   S    
C53   H36   S    
C25   C29   A    
C56   H10   S    
C45   H5    S    
C36   C40   A    
C4    H15   S    
C4    C6    A    
C11   C64   S    
C39   C43   A    
C44   C62   S    
C10   H18   S    
C48   H4    S    
C60   C61   S    
C58   H42   S    
C9    H16   S    
C35   C39   A    
O21   Zn4   S    
C32   O10   S    
C27   H1    S    
O8    Zn4   S    
C14   O22   A    
C17   O8    A    
C50   C51   S    
C32   C37   A    
C49   H31   S    
C9    C11   S    
O12   Zn1   S    
H22   O11   S    
C35   O13   S    
C21   C41   A    
N2    Zn4   S    
C50   H28   S    
C57   H43   S    
H20   O9    S    
C26   C30   A    
C59   H54   S    
C56   H6    S    
C22   C27   A    
C55   C57   S    
C55   H46   S    
C61   H49   S    
O4    Zn2   S    
C49   C50   S    
C54   H35   S    
C60   H52   S    
C58   H40   S    
C28   H12   S    
C18   C45   S    
C2    N2    A    
C15   C36   S    
C61   H50   S    
C52   C53   S    
C48   C59   S    
C47   C55   S    
C63   H13   S    
C48   C56   S    
C55   H47   S    
C18   C22   A    
C8    C10   S    
C2    C8    A    
C24   C28   A    
C3    C5    A    
C10   C13   S    
C3    N1    A    
C50   H29   S    
O1    Zn1   S    
C14   O5    A    
C23   O20   A    
C30   H34   S    
C16   O7    A    
C33   C38   A    
C4    N2    A    
C46   C63   S    
C58   H41   S    
C19   C24   A    
C6    O15   S    
C6    N4    A    
C29   C31   A    
C51   H25   S    
C14   C37   S    
C30   C32   A    
C13   H58   S    
C61   H48   S    
C5    O14   S    
C15   O2    A    
C33   O11   S    
C13   H59   S    
C44   H60   S    
C62   H7    S    
C42   C47   S    
C37   C41   A    
C23   O16   A    
C7    C64   A    
C21   C63   S    
O17   Zn2   S    
C16   C39   S    
C38   C42   A    
C7    C9    S    
C40   C44   S    
C57   H44   S    
C63   H8    S    
C1    C24   S    
O16   Zn2   S    
C64   N1    A    
O2    Zn1   S    
H55   O14   S    
O22   Zn1   S    
C60   H51   S    
C7    N3    A    
H24   O13   S    
C3    H14   S    
H21   O10   S    
C62   H11   S    
C9    H17   S    
