data_mof_unit_48922.cif
_audit_creation_date              2012-12-11T16:23:18-0500
_audit_creation_method            fapswitch 2.2
_symmetry_space_group_name_H-M    P1
_symmetry_Int_Tables_number       1
_space_group_crystal_system       triclinic
_cell_length_a                    20.019257
_cell_length_b                    7.210208
_cell_length_c                    19.776743
_cell_angle_alpha                 90.000044
_cell_angle_beta                  98.711411
_cell_angle_gamma                 89.999981
_cell_volume                      2821.70275259

loop_
_atom_site_label
_atom_site_type_symbol
_atom_type_description
_atom_site_fract_x
_atom_site_fract_y
_atom_site_fract_z
_atom_type_partial_charge
O1    O     O_R   0.188410 0.619490 0.310050 -0.533938
O2    O     O_R   0.811590 0.380510 0.689950 -0.538761
O3    O     O_R   0.311590 0.119490 0.189950 -0.533938
O4    O     O_R   0.688410 0.880510 0.810050 -0.538761
O5    O     O_R   0.327280 0.288800 0.321740 -0.542321
O6    O     O_R   0.672720 0.711200 0.678260 -0.540681
O7    O     O_R   0.172720 0.788800 0.178260 -0.542321
O8    O     O_R   0.827280 0.211200 0.821740 -0.540682
C1    C     C_R   0.351597 0.456827 0.338851 0.684144
C2    C     C_R   0.648399 0.543169 0.661151 0.688436
C3    C     C_R   0.148403 0.956828 0.161149 0.684144
C4    C     C_R   0.851600 0.043169 0.838849 0.688436
O9    O     O_R   0.189900 0.289710 0.318190 -0.536054
O10   O     O_R   0.810100 0.710290 0.681810 -0.540663
O11   O     O_R   0.310100 0.789710 0.181810 -0.536054
O12   O     O_R   0.689900 0.210290 0.818190 -0.540664
O13   O     O_R   0.173230 0.120350 0.186370 -0.535348
O14   O     O_R   0.826770 0.879650 0.813630 -0.534055
O15   O     O_R   0.326770 0.620350 0.313630 -0.535348
O16   O     O_R   0.673230 0.379650 0.686370 -0.534055
C5    C     C_R   0.169630 0.458318 0.333592 0.702749
C6    C     C_R   0.830552 0.541664 0.666001 0.707490
C7    C     C_R   0.330370 0.958318 0.166408 0.702749
C8    C     C_R   0.669448 0.041664 0.833999 0.707489
O17   O     O_3   0.244690 0.453290 0.206760 -0.373593
O18   O     O_3   0.755310 0.546710 0.793240 -0.375561
O19   O     O_3   0.255310 0.953290 0.293240 -0.373593
O20   O     O_3   0.744690 0.046710 0.706760 -0.375561
V1    V     V_3+5 0.250980 0.178070 0.258020 1.411136
V2    V     V_3+5 0.749020 0.821930 0.741980 1.391147
V3    V     V_3+5 0.249020 0.678070 0.241980 1.411136
V4    V     V_3+5 0.750980 0.321930 0.758020 1.391147
C9    C     C_R   0.486575 0.082284 0.089783 -0.148505
C10   C     C_R   0.543913 0.853236 0.943507 -0.177172
C11   C     C_R   0.013425 0.582283 0.410217 -0.148505
C12   C     C_R   0.956087 0.353235 0.556493 -0.177172
H1    H     H_    0.533368 0.155405 0.106098 0.144109
H2    H     H_    0.522140 0.720098 0.952728 0.204834
H3    H     H_    0.966631 0.655403 0.393902 0.144109
H4    H     H_    0.977860 0.220098 0.547272 0.204833
C13   C     C_R   0.439363 0.071496 0.135047 -0.178264
C14   C     C_R   0.591120 0.862079 0.898259 -0.189826
C15   C     C_R   0.060637 0.571495 0.364953 -0.178265
C16   C     C_R   0.908880 0.362079 0.601741 -0.189827
H5    H     H_    0.450126 0.140087 0.184239 0.118664
H6    H     H_    0.603961 0.735116 0.873949 0.144038
H7    H     H_    0.049873 0.640085 0.315761 0.118664
H8    H     H_    0.896039 0.235116 0.626051 0.144038
C17   C     C_R   0.379775 0.968753 0.118040 -0.097270
C18   C     C_R   0.620407 0.031947 0.883834 -0.106212
C19   C     C_R   0.120225 0.468753 0.381960 -0.097269
C20   C     C_R   0.879593 0.531946 0.616166 -0.106212
C21   C     C_R   0.367539 0.879125 0.054471 -0.230966
C22   C     C_R   0.601615 0.192461 0.916783 -0.249756
C23   C     C_R   0.132461 0.379126 0.445529 -0.230967
C24   C     C_R   0.898385 0.692460 0.583217 -0.249757
H9    H     H_    0.321551 0.799770 0.040533 0.132551
H10   H     H_    0.621986 0.325505 0.904933 0.135994
H11   H     H_    0.178449 0.299772 0.459467 0.132551
H12   H     H_    0.878013 0.825504 0.595066 0.135994
C25   C     C_R   0.413006 0.897505 0.007088 0.483807
C26   C     C_R   0.555785 0.183951 0.964580 0.486842
C27   C     C_R   0.086994 0.397505 0.492912 0.483807
C28   C     C_R   0.944215 0.683951 0.535420 0.486842
C29   C     C_R   0.474114 0.997730 0.024932 0.018730
C30   C     C_R   0.525085 0.012754 0.976856 0.003898
C31   C     C_R   0.025886 0.497730 0.475068 0.018730
C32   C     C_R   0.974915 0.512753 0.523144 0.003898
C33   C     C_R   0.087834 0.953617 0.106702 -0.063731
C34   C     C_R   0.912175 0.046364 0.893296 -0.063939
C35   C     C_R   0.412166 0.453617 0.393298 -0.063731
C36   C     C_R   0.587825 0.546364 0.606704 -0.063939
C37   C     C_R   0.005050 0.226097 0.956890 -0.200011
C38   C     C_R   0.994965 0.773868 0.043108 -0.201256
C39   C     C_R   0.494950 0.726097 0.543110 -0.200012
C40   C     C_R   0.505035 0.273867 0.456892 -0.201257
C41   C     C_R   0.952247 0.208344 0.902284 -0.157884
C42   C     C_R   0.047753 0.791652 0.097730 -0.162118
C43   C     C_R   0.547753 0.708345 0.597716 -0.157884
C44   C     C_R   0.452247 0.291651 0.402271 -0.162118
C45   C     C_R   0.927511 0.899749 0.939974 -0.239768
C46   C     C_R   0.072514 0.100199 0.060009 -0.239673
C47   C     C_R   0.572489 0.399748 0.560026 -0.239768
C48   C     C_R   0.427486 0.600200 0.439990 -0.239673
C49   C     C_R   0.980549 0.917534 0.995604 0.158357
C50   C     C_R   0.019476 0.082410 0.004381 0.157026
C51   C     C_R   0.519450 0.417534 0.504396 0.158357
C52   C     C_R   0.480524 0.582411 0.495618 0.157026
H13   H     H_    0.103002 0.225088 0.065618 0.125788
H14   H     H_    0.897029 0.774850 0.934359 0.124343
H15   H     H_    0.396999 0.725089 0.434381 0.125788
H16   H     H_    0.602970 0.274849 0.565642 0.124343
H17   H     H_    0.057688 0.676180 0.132851 0.127747
H18   H     H_    0.942292 0.323860 0.867188 0.132485
H19   H     H_    0.442312 0.176179 0.367150 0.127748
H20   H     H_    0.557708 0.823861 0.632811 0.132485
H21   H     H_    0.034220 0.353302 0.962254 0.122524
H22   H     H_    0.965790 0.646672 0.037751 0.119610
H23   H     H_    0.465781 0.853303 0.537745 0.122524
H24   H     H_    0.534209 0.146670 0.462250 0.119610
O21   O     O_3   0.397836 0.813014 0.943946 -0.553901
C53   C     C_3   0.360325 0.938856 0.898631 -0.238578
H25   H     H_    0.389811 0.067032 0.892352 0.148492
H26   H     H_    0.311431 0.974475 0.915781 0.131646
H27   H     H_    0.348615 0.872221 0.847660 0.166607
O22   O     O_3   0.535659 0.344345 0.994536 -0.550056
C54   C     C_3   0.592217 0.432185 0.032856 -0.313759
H28   H     H_    0.621709 0.510195 0.999017 0.142938
H29   H     H_    0.625572 0.332424 0.065158 0.124306
H30   H     H_    0.573778 0.534139 0.067779 0.173189
O23   O     O_3   0.102164 0.313015 0.556054 -0.553901
C55   C     C_3   0.139675 0.438857 0.601369 -0.238579
H31   H     H_    0.110189 0.567034 0.607648 0.148492
H32   H     H_    0.188569 0.474477 0.584218 0.131646
H33   H     H_    0.151385 0.372223 0.652340 0.166607
O24   O     O_3   0.964340 0.844344 0.505464 -0.550056
C56   C     C_3   0.907782 0.932184 0.467144 -0.313760
H34   H     H_    0.878291 0.010197 0.500983 0.142939
H35   H     H_    0.874426 0.832423 0.434843 0.124306
H36   H     H_    0.926220 0.034136 0.432219 0.173189

loop_
_geom_bond_atom_site_label_1
_geom_bond_atom_site_label_2
_ccdc_geom_bond_type
O17   V3    S    
C47   C51   A    
C51   C52   A    
O1    C5    A    
O21   C53   S    
C28   O24   S    
C23   H11   S    
O19   V1    S    
O13   V1    S    
O3    C7    A    
O23   C55   S    
C10   C14   A    
O15   V3    S    
C10   C30   A    
C55   H32   S    
C9    C29   A    
C38   H22   S    
C49   C50   A    
O7    C3    A    
C47   H16   S    
C18   C22   A    
C46   H13   S    
C28   C32   A    
O9    V1    S    
C36   C43   A    
C56   H35   S    
O16   V4    S    
C11   H3    S    
O4    C8    A    
C7    C17   S    
O22   C54   S    
C42   H17   S    
C41   H18   S    
O1    V3    S    
O24   C56   S    
C53   H27   S    
O2    V4    S    
C14   H6    S    
O3    V1    S    
C34   C45   A    
C55   H31   S    
C33   C46   A    
C21   C25   A    
C1    O15   A    
C2    O16   A    
C23   C27   A    
O2    C6    A    
C54   H28   S    
C24   C28   A    
O14   V2    S    
C48   H15   S    
C11   C15   A    
C16   C20   A    
O11   C7    A    
O12   C8    A    
C34   C41   A    
C54   H29   S    
C33   C42   A    
O10   V2    S    
C13   C17   A    
C35   C44   A    
O5    V1    S    
C8    C18   S    
C27   C31   A    
O7    V3    S    
C26   C30   A    
C31   C32   S    
O8    V4    S    
C1    C35   S    
C40   H24   S    
C12   H4    S    
C56   H36   S    
C21   H9    S    
O18   V4    S    
C22   C26   A    
C46   C50   A    
C9    H1    S    
C25   O21   S    
C24   H12   S    
C37   H21   S    
O5    C1    A    
C11   C31   A    
O8    C4    A    
C39   H23   S    
O9    C5    A    
C44   H19   S    
C53   H26   S    
C40   C51   A    
C14   C18   A    
C45   H14   S    
O6    V2    S    
C3    C33   S    
C54   H30   S    
C12   C16   A    
C40   C44   A    
C5    C19   S    
C6    C20   S    
C35   C48   A    
C22   H10   S    
C4    C34   S    
C3    O13   A    
C37   C41   A    
C10   H2    S    
C48   C52   A    
O6    C2    A    
C12   C32   A    
O11   V3    S    
C26   O22   S    
O12   V4    S    
C9    C13   A    
O10   C6    A    
O20   V2    S    
C43   H20   S    
C16   H8    S    
C56   H34   S    
C15   C19   A    
C15   H7    S    
C17   C21   A    
C19   C23   A    
C38   C49   A    
C27   O23   S    
C53   H25   S    
O4    V2    S    
C37   C50   A    
C36   C47   A    
C25   C29   A    
C39   C52   A    
C29   C30   S    
C38   C42   A    
C4    O14   A    
C13   H5    S    
C39   C43   A    
C55   H33   S    
C45   C49   A    
C20   C24   A    
C2    C36   S    
