data_mof_unit_43056.cif
_audit_creation_date              2013-03-05T15:44:13-0500
_audit_creation_method            fapswitch 2.2
_symmetry_space_group_name_H-M    P1
_symmetry_Int_Tables_number       1
_space_group_crystal_system       triclinic
_cell_length_a                    26.365511
_cell_length_b                    28.039598
_cell_length_c                    8.539113
_cell_angle_alpha                 89.999979
_cell_angle_beta                  97.739118
_cell_angle_gamma                 90.106142
_cell_volume                      6255.27024046

loop_
_atom_site_label
_atom_site_type_symbol
_atom_site_description
_atom_site_fract_x
_atom_site_fract_y
_atom_site_fract_z
_atom_type_partial_charge
P1    P     P_3+3 0.893960 0.447890 0.040050 0.483317
P2    P     P_3+3 0.893960 0.552110 0.540050 0.480842
P3    P     P_3+3 0.393960 0.947890 0.040050 0.490341
P4    P     P_3+3 0.393960 0.052110 0.540050 0.479155
O1    O     O_2   0.898940 0.431940 0.867860 -0.347162
O2    O     O_2   0.898940 0.568060 0.367860 -0.354104
O3    O     O_2   0.398940 0.931940 0.867860 -0.344259
O4    O     O_2   0.398940 0.068060 0.367860 -0.362748
O5    O     O_3   0.941140 0.476130 0.123050 -0.398348
O6    O     O_3   0.941140 0.523870 0.623050 -0.394867
O7    O     O_3   0.441140 0.976130 0.123050 -0.402076
O8    O     O_3   0.441140 0.023870 0.623050 -0.389464
O9    O     O_3   0.982430 0.389880 0.635700 -0.351689
O10   O     O_3   0.982430 0.610120 0.135700 -0.383535
O11   O     O_3   0.482430 0.889880 0.635700 -0.371476
O12   O     O_3   0.482430 0.110120 0.135700 -0.379756
O13   O     O_2   0.892160 0.360745 0.704096 -0.370717
O14   O     O_2   0.893103 0.638211 0.198233 -0.359353
O15   O     O_2   0.397345 0.855312 0.731271 -0.361281
O16   O     O_2   0.392457 0.137625 0.191886 -0.361442
O17   O     O_3   0.840631 0.485344 0.014366 -0.545594
O18   O     O_3   0.840436 0.514729 0.516993 -0.549661
O19   O     O_3   0.340992 0.985761 0.011123 -0.544048
O20   O     O_3   0.339599 0.015882 0.520872 -0.554097
O21   O     O_3   0.948338 0.289638 0.656676 -0.577562
O22   O     O_3   0.952280 0.709281 0.179142 -0.562176
O23   O     O_3   0.450839 0.790031 0.624498 -0.583031
O24   O     O_3   0.450200 0.210163 0.178524 -0.559843
H1    H     H_    0.025704 0.300761 0.722325 0.075387
H2    H     H_    0.028244 0.693366 0.165579 0.043744
H3    H     H_    0.525358 0.800627 0.584636 0.030798
H4    H     H_    0.528132 0.198737 0.208740 0.072383
C1    C     C_3   0.007122 0.225381 0.709914 -0.365140
C2    C     C_3   0.021664 0.764707 0.257490 -0.383664
C3    C     C_3   0.505297 0.726363 0.553578 -0.406738
C4    C     C_3   0.511776 0.273480 0.244903 -0.388765
H5    H     H_    0.005149 0.225524 0.838500 0.210638
H6    H     H_    0.999846 0.766357 0.357546 0.234849
H7    H     H_    0.528106 0.720552 0.670561 0.220073
H8    H     H_    0.504720 0.269836 0.367921 0.215336
P5    P     P_3+3 0.105800 0.447360 0.649510 0.467737
P6    P     P_3+3 0.105800 0.552640 0.149510 0.461701
P7    P     P_3+3 0.605800 0.947360 0.649510 0.464830
P8    P     P_3+3 0.605800 0.052640 0.149510 0.462045
P9    P     P_3+3 0.063078 0.344656 0.088373 0.499151
P10   P     P_3+3 0.061579 0.656278 0.587937 0.474007
P11   P     P_3+3 0.566877 0.847269 0.087847 0.509596
P12   P     P_3+3 0.561880 0.156146 0.587777 0.482911
O25   O     O_2   0.100770 0.431440 0.821660 -0.353178
O26   O     O_2   0.100770 0.568560 0.321660 -0.356220
O27   O     O_2   0.600770 0.931440 0.821660 -0.352496
O28   O     O_2   0.600770 0.068560 0.321660 -0.354619
O29   O     O_3   0.017130 0.389790 0.053700 -0.399480
O30   O     O_3   0.017130 0.610210 0.553700 -0.403108
O31   O     O_3   0.517130 0.889790 0.053700 -0.362922
O32   O     O_3   0.517130 0.110210 0.553700 -0.407202
O33   O     O_2   0.095446 0.346164 0.949997 -0.373614
O34   O     O_2   0.093680 0.655432 0.448755 -0.391951
O35   O     O_2   0.599339 0.848886 0.949915 -0.384935
O36   O     O_2   0.593791 0.155149 0.448201 -0.367961
O37   O     O_3   0.159527 0.483773 0.704052 -0.602408
O38   O     O_3   0.159704 0.516587 0.203778 -0.597607
O39   O     O_3   0.659404 0.983933 0.704079 -0.599983
O40   O     O_3   0.660105 0.017118 0.203609 -0.600082
O41   O     O_3   0.031136 0.289527 0.066925 -0.523305
O42   O     O_3   0.026615 0.709607 0.564221 -0.526943
O43   O     O_3   0.542197 0.789163 0.080276 -0.543366
O44   O     O_3   0.527207 0.209771 0.564880 -0.528905
C5    C     C_3   0.978076 0.297092 0.062325 0.287141
C6    C     C_3   0.974407 0.698935 0.567840 0.296315
C7    C     C_3   0.495109 0.787676 0.983443 0.396671
C8    C     C_3   0.475197 0.199335 0.572804 0.279093
H9    H     H_    0.962274 0.312227 0.946211 0.148463
H10   H     H_    0.958870 0.677551 0.462765 0.162870
H11   H     H_    0.500920 0.799612 0.864498 0.100406
H12   H     H_    0.459160 0.176501 0.471747 0.161204
H13   H     H_    0.969853 0.323020 0.153111 0.109172
H14   H     H_    0.970367 0.677740 0.674805 0.084002
H15   H     H_    0.466973 0.811324 0.030416 0.169827
H16   H     H_    0.472367 0.180019 0.684425 0.088724
C9    C     C_3   0.950971 0.250392 0.096666 -0.151668
C10   C     C_3   0.942735 0.744561 0.577177 -0.162301
C11   C     C_3   0.475706 0.735863 0.978276 -0.103300
C12   C     C_3   0.442935 0.244915 0.576021 -0.145477
H17   H     H_    0.979548 0.222755 0.140695 0.210997
H18   H     H_    0.968211 0.775642 0.610162 0.213524
H19   H     H_    0.498038 0.714335 0.903207 0.107388
H20   H     H_    0.467981 0.276531 0.604810 0.202904
C13   C     C_3   0.170874 0.486878 0.082165 0.644894
C14   C     C_3   0.169974 0.514513 0.584235 0.637044
C15   C     C_3   0.671650 0.987726 0.081863 0.632575
C16   C     C_3   0.670454 0.013907 0.582875 0.642693
H21   H     H_    0.149963 0.497630 0.967047 0.136189
H22   H     H_    0.149745 0.503616 0.468241 0.137318
H23   H     H_    0.650435 0.998176 0.966834 0.136187
H24   H     H_    0.649831 0.003000 0.467366 0.135509
C17   C     C_3   0.228763 0.487902 0.071256 -0.383578
C18   C     C_3   0.227983 0.515407 0.575374 -0.378535
C19   C     C_3   0.729488 0.989307 0.070394 -0.378064
C20   C     C_3   0.728420 0.013549 0.573020 -0.384643
H25   H     H_    0.250349 0.469691 0.175253 0.209555
H26   H     H_    0.248695 0.532676 0.682803 0.210606
H27   H     H_    0.751437 0.971473 0.174581 0.210373
H28   H     H_    0.749661 0.031802 0.677709 0.210267
H29   H     H_    0.236043 0.468149 0.963664 0.189080
H30   H     H_    0.235258 0.536914 0.471275 0.187855
H31   H     H_    0.736765 0.969386 0.963138 0.188164
H32   H     H_    0.735756 0.033577 0.465961 0.189261
Ba1   Ba    Ba6+2 0.999910 0.465960 0.844870 1.587096
Ba2   Ba    Ba6+2 0.999910 0.534040 0.344870 1.576279
Ba3   Ba    Ba6+2 0.499910 0.965960 0.844870 1.596548
Ba4   Ba    Ba6+2 0.499910 0.034040 0.344870 1.585042
C21   C     C_3   0.854210 0.530030 0.961230 0.289690
C22   C     C_3   0.852856 0.470883 0.455256 0.285963
C23   C     C_3   0.355518 0.030920 0.964874 0.282994
C24   C     C_3   0.349089 0.973029 0.448199 0.265387
H33   H     H_    0.874498 0.526176 0.856328 0.070100
H34   H     H_    0.871132 0.476256 0.347046 0.070996
H35   H     H_    0.377692 0.028095 0.863753 0.070244
H36   H     H_    0.365285 0.979834 0.337060 0.074304
H37   H     H_    0.878991 0.549384 0.056053 0.118827
H38   H     H_    0.879005 0.450527 0.543884 0.109271
H39   H     H_    0.378857 0.049376 0.064711 0.121757
H40   H     H_    0.375758 0.950775 0.529425 0.089427
C25   C     C_3   0.805286 0.558362 0.912724 -0.102924
C26   C     C_3   0.803376 0.442912 0.410415 -0.099594
C27   C     C_3   0.307145 0.059678 0.912237 -0.100662
C28   C     C_3   0.298083 0.947175 0.406829 -0.089877
H41   H     H_    0.778648 0.537682 0.826205 0.179021
H42   H     H_    0.774706 0.465282 0.336952 0.184031
H43   H     H_    0.283168 0.041139 0.813543 0.177095
H44   H     H_    0.269202 0.971703 0.344075 0.189519
H45   H     H_    0.815351 0.591337 0.854521 0.042713
H46   H     H_    0.811659 0.412039 0.338949 0.038276
H47   H     H_    0.318483 0.094447 0.868413 0.043477
H48   H     H_    0.303329 0.917627 0.325830 0.024961
O45   O     O_3   0.058810 0.523750 0.066650 -0.384983
O46   O     O_3   0.058810 0.476250 0.566650 -0.385396
O47   O     O_3   0.558810 0.023750 0.066650 -0.386932
O48   O     O_3   0.558810 0.976250 0.566650 -0.384651
P13   P     P_3+3 0.934071 0.653346 0.096108 0.462240
P14   P     P_3+3 0.931972 0.348032 0.595043 0.498666
P15   P     P_3+3 0.434368 0.153705 0.094365 0.468498
P16   P     P_3+3 0.430454 0.849470 0.597513 0.497117
C29   C     C_3   0.999387 0.276901 0.645385 0.740184
C30   C     C_3   0.000678 0.723520 0.143787 0.788169
C31   C     C_3   0.490900 0.779525 0.536439 0.734295
C32   C     C_3   0.499635 0.225493 0.156483 0.766594
H49   H     H_    0.045497 0.211812 0.696342 0.266340
H50   H     H_    0.061442 0.756771 0.311260 0.226382
H51   H     H_    0.529698 0.716972 0.462131 0.245419
H52   H     H_    0.552694 0.282502 0.251468 0.245784
H53   H     H_    0.926825 0.256562 0.191775 0.083727
H54   H     H_    0.918199 0.739945 0.671315 0.124107
H55   H     H_    0.482815 0.720081 0.098485 0.177492
H56   H     H_    0.418280 0.241133 0.670087 0.125658
C33   C     C_R   0.910248 0.383474 0.290052 -0.583041
C34   C     C_R   0.911744 0.617595 0.790707 -0.615816
C35   C     C_R   0.405010 0.887767 0.298771 -0.484960
C36   C     C_R   0.412581 0.118144 0.788699 -0.623992
C37   C     C_R   0.880825 0.391657 0.144728 0.249547
C38   C     C_R   0.881669 0.608838 0.646218 0.257214
C39   C     C_R   0.378596 0.893417 0.148086 0.265839
C40   C     C_R   0.382207 0.109143 0.645006 0.265121
C41   C     C_R   0.838108 0.361323 0.094215 0.001150
C42   C     C_R   0.839258 0.639494 0.596326 0.019232
C43   C     C_R   0.336433 0.862850 0.095598 0.017390
C44   C     C_R   0.339643 0.139681 0.595354 0.024861
C45   C     C_R   0.827296 0.321611 0.189720 0.033988
C46   C     C_R   0.828730 0.679305 0.692345 0.031539
C47   C     C_R   0.323555 0.825082 0.195708 0.050763
C48   C     C_R   0.329515 0.179905 0.690075 0.027791
C49   C     C_R   0.856211 0.316164 0.342071 0.041219
C50   C     C_R   0.857846 0.684794 0.844523 0.035999
C51   C     C_R   0.349075 0.822395 0.353644 0.129417
C52   C     C_R   0.359278 0.185968 0.841007 0.040731
C53   C     C_R   0.897082 0.348166 0.391716 0.287668
C54   C     C_R   0.899568 0.653726 0.891863 0.249542
C55   C     C_R   0.389879 0.854406 0.403548 0.274018
C56   C     C_R   0.400643 0.154520 0.889201 0.258570
C57   C     C_R   0.799511 0.240513 0.087109 -0.113546
C58   C     C_R   0.799868 0.760853 0.595652 -0.101488
C59   C     C_R   0.299325 0.742162 0.102817 -0.089124
C60   C     C_R   0.299682 0.260813 0.588834 -0.099729
C61   C     C_R   0.263672 0.706479 0.050155 -0.233120
C62   C     C_R   0.262264 0.294571 0.536466 -0.226903
C63   C     C_R   0.762917 0.205970 0.033261 -0.225054
C64   C     C_R   0.762793 0.795007 0.544165 -0.218698
C65   C     C_R   0.210983 0.716066 0.029305 -0.037355
C66   C     C_R   0.210386 0.284432 0.537181 -0.040460
C67   C     C_R   0.710771 0.215013 0.032879 -0.043647
C68   C     C_R   0.710705 0.784710 0.539305 -0.042702
C69   C     C_R   0.194780 0.763052 0.056503 0.353985
C70   C     C_R   0.196428 0.239170 0.590323 0.365458
C71   C     C_R   0.695707 0.259713 0.086712 0.367208
C72   C     C_R   0.696176 0.738807 0.584814 0.374779
C73   C     C_R   0.732545 0.295763 0.134778 0.029130
C74   C     C_R   0.733662 0.703569 0.634803 0.034378
C75   C     C_R   0.230400 0.798795 0.115656 0.038256
C76   C     C_R   0.234254 0.203990 0.638448 0.022319
C77   C     C_R   0.785432 0.286228 0.133091 0.084425
C78   C     C_R   0.786474 0.714414 0.637527 0.083021
C79   C     C_R   0.283539 0.788527 0.136424 0.061731
C80   C     C_R   0.286851 0.214699 0.635436 0.088849
C81   C     C_R   0.142314 0.681614 0.829643 -0.206557
C82   C     C_R   0.141479 0.317349 0.335426 -0.240436
C83   C     C_R   0.642300 0.181547 0.831217 -0.215105
C84   C     C_R   0.643769 0.819210 0.335201 -0.296967
C85   C     C_R   0.101307 0.650613 0.784335 0.332007
C86   C     C_R   0.103070 0.350448 0.284089 0.337048
C87   C     C_R   0.602033 0.149882 0.783286 0.327803
C88   C     C_R   0.605673 0.852590 0.283895 0.334117
C89   C     C_R   0.119644 0.607889 0.036064 0.244828
C90   C     C_R   0.120524 0.393014 0.535799 0.238314
C91   C     C_R   0.619586 0.107456 0.035757 0.247373
C92   C     C_R   0.620676 0.893041 0.538049 0.228519
C93   C     C_R   0.161444 0.639880 0.082774 0.162821
C94   C     C_R   0.161073 0.360368 0.586063 0.177991
C95   C     C_R   0.661120 0.139397 0.083672 0.185551
C96   C     C_R   0.661226 0.860434 0.588997 0.171397
C97   C     C_R   0.172329 0.677415 0.978626 0.065823
C98   C     C_R   0.170767 0.321717 0.485498 0.067158
C99   C     C_R   0.671656 0.177248 0.981092 0.065917
C100  C     C_R   0.671488 0.822251 0.487666 0.062226
C101  C     C_R   0.089758 0.614830 0.888813 -0.493833
C102  C     C_R   0.092739 0.387507 0.385090 -0.419855
C103  C     C_R   0.590417 0.113909 0.887080 -0.478570
C104  C     C_R   0.593390 0.887978 0.387037 -0.458939
H57   H     H_    0.277276 0.671152 0.026175 0.171109
H58   H     H_    0.273955 0.329372 0.499192 0.165911
H59   H     H_    0.775417 0.171444 0.996482 0.168924
H60   H     H_    0.774881 0.830101 0.510885 0.165246
H61   H     H_    0.839281 0.230921 0.097497 0.189677
H62   H     H_    0.839395 0.771433 0.605919 0.175274
H63   H     H_    0.339638 0.733363 0.120119 0.212789
H64   H     H_    0.339055 0.271529 0.596768 0.181211
H65   H     H_    0.150177 0.709951 0.750041 0.161573
H66   H     H_    0.148489 0.288006 0.258713 0.170482
H67   H     H_    0.650105 0.210279 0.753034 0.162436
H68   H     H_    0.651572 0.790554 0.256817 0.181056
H69   H     H_    0.058178 0.590859 0.852025 0.174924
H70   H     H_    0.062661 0.412622 0.344820 0.173892
H71   H     H_    0.559137 0.089706 0.849291 0.172097
H72   H     H_    0.563111 0.912895 0.346728 0.187034
H73   H     H_    0.941557 0.407425 0.330347 0.194838
H74   H     H_    0.942977 0.593634 0.830564 0.189250
H75   H     H_    0.436686 0.911378 0.338595 0.181223
H76   H     H_    0.443713 0.094104 0.828854 0.189962
C105  C     C_3   0.250053 0.538322 0.063438 -0.872172
H77   H     H_    0.253391 0.555016 0.182087 0.268000
H78   H     H_    0.288857 0.536884 0.026641 0.258615
H79   H     H_    0.225121 0.560478 0.977651 0.234497
C106  C     C_3   0.250534 0.465807 0.561012 -0.880336
H80   H     H_    0.290449 0.469045 0.533938 0.259514
H81   H     H_    0.251448 0.446465 0.674520 0.267927
H82   H     H_    0.227879 0.445124 0.465574 0.236061
C107  C     C_3   0.750207 0.039882 0.060596 -0.866340
H83   H     H_    0.787845 0.038901 0.014330 0.257750
H84   H     H_    0.723366 0.062352 0.980697 0.232176
H85   H     H_    0.756247 0.055956 0.180924 0.265037
C108  C     C_3   0.750187 0.963388 0.564827 -0.873190
H86   H     H_    0.789201 0.965371 0.529777 0.259213
H87   H     H_    0.753169 0.946365 0.682801 0.266583
H88   H     H_    0.725793 0.941184 0.477700 0.235526
N1    N     N_R   0.779836 0.570639 0.048756 0.273711
O49   O     O_R   0.761455 0.537300 0.131035 -0.360200
O50   O     O_R   0.769244 0.614993 0.074830 -0.404984
N2    N     N_R   0.782107 0.426330 0.549812 0.269703
O51   O     O_R   0.766571 0.456829 0.647715 -0.361168
O52   O     O_R   0.772779 0.381160 0.566115 -0.409090
N3    N     N_R   0.277243 0.067470 0.041972 0.276293
O53   O     O_R   0.255539 0.031661 0.103973 -0.357029
O54   O     O_R   0.265892 0.110743 0.079811 -0.400079
N4    N     N_R   0.279209 0.928695 0.547912 0.265486
O55   O     O_R   0.266778 0.957838 0.654906 -0.355870
O56   O     O_R   0.269013 0.883506 0.558326 -0.423027
N5    N     N_R   0.011305 0.280404 0.482605 0.204190
O57   O     O_R   0.014096 0.322209 0.419949 -0.487532
O58   O     O_R   0.029600 0.244323 0.412664 -0.383498
N6    N     N_R   0.996785 0.738284 0.978837 0.212333
O59   O     O_R   0.962894 0.769612 0.922018 -0.458588
O60   O     O_R   0.028334 0.721063 0.888978 -0.409634
N7    N     N_R   0.476990 0.791109 0.370142 0.196960
O61   O     O_R   0.494835 0.830157 0.317454 -0.481050
O62   O     O_R   0.439274 0.769253 0.285618 -0.481468
N8    N     N_R   0.503584 0.231805 0.989430 0.214786
O63   O     O_R   0.472449 0.260187 0.904082 -0.479545
O64   O     O_R   0.542103 0.213979 0.930263 -0.411331
C109  C     C_3   0.193269 0.636348 0.242967 -0.904513
H89   H     H_    0.185465 0.667491 0.316264 0.271031
H90   H     H_    0.186088 0.603470 0.306455 0.260550
H91   H     H_    0.234533 0.635891 0.230933 0.221103
C110  C     C_3   0.193818 0.365132 0.744430 -0.896951
H92   H     H_    0.185442 0.335444 0.823014 0.284209
H93   H     H_    0.234932 0.363957 0.729967 0.217529
H94   H     H_    0.188284 0.399254 0.802940 0.255241
C111  C     C_3   0.693763 0.135030 0.242495 -0.898497
H95   H     H_    0.685055 0.164630 0.320767 0.285211
H96   H     H_    0.688479 0.100922 0.301587 0.256988
H97   H     H_    0.734900 0.136756 0.228594 0.218542
C112  C     C_3   0.693703 0.865080 0.747707 -0.884590
H98   H     H_    0.685369 0.835226 0.825667 0.281854
H99   H     H_    0.734865 0.864109 0.734025 0.217461
H100  H     H_    0.688022 0.899207 0.805766 0.256503
C113  C     C_3   0.801874 0.374143 0.947951 -0.621568
H101  H     H_    0.772896 0.346372 0.910831 0.227904
H102  H     H_    0.781375 0.407530 0.969483 0.243040
H103  H     H_    0.822996 0.379542 0.847134 0.299169
C114  C     C_3   0.803342 0.627178 0.448716 -0.618139
H104  H     H_    0.774578 0.655051 0.411968 0.231756
H105  H     H_    0.824801 0.622386 0.348337 0.297655
H106  H     H_    0.782680 0.593616 0.467834 0.235349
C115  C     C_3   0.302365 0.873769 0.942693 -0.623878
H107  H     H_    0.276043 0.844336 0.900669 0.228231
H108  H     H_    0.279260 0.905984 0.958988 0.246050
H109  H     H_    0.324818 0.880482 0.845853 0.293277
C116  C     C_3   0.303420 0.127107 0.448589 -0.624277
H110  H     H_    0.274255 0.154713 0.412811 0.232149
H111  H     H_    0.324634 0.122577 0.347387 0.296747
H112  H     H_    0.283089 0.093416 0.468299 0.232749
N9    N     N_R   0.141426 0.773799 0.032419 0.236239
O65   O     O_R   0.110123 0.746743 0.096597 -0.439601
O66   O     O_R   0.123562 0.806877 0.933328 -0.376248
N10   N     N_R   0.144076 0.230522 0.607870 0.237724
O67   O     O_R   0.120703 0.259544 0.692813 -0.436884
O68   O     O_R   0.119830 0.193991 0.539954 -0.368632
N11   N     N_R   0.643400 0.266388 0.108314 0.236873
O69   O     O_R   0.622240 0.236434 0.196042 -0.436413
O70   O     O_R   0.616211 0.300170 0.034183 -0.379366
N12   N     N_R   0.643206 0.728724 0.587935 0.224022
O71   O     O_R   0.621015 0.694309 0.502144 -0.422033
O72   O     O_R   0.618447 0.751377 0.686775 -0.445476
C117  C     C_3   0.714528 0.342566 0.194669 -0.752201
H113  H     H_    0.746254 0.366773 0.237358 0.237388
H114  H     H_    0.689970 0.361221 0.098052 0.261103
H115  H     H_    0.692442 0.336092 0.294554 0.268071
C118  C     C_3   0.716273 0.655920 0.690777 -0.739740
H116  H     H_    0.748314 0.633147 0.741013 0.230019
H117  H     H_    0.691467 0.661308 0.784528 0.272279
H118  H     H_    0.694666 0.636261 0.590392 0.263273
C119  C     C_3   0.210404 0.846536 0.161764 -0.772445
H119  H     H_    0.240413 0.869123 0.226321 0.240619
H120  H     H_    0.193517 0.866193 0.054572 0.268018
H121  H     H_    0.180762 0.841227 0.241073 0.260656
C120  C     C_3   0.217698 0.156718 0.699705 -0.739505
H122  H     H_    0.250179 0.133974 0.746646 0.229556
H123  H     H_    0.194467 0.162667 0.797155 0.271220
H124  H     H_    0.194795 0.136654 0.602743 0.263259
C121  C     C_3   0.843334 0.277239 0.453304 -0.730457
H125  H     H_    0.807843 0.257387 0.410662 0.215164
H126  H     H_    0.875018 0.251092 0.469897 0.231802
H127  H     H_    0.837271 0.292639 0.568832 0.300034
C122  C     C_3   0.843024 0.721440 0.960783 -0.673081
H128  H     H_    0.809154 0.743020 0.915215 0.203257
H129  H     H_    0.833199 0.703239 0.067927 0.289606
H130  H     H_    0.875064 0.746551 0.994520 0.280993
C123  C     C_3   0.333549 0.785713 0.468608 -0.713510
H131  H     H_    0.297323 0.767084 0.425019 0.209061
H132  H     H_    0.363849 0.758371 0.492869 0.262977
H133  H     H_    0.327237 0.803141 0.580824 0.279973
C124  C     C_3   0.345990 0.224104 0.954471 -0.706776
H134  H     H_    0.311955 0.245535 0.909451 0.206496
H135  H     H_    0.337247 0.207389 0.065355 0.294782
H136  H     H_    0.378498 0.249187 0.981090 0.262973
C125  C     C_3   0.967543 0.189676 0.630743 -0.675574
H137  H     H_    0.974798 0.154077 0.686123 0.256408
H138  H     H_    0.928154 0.200627 0.645812 0.285593
H139  H     H_    0.969879 0.186110 0.502676 0.252697
C126  C     C_3   0.019932 0.815284 0.189017 -0.621783
H140  H     H_    0.037673 0.840487 0.280953 0.226747
H141  H     H_    0.041566 0.817665 0.086623 0.303391
H142  H     H_    0.979684 0.826601 0.153477 0.279031
C127  C     C_3   0.459673 0.691963 0.537636 -0.746330
H143  H     H_    0.432284 0.701529 0.620042 0.291494
H144  H     H_    0.439453 0.691382 0.415186 0.272678
H145  H     H_    0.473739 0.655305 0.566836 0.252106
C128  C     C_3   0.481470 0.316760 0.174432 -0.615390
H146  H     H_    0.482746 0.345399 0.264743 0.234313
H147  H     H_    0.498931 0.331294 0.073119 0.270061
H148  H     H_    0.440912 0.307379 0.134555 0.284264
N13   N     N_R   0.918475 0.232257 0.957460 0.233092
O73   O     O_R   0.914267 0.186373 0.936847 -0.410000
O74   O     O_R   0.885082 0.260099 0.877188 -0.393673
N14   N     N_R   0.909411 0.754213 0.429659 0.246549
O75   O     O_R   0.908776 0.796502 0.366742 -0.388448
O76   O     O_R   0.874350 0.723512 0.375481 -0.385551
N15   N     N_R   0.421139 0.731270 0.919696 0.251096
O77   O     O_R   0.392064 0.768373 0.887384 -0.375702
O78   O     O_R   0.400531 0.689021 0.908405 -0.409223
N16   N     N_R   0.408908 0.252976 0.429118 0.248166
O79   O     O_R   0.376234 0.220049 0.376159 -0.383566
O80   O     O_R   0.400016 0.296597 0.381744 -0.417837
C129  C     C_3   0.155791 0.436804 0.125345 -0.926440
H149  H     H_    0.173094 0.427883 0.247115 0.190462
H150  H     H_    0.113642 0.435649 0.119849 0.270132
H151  H     H_    0.168815 0.409678 0.045913 0.239036
C130  C     C_3   0.153294 0.563872 0.629408 -0.913093
H152  H     H_    0.170182 0.572554 0.751900 0.190093
H153  H     H_    0.165772 0.591792 0.551437 0.236326
H154  H     H_    0.111081 0.563946 0.623339 0.274021
C131  C     C_3   0.657270 0.937685 0.125799 -0.914006
H155  H     H_    0.674800 0.929057 0.247599 0.194355
H156  H     H_    0.615170 0.936467 0.120950 0.266272
H157  H     H_    0.670484 0.910634 0.046751 0.238497
C132  C     C_3   0.654903 0.063808 0.626286 -0.917932
H158  H     H_    0.672239 0.072810 0.748053 0.190745
H159  H     H_    0.667631 0.091116 0.546605 0.237293
H160  H     H_    0.612742 0.064586 0.621297 0.272067

loop_
_geom_bond_atom_site_label_1
_geom_bond_atom_site_label_2
_geom_bond_distance
_ccdc_geom_bond_type
C19   H27   1.113050 S    
C123  H131  1.107254 S    
C60   C80   1.406874 A    
C67   C99   1.501194 S    
C86   C102  1.400762 A    
P5    O37   1.755824 S    
C118  H116  1.099904 S    
C57   C63   1.399111 A    
P7    O39   1.755967 S    
C117  H113  1.099558 S    
P8    O40   1.755718 S    
C10   N14   1.461093 S    
C42   C114  1.510650 S    
C130  H153  1.105635 S    
C94   C110  1.509005 S    
C117  H115  1.110364 S    
P14   C53   1.852175 S    
N3    O53   1.302066 A    
O26   Ba2   2.860076 S    
N4    O55   1.300579 A    
C128  H148  1.108837 S    
C9    N13   1.459364 S    
C4    C32   1.554448 S    
N10   O67   1.300144 A    
C6    H10   1.110164 S    
H2    C30   1.115157 S    
P4    O8    1.562972 S    
C73   C117  1.509042 S    
C126  H142  1.110577 S    
C49   C121  1.514665 S    
C119  H120  1.109496 S    
C32   N8    1.454972 S    
P6    O45   1.565866 S    
P12   O36   1.548981 D    
C36   H76   1.082545 S    
P5    O25   1.558866 D    
C122  H129  1.108140 S    
C66   C70   1.412527 A    
C41   C45   1.430963 A    
C124  H136  1.107332 S    
C29   N5    1.469003 S    
C23   H39   1.109402 S    
N12   O71   1.301028 A    
Ba3   O47   2.796856 S    
P13   C54   1.855301 S    
C40   C44   1.430990 A    
C127  H145  1.110302 S    
C17   C105  1.524938 S    
C112  H98   1.109447 S    
O13   P14   1.536438 D    
C62   C66   1.397337 A    
C116  H112  1.109283 S    
C104  H72   1.082574 S    
C84   C88   1.400626 A    
P9    O33   1.548470 D    
C82   H66   1.083221 S    
O9    P14   1.771190 S    
C120  H124  1.109390 S    
P5    O46   1.568239 S    
C8    C12   1.538828 S    
N12   O72   1.300707 A    
P8    Ba4   3.478249 S    
N2    O52   1.300795 A    
P8    O47   1.565866 S    
N13   O73   1.301035 A    
C69   C75   1.417844 A    
C132  H160  1.106908 S    
N15   O77   1.300790 A    
C36   C40   1.394700 A    
C118  H118  1.109293 S    
C61   H57   1.083008 S    
C108  H87   1.108000 S    
C46   C50   1.425655 A    
C112  H100  1.097454 S    
O29   Ba1   2.780845 S    
O5    Ba2   2.797426 S    
O31   Ba3   2.780845 S    
O7    Ba4   2.797426 S    
C63   H59   1.083303 S    
C57   C77   1.405723 A    
C12   H20   1.111969 S    
N14   O76   1.300569 A    
C62   H58   1.083425 S    
C96   C112  1.507941 S    
C129  H149  1.106596 S    
C52   C124  1.515829 S    
C18   H30   1.111803 S    
C43   C47   1.429827 A    
C28   H48   1.100071 S    
C34   C54   1.396927 A    
C1    H49   1.102235 S    
C125  H137  1.110358 S    
N8    O64   1.294824 A    
C12   H56   1.104257 S    
O42   C6    1.412509 S    
C6    C10   1.536946 S    
C27   H43   1.111490 S    
C46   C78   1.514285 S    
P3    O7    1.560636 S    
C58   H62   1.075187 S    
P11   O35   1.546987 D    
C25   H41   1.110880 S    
C26   H46   1.098226 S    
N9    O65   1.294802 A    
C19   C107  1.525067 S    
O40   C15   1.392419 S    
C132  H158  1.106967 S    
C37   C41   1.429539 A    
C83   C99   1.408911 A    
C121  H125  1.106486 S    
C2    C30   1.560632 S    
Ba4   O48   2.800186 S    
C5    H13   1.105615 S    
Ba3   Ba4   4.676872 S    
C20   H28   1.113020 S    
P2    C38   1.880970 S    
C7    H15   1.110330 S    
C131  H155  1.106711 S    
C105  H77   1.108678 S    
C92   C104  1.396541 A    
C13   C129  1.517529 S    
C66   C98   1.502928 S    
C106  H80   1.111028 S    
C22   C26   1.524903 S    
C115  H108  1.109626 S    
C11   H55   1.110453 S    
O28   Ba4   2.860076 S    
C16   H24   1.103175 S    
C9    H53   1.111069 S    
O30   Ba2   2.779554 S    
O6    Ba1   2.800756 S    
C116  H111  1.098284 S    
C107  H83   1.116803 S    
P4    O4    1.559155 D    
O22   C30   1.407343 S    
C36   C56   1.396383 A    
O9    Ba1   2.779943 S    
C70   C76   1.424721 A    
C60   C62   1.397823 A    
C113  H102  1.109464 S    
C74   C78   1.421811 A    
C81   C85   1.399318 A    
P6    O38   1.756257 S    
P8    O28   1.559007 D    
P9    O29   1.750970 S    
C27   N3    1.460280 S    
N5    O57   1.294583 A    
P10   O34   1.549324 D    
C83   C87   1.400860 A    
C111  H96   1.098694 S    
C26   N2    1.458191 S    
P7    Ba3   3.479800 S    
C75   C79   1.418391 A    
C30   N6    1.458458 S    
P7    C92   1.866070 S    
C7    C11   1.538015 S    
C114  H105  1.097169 S    
C129  H151  1.104620 S    
C20   H32   1.111632 S    
C72   N12   1.428158 S    
C5    C9    1.537633 S    
N6    O59   1.300620 A    
O17   C21   1.395035 S    
C90   C94   1.430094 A    
C125  H139  1.108085 S    
N11   O70   1.300820 A    
C95   C111  1.510298 S    
C4    H52   1.101697 S    
C33   C53   1.390740 A    
C45   C77   1.512835 S    
C15   C131  1.513154 S    
C24   H36   1.108267 S    
Ba1   O46   3.021755 S    
P2    O18   1.746009 S    
C110  H92   1.109607 S    
C82   C86   1.401030 A    
C76   C80   1.421968 A    
C12   N16   1.458489 S    
C109  H89   1.109932 S    
P7    O48   1.568239 S    
C58   C64   1.397721 A    
N1    O50   1.300884 A    
P6    O26   1.559007 D    
C21   H33   1.108817 S    
O20   C24   1.390848 S    
C121  H127  1.108122 S    
C23   H35   1.108951 S    
P9    O41   1.756671 S    
C131  H157  1.103009 S    
O37   C14   1.393078 S    
O10   Ba2   2.781252 S    
C105  H79   1.107463 S    
O14   P13   1.535997 D    
C44   C116  1.511103 S    
C92   C96   1.430597 A    
N15   O78   1.300556 A    
C108  H88   1.106551 S    
C61   C65   1.403030 A    
P3    C39   1.856452 S    
C84   C100  1.407089 A    
C41   C113  1.510536 S    
C64   C68   1.397974 A    
C107  H85   1.113520 S    
P6    Ba2   3.478249 S    
H3    C31   1.114508 S    
C8    H16   1.107440 S    
P6    C89   1.888048 S    
C130  H152  1.107127 S    
C82   C98   1.409479 A    
C50   C122  1.516611 S    
C91   C103  1.404820 A    
C13   H21   1.102635 S    
C67   C71   1.411024 A    
C128  H147  1.110419 S    
C89   C101  1.404823 A    
C15   H23   1.102803 S    
C65   C69   1.414569 A    
O18   C22   1.394495 S    
C21   H37   1.110498 S    
C20   C108  1.525226 S    
N10   O68   1.300745 A    
N7    O61   1.295245 A    
C45   C49   1.424882 A    
C15   C19   1.541710 S    
C33   H73   1.082712 S    
C127  H144  1.107985 S    
C18   C106  1.524969 S    
C9    H17   1.111499 S    
C48   C52   1.425792 A    
C59   H63   1.082149 S    
C126  H141  1.108359 S    
C11   H19   1.106763 S    
O15   P16   1.537031 D    
C122  H128  1.106084 S    
C2    H50   1.109671 S    
P1    O17   1.746530 S    
C124  H135  1.108024 S    
C85   C101  1.402641 A    
P1    O1    1.559296 D    
C68   C72   1.411619 A    
P11   O31   1.769087 S    
C27   H47   1.099488 S    
P10   O42   1.755440 S    
C110  H94   1.098387 S    
P3    O3    1.559296 D    
O4    Ba4   2.861044 S    
H1    C29   1.111834 S    
P4    O20   1.744789 S    
C119  H121  1.110709 S    
C6    H14   1.106696 S    
C26   H42   1.110127 S    
C101  H69   1.082205 S    
O38   C13   1.393699 S    
C109  H91   1.106565 S    
N3    O54   1.301387 A    
C48   C80   1.515759 S    
C60   H64   1.073512 S    
P1    Ba1   3.476549 S    
C38   C42   1.430393 A    
O21   P14   1.756568 S    
P3    Ba3   3.476549 S    
C5    H9    1.107325 S    
C120  H123  1.110434 S    
O22   P13   1.760286 S    
C50   C54   1.419921 A    
C25   N1    1.459050 S    
C83   H67   1.083273 S    
C112  H99   1.107463 S    
P1    C37   1.867178 S    
C123  H132  1.107525 S    
C93   C97   1.431284 A    
O16   P15   1.537462 D    
C3    H51   1.108567 S    
C93   C109  1.508709 S    
C118  H117  1.110327 S    
Ba3   O48   3.021755 S    
C14   H22   1.102734 S    
C117  H114  1.109465 S    
O24   C32   1.408173 S    
O12   P15   1.763276 S    
P1    O5    1.560636 S    
C68   C100  1.500937 S    
C72   C74   1.423124 A    
C130  H154  1.107169 S    
C16   C132  1.518658 S    
C74   C118  1.510096 S    
C10   H18   1.112150 S    
C1    H5    1.106229 S    
C3    H7    1.106631 S    
C18   H26   1.112791 S    
C106  H82   1.106734 S    
C31   N7    1.454881 S    
P12   C87   1.861033 S    
Ba2   O46   2.800186 S    
P10   O30   1.740550 S    
O23   P16   1.757740 S    
O24   P15   1.764503 S    
P12   O44   1.758343 S    
C81   H65   1.083353 S    
C28   N4    1.458763 S    
C33   C37   1.391318 A    
C122  H130  1.106616 S    
O12   Ba4   2.781252 S    
P2    Ba2   3.478057 S    
C24   H40   1.111379 S    
C58   C78   1.407273 A    
Ba2   O45   3.022304 S    
C35   C55   1.389020 A    
N16   O80   1.300063 A    
N16   O79   1.300453 A    
H4    C32   1.112780 S    
P10   C85   1.860762 S    
C19   H31   1.111489 S    
C71   N11   1.428437 S    
C132  H159  1.105626 S    
N11   O69   1.299482 A    
C75   C119  1.511119 S    
Ba1   Ba2   4.676872 S    
P5    C90   1.875990 S    
P7    O27   1.558866 D    
C115  H107  1.105602 S    
C108  H86   1.110616 S    
O1    Ba1   2.857753 S    
O41   C5    1.410646 S    
C22   H38   1.111199 S    
O3    Ba3   2.857753 S    
O43   C7    1.396453 S    
C47   C79   1.507365 S    
C102  H70   1.082446 S    
C95   C99   1.426633 A    
C88   C104  1.393988 A    
C57   H61   1.075005 S    
C44   C48   1.434184 A    
C1    C125  1.534413 S    
N2    O51   1.300606 A    
C3    C127  1.532158 S    
C113  H101  1.105944 S    
N13   O74   1.301718 A    
C64   H60   1.083441 S    
C11   N15   1.463612 S    
N7    O62   1.299914 A    
P8    C91   1.879111 S    
C111  H95   1.109196 S    
P3    O19   1.746862 S    
C8    H12   1.110914 S    
N14   O75   1.301012 A    
C84   H68   1.083353 S    
C114  H104  1.105672 S    
C76   C120  1.510121 S    
C129  H150  1.106365 S    
N6    O60   1.298944 A    
C91   C95   1.429840 A    
C125  H138  1.107475 S    
C103  H71   1.082194 S    
N8    O63   1.296016 A    
C65   C97   1.509170 S    
C21   C25   1.525262 S    
C23   C27   1.525871 S    
Ba1   O45   2.796856 S    
N9    O66   1.300890 A    
O39   C16   1.393818 S    
C70   N10   1.428591 S    
P4    C40   1.879692 S    
C73   C77   1.422240 A    
C51   C123  1.515223 S    
N1    O49   1.300901 A    
N4    O56   1.300343 A    
O44   C8    1.412106 S    
C4    C128  1.532124 S    
P4    Ba4   3.478057 S    
O10   P13   1.760296 S    
C121  H126  1.107155 S    
C87   C103  1.403111 A    
P11   C88   1.846428 S    
O2    Ba2   2.861044 S    
Ba4   O47   3.022304 S    
P2    O2    1.559155 D    
C28   H44   1.109967 S    
P11   O43   1.751245 S    
C131  H156  1.105645 S    
C94   C98   1.427369 A    
C105  H78   1.110760 S    
C14   C130  1.518426 S    
C43   C115  1.513426 S    
O11   Ba3   2.779943 S    
C4    H8    1.095944 S    
C106  H81   1.108118 S    
C89   C93   1.433949 A    
C115  H109  1.095953 S    
C51   C55   1.420426 A    
C47   C51   1.425823 A    
C13   C17   1.541784 S    
C107  H84   1.111264 S    
C17   H29   1.111563 S    
C39   C43   1.426013 A    
C59   C61   1.403415 A    
C52   C56   1.420912 A    
P16   C55   1.852075 S    
C49   C53   1.421078 A    
C113  H103  1.096801 S    
C3    C31   1.540981 S    
P15   C56   1.854972 S    
C2    C126  1.532372 S    
C35   H75   1.083012 S    
C128  H146  1.110674 S    
C22   H34   1.108310 S    
C1    C29   1.550133 S    
N5    O58   1.300887 A    
C111  H97   1.107813 S    
C35   C39   1.387375 A    
P2    O6    1.562972 S    
C96   C100  1.425579 A    
C16   C20   1.541956 S    
O25   Ba1   2.863409 S    
C126  H140  1.111034 S    
C114  H106  1.109520 S    
C25   H45   1.098617 S    
P12   O32   1.742887 S    
O27   Ba3   2.863409 S    
C2    H6    1.093400 S    
C63   C67   1.398081 A    
C69   N9    1.426750 S    
O21   C29   1.408939 S    
C123  H133  1.108112 S    
C124  H134  1.106013 S    
P9    C86   1.859026 S    
C59   C79   1.407086 A    
C110  H93   1.107960 S    
C127  H143  1.107307 S    
C7    H11   1.099467 S    
C81   C97   1.409888 A    
C109  H90   1.098467 S    
C42   C46   1.434511 A    
C14   C18   1.541590 S    
C116  H110  1.105757 S    
C90   C102  1.400828 A    
C34   C38   1.395395 A    
O19   C23   1.394606 S    
O11   P16   1.772572 S    
C10   H54   1.105078 S    
O23   C31   1.408152 S    
C24   C28   1.525535 S    
C119  H119  1.100761 S    
P5    Ba1   3.479800 S    
C34   H74   1.082539 S    
C71   C73   1.422177 A    
C120  H122  1.100134 S    
O32   Ba4   2.779554 S    
O8    Ba3   2.800756 S    
C17   H25   1.112762 S    
