data_mof_unit_51426.cif
_audit_creation_date              2012-12-11T16:08:51-0500
_audit_creation_method            fapswitch 2.2
_symmetry_space_group_name_H-M    P1
_symmetry_Int_Tables_number       1
_space_group_crystal_system       triclinic
_cell_length_a                    12.960628
_cell_length_b                    13.31924
_cell_length_c                    27.701422
_cell_angle_alpha                 95.186747
_cell_angle_beta                  89.421052
_cell_angle_gamma                 119.371009
_cell_volume                      4147.01855775

loop_
_atom_site_label
_atom_site_type_symbol
_atom_type_description
_atom_site_fract_x
_atom_site_fract_y
_atom_site_fract_z
_atom_type_partial_charge
C1    C     C_R   0.630342 0.894535 0.428016 0.559320
C2    C     C_R   0.569341 0.294033 0.224322 0.428337
C3    C     C_R   0.560115 0.280969 0.273961 0.391180
C4    C     C_R   0.662065 0.315826 0.303169 -0.049176
C5    C     C_R   0.680402 0.340476 0.203320 -0.091051
C6    C     C_1   0.689891 0.363691 0.153148 0.073021
C7    C     C_1   0.650558 0.295284 0.353657 0.106661
C8    C     C_1   0.700295 0.392373 0.112544 0.066582
C9    C     C_R   0.205023 0.757961 0.345143 0.087690
C10   C     C_R   0.215204 0.766906 0.295076 -0.055280
C11   C     C_R   0.213859 0.774248 0.193512 -0.038278
C12   C     C_R   0.601545 0.222115 0.440566 0.540435
C13   C     C_R   0.247842 0.701714 0.214406 0.440777
C14   C     C_R   0.245523 0.696073 0.264347 0.448064
C15   C     C_R   0.198391 0.770438 0.142872 0.085793
C16   C     C_R   0.136014 0.821937 0.125174 0.001452
C17   C     C_R   0.198047 0.937972 0.356529 0.398995
C18   C     C_R   0.181814 0.933227 0.306155 0.041640
C19   C     C_R   0.196521 0.850738 0.275308 -0.145945
C20   C     C_R   0.155594 0.011347 0.285703 0.467189
C21   C     C_R   0.137908 0.003422 0.235684 -0.004113
C22   C     C_R   0.152422 0.921877 0.204984 -0.014761
C23   C     C_R   0.269392 0.875606 0.425272 0.561362
C24   C     C_R   0.188370 0.849376 0.224566 -0.101725
C25   C     C_R   0.123352 0.905835 0.155494 0.368433
C26   C     C_R   0.214512 0.852939 0.376156 -0.036105
C27   C     C_R   0.754951 0.942652 0.356830 0.368861
C28   C     C_R   0.754678 0.934142 0.306324 -0.042164
C29   C     C_R   0.738391 0.917048 0.204300 0.002441
C30   C     C_R   0.820742 0.020910 0.230674 0.374215
C31   C     C_R   0.830159 0.030176 0.280984 0.178955
C32   C     C_R   0.729026 0.908130 0.153477 0.137981
C33   C     C_R   0.670697 0.798442 0.127758 -0.038971
C34   C     C_R   0.627436 0.897886 0.564564 0.551792
C35   C     C_R   0.591282 0.746099 0.356888 0.075429
C36   C     C_R   0.597295 0.730618 0.305780 -0.044991
C37   C     C_R   0.673176 0.827624 0.280397 -0.138577
C38   C     C_R   0.528037 0.622851 0.278844 0.491910
C39   C     C_R   0.527436 0.612259 0.228629 0.480226
C40   C     C_R   0.592662 0.709700 0.202732 -0.039546
C41   C     C_R   0.668601 0.817870 0.229090 -0.124213
C42   C     C_R   0.589673 0.701231 0.151486 0.111320
C43   C     C_R   0.661810 0.857171 0.380981 -0.010640
C44   C     C_R   0.738061 0.340399 0.650429 0.050629
C45   C     C_R   0.600341 0.224286 0.579078 0.587955
C46   C     C_R   0.755596 0.354043 0.701677 -0.025176
C47   C     C_R   0.778278 0.372561 0.804392 0.008851
C48   C     C_R   0.878657 0.410146 0.775797 0.428391
C49   C     C_R   0.868074 0.397145 0.725207 0.164793
C50   C     C_R   0.787360 0.377249 0.855153 0.086215
C51   C     C_R   0.690316 0.365606 0.882376 -0.004247
C52   C     C_R   0.524778 0.227822 0.659663 0.366654
C53   C     C_R   0.539239 0.256995 0.709013 0.038670
C54   C     C_R   0.653846 0.315483 0.730810 -0.018873
C55   C     C_R   0.438827 0.220290 0.736810 -0.062117
C56   C     C_R   0.270692 0.879070 0.563127 0.562606
C57   C     C_R   0.448753 0.238455 0.786789 0.136785
C58   C     C_R   0.562301 0.291508 0.810026 0.053037
C59   C     C_R   0.665126 0.328073 0.781761 -0.056715
C60   C     C_R   0.577231 0.313593 0.860394 0.384826
C61   C     C_R   0.623338 0.268071 0.630230 0.033120
C62   C     C_1   0.219141 0.861251 0.609587 0.096654
C63   C     C_R   0.228493 0.794247 0.728044 0.088634
C64   C     C_R   0.215688 0.789316 0.777968 -0.112330
C65   C     C_R   0.080669 0.866044 0.775705 0.420423
C66   C     C_R   0.094074 0.872813 0.725625 0.117048
C67   C     C_1   0.633695 0.268804 0.394654 0.078045
C68   C     C_R   0.168320 0.836787 0.701654 -0.017402
C69   C     C_R   0.142853 0.825858 0.801898 0.007610
C70   C     C_1   0.124835 0.813483 0.852709 0.064714
C71   C     C_1   0.189754 0.849076 0.650928 0.059457
C72   C     C_1   0.101092 0.796604 0.894323 0.066565
C73   C     C_1   0.644825 0.860892 0.609518 0.068546
C74   C     C_R   0.672599 0.913826 0.735579 0.127544
C75   C     C_R   0.673755 0.901659 0.785125 0.381210
C76   C     C_R   0.654526 0.711743 0.766421 0.377171
C77   C     C_R   0.652782 0.723205 0.716502 0.132589
C78   C     C_R   0.773225 0.362736 0.282378 0.334394
C79   C     C_R   0.661922 0.824898 0.700902 -0.050894
C80   C     C_R   0.664368 0.800787 0.800709 0.028359
C81   C     C_1   0.673349 0.792641 0.851922 0.121848
C82   C     C_1   0.654579 0.838906 0.650045 0.059565
C83   C     C_1   0.688063 0.786535 0.894258 0.076597
C84   C     C_R   0.066601 0.774463 0.078781 0.565557
C85   C     C_R   0.716211 0.440882 0.067115 0.546305
C86   C     C_R   0.717742 0.781713 0.080816 0.545017
C87   C     C_R   0.056815 0.766073 0.941303 0.547558
C88   C     C_R   0.710250 0.431101 0.929951 0.580886
C89   C     C_R   0.782732 0.374363 0.232464 0.065381
C90   C     C_R   0.717373 0.775487 0.942576 0.545240
Cr1   Cr    Cr6+3 0.416430 0.829200 0.492370 1.110464
Cr2   Cr    Cr6+3 0.674630 0.087020 0.504170 1.141790
Cr3   Cr    Cr6+3 0.408920 0.083740 0.503490 1.182595
Cr4   Cr    Cr6+3 0.914010 0.832750 0.013970 1.162300
Cr5   Cr    Cr6+3 0.922310 0.578600 0.003000 1.112589
Cr6   Cr    Cr6+3 0.656280 0.574630 0.003870 1.135685
H1    H     H_    0.112089 0.061028 0.221112 0.243806
H2    H     H_    0.350862 0.176380 0.719638 0.201674
H3    H     H_    0.261754 0.755911 0.798002 0.179496
O1    O     O_R   0.296680 0.802170 0.437540 -0.497005
O2    O     O_R   0.662610 0.183990 0.557860 -0.489510
O3    O     O_R   0.500730 0.201280 0.562180 -0.428242
O4    O     O_R   0.312500 0.978850 0.548170 -0.454300
O5    O     O_3   0.499990 0.999990 0.500010 -0.308862
O6    O     O_R   0.820790 0.857990 0.068830 -0.441125
O7    O     O_R   0.016700 0.827330 0.062850 -0.426964
O8    O     O_R   0.041970 0.673520 0.060040 -0.489050
O9    O     O_R   0.817980 0.483660 0.048840 -0.492087
O10   O     O_R   0.637200 0.461990 0.052510 -0.476451
O11   O     O_R   0.664790 0.681920 0.057970 -0.498752
O12   O     O_R   0.525380 0.838530 0.443500 -0.496973
O13   O     O_R   0.815840 0.852920 0.961840 -0.480552
O14   O     O_R   0.012100 0.822630 0.963670 -0.485464
O15   O     O_R   0.037010 0.668460 0.953040 -0.484153
O16   O     O_R   0.813390 0.478970 0.949660 -0.499560
O17   O     O_R   0.632250 0.456930 0.945520 -0.423419
O18   O     O_R   0.660200 0.677230 0.958780 -0.492283
O19   O     O_3   0.830870 0.661990 0.006950 -0.304929
O20   O     O_R   0.702130 0.995190 0.446810 -0.421758
O21   O     O_R   0.661770 0.181390 0.458760 -0.487704
O22   O     O_R   0.499820 0.198480 0.455280 -0.462017
O23   O     O_R   0.311660 0.976250 0.449080 -0.435141
O24   O     O_R   0.297580 0.804960 0.544440 -0.492585
O25   O     O_R   0.526220 0.841130 0.542590 -0.488528
O26   O     O_R   0.703030 0.997990 0.553710 -0.481978
F1    F     F_    0.872057 0.397349 0.310623 -0.569049
F2    F     F_    0.143034 0.093073 0.313920 -0.485421
F3    F     F_    0.198899 0.025160 0.386421 -0.507888
I1    I     I_    0.780365 0.055764 0.113385 -0.091322
F4    F     F_    0.842504 0.036186 0.383166 -0.555696
F5    F     F_    0.899573 0.112663 0.207846 -0.552017
I2    I     I_    0.957011 0.198807 0.313517 0.233510
I3    I     I_    0.452308 0.549134 0.109616 0.061531
F6    F     F_    0.466413 0.503049 0.206616 -0.486118
F7    F     F_    0.460266 0.524264 0.299935 -0.478602
I4    I     I_    0.952841 0.443479 0.202498 -0.045173
I5    I     I_    0.487496 0.606288 0.400429 -0.031061
I6    I     I_    0.931910 0.371608 0.890228 -0.034706
I7    I     I_    0.864344 0.452086 0.602288 -0.221642
F8    F     F_    0.989463 0.463833 0.796594 -0.582844
I8    I     I_    0.023259 0.412065 0.691222 -0.063654
F9    F     F_    0.483679 0.288867 0.888897 -0.570315
I9    I     I_    0.283081 0.176824 0.821107 -0.056401
F10   F     F_    0.413058 0.155118 0.640578 -0.618037
I10   I     I_    0.339948 0.735709 0.694553 -0.271811
F11   F     F_    0.470041 0.262394 0.196800 -0.505214
F12   F     F_    0.007084 0.898352 0.798842 -0.582782
I11   I     I_    0.001618 0.938353 0.687790 -0.175856
I12   I     I_    0.686316 0.068339 0.714587 -0.251382
F13   F     F_    0.685106 0.988698 0.818161 -0.580117
F14   F     F_    0.647522 0.614416 0.781528 -0.599260
I13   I     I_    0.636537 0.585753 0.666178 -0.190411
F15   F     F_    0.451685 0.234236 0.293571 -0.517046
I14   I     I_    0.280424 0.704995 0.091244 -0.136377
I15   I     I_    0.146557 0.592257 0.372033 0.041265
F16   F     F_    0.273954 0.627976 0.187174 -0.529273
F17   F     F_    0.280250 0.625436 0.282320 -0.525785
F18   F     F_    0.075298 0.966448 0.137786 -0.574275

loop_
_geom_bond_atom_site_label_1
_geom_bond_atom_site_label_2
_ccdc_geom_bond_type
C1    O12   A    
C66   C68   A    
Cr4   O6    S    
Cr4   O19   S    
C35   C36   A    
C90   O13   A    
Cr1   O5    S    
Cr2   O26   S    
Cr3   O4    S    
C53   C54   A    
C46   C49   A    
C29   C30   A    
C42   I3    S    
C5    C6    S    
C33   C42   A    
Cr6   O19   S    
C36   C37   A    
C86   O11   A    
Cr2   O20   S    
Cr3   O22   S    
C8    C85   S    
C29   C32   A    
C85   O10   A    
C52   C61   A    
C68   C71   S    
C38   C39   A    
Cr5   O15   S    
C58   C60   A    
C30   F5    S    
C11   C24   A    
C16   C84   S    
C84   O8    A    
Cr3   O5    S    
C18   C20   A    
C18   C19   A    
C1    O20   A    
C23   C26   S    
Cr1   O12   S    
C3    F15   S    
C87   O15   A    
C60   F9    S    
C12   O21   A    
C11   C15   A    
C1    C43   S    
C64   H3    S    
Cr4   O7    S    
C12   O22   A    
Cr5   O16   S    
C15   I14   S    
C22   C25   A    
C49   I8    S    
C84   O7    A    
C74   I12   S    
Cr1   O1    S    
C65   F12   S    
C85   O9    A    
C35   C43   A    
C75   C80   A    
C66   I11   S    
C40   C42   A    
C23   O1    A    
Cr5   O19   S    
C89   I4    S    
Cr1   O24   S    
C21   C22   A    
Cr5   O8    S    
C4    C7    S    
C77   I13   S    
C32   I1    S    
C81   C83   T    
Cr4   O14   S    
C44   C46   A    
C9    C26   A    
C50   C51   A    
C23   O23   A    
C54   C59   A    
C53   C55   A    
C78   C89   A    
C12   C67   S    
C47   C59   A    
C74   C75   A    
C57   I9    S    
C14   F17   S    
C56   O24   A    
Cr6   O18   S    
C76   C77   A    
C20   F2    S    
C10   C14   A    
C39   C40   A    
C48   F8    S    
C6    C8    T    
C76   F14   S    
C58   C59   A    
C38   F7    S    
Cr6   O11   S    
C88   O17   A    
C33   C86   S    
C90   O18   A    
C13   F16   S    
C4    C78   A    
C31   I2    S    
Cr5   O9    S    
C21   H1    S    
C47   C48   A    
C10   C19   A    
C46   C54   A    
C17   C18   A    
C77   C79   A    
C52   F10   S    
C64   C69   A    
Cr3   O23   S    
C45   O2    A    
Cr2   O2    S    
C40   C41   A    
C44   I7    S    
C74   C79   A    
C55   C57   A    
C22   C24   A    
C86   O6    A    
C17   C26   A    
C3    C4    A    
C78   F1    S    
C73   C82   T    
C25   F18   S    
C72   C87   S    
C52   C53   A    
C9    C10   A    
C51   C88   S    
C16   C25   A    
C83   C90   S    
C63   C68   A    
C48   C49   A    
C34   O25   A    
C29   C41   A    
C28   C31   A    
C76   C80   A    
C56   O4    A    
C80   C81   S    
Cr3   O3    S    
C79   C82   S    
C50   I6    S    
C17   F3    S    
C44   C61   A    
C2    F11   S    
Cr6   O10   S    
C47   C50   A    
Cr1   O25   S    
C32   C33   A    
C88   O16   A    
C36   C38   A    
C19   C24   A    
Cr2   O21   S    
C35   I5    S    
C11   C13   A    
C57   C58   A    
C30   C31   A    
C28   C37   A    
C34   O26   A    
C65   C69   A    
C55   H2    S    
C45   C61   S    
C62   C71   T    
C2    C3    A    
C56   C62   S    
C37   C41   A    
C69   C70   S    
C87   O14   A    
C45   O3    A    
Cr2   O5    S    
C34   C73   S    
C7    C67   T    
C63   C64   A    
C2    C5    A    
C27   C43   A    
C20   C21   A    
C9    I15   S    
C65   C66   A    
C27   C28   A    
C27   F4    S    
Cr6   O17   S    
C70   C72   T    
C51   C60   A    
C75   F13   S    
C13   C14   A    
C63   I10   S    
Cr4   O13   S    
C5    C89   A    
C15   C16   A    
C39   F6    S    
