data_mof_unit_9866.cif
_audit_creation_date              2012-12-11T17:41:40-0500
_audit_creation_method            fapswitch 2.2
_symmetry_space_group_name_H-M    P1
_symmetry_Int_Tables_number       1
_space_group_crystal_system       triclinic
_cell_length_a                    15.610981
_cell_length_b                    14.949822
_cell_length_c                    14.68946
_cell_angle_alpha                 109.586761
_cell_angle_beta                  121.188346
_cell_angle_gamma                 59.82012
_cell_volume                      2522.19183241

loop_
_atom_site_label
_atom_site_type_symbol
_atom_type_description
_atom_site_fract_x
_atom_site_fract_y
_atom_site_fract_z
_atom_type_partial_charge
C1    C     C_R   0.752101 0.996266 0.793391 0.711186
C2    C     C_R   0.156639 0.186756 0.951121 -0.023399
C3    C     C_R   0.694739 0.667946 0.844593 -0.206243
C4    C     C_R   0.257771 0.111311 0.953390 -0.139380
C5    C     C_R   0.701703 0.733904 0.940688 0.145860
C6    C     C_R   0.286017 0.006106 0.953441 0.207251
C7    C     C_R   0.806395 0.722459 0.023704 -0.032481
C8    C     C_R   0.210957 0.976423 0.947375 -0.222354
C9    C     C_R   0.901052 0.646207 0.011603 -0.109136
C10   C     C_R   0.109902 0.052261 0.945238 -0.100300
C11   C     C_R   0.892666 0.581355 0.916195 -0.100383
C12   C     C_R   0.196761 0.064830 0.227405 0.677158
C13   C     C_R   0.082960 0.157367 0.947470 0.055444
C14   C     C_R   0.590645 0.828925 0.049822 0.484368
C15   C     C_R   0.404044 0.888843 0.863925 0.518404
C16   C     C_R   0.204734 0.276108 0.445505 -0.085417
C17   C     C_R   0.782953 0.715894 0.535703 -0.131933
C18   C     C_R   0.491962 0.905280 0.058072 -0.140960
C19   C     C_R   0.503529 0.863506 0.865738 -0.136970
C20   C     C_R   0.394606 0.928493 0.960448 -0.212199
C21   C     C_R   0.599595 0.812620 0.953538 -0.194661
C22   C     C_2   0.034844 0.352486 0.476641 -0.206048
C23   C     C_R   0.144468 0.275970 0.489028 0.132033
C24   C     C_2   0.896283 0.611966 0.431721 -0.200914
C25   C     C_2   0.979649 0.425942 0.410904 -0.113394
C26   C     C_2   0.896022 0.522290 0.430264 -0.138523
C27   C     C_2   0.829749 0.133912 0.903983 -0.198316
C28   C     C_2   0.017695 0.046543 0.154285 -0.205402
C29   C     C_R   0.101662 0.740154 0.311930 -0.307668
C30   C     C_R   0.898364 0.220656 0.532848 -0.307163
C31   C     C_R   0.209022 0.664986 0.350026 -0.234727
C32   C     C_R   0.790834 0.279151 0.465452 -0.225440
C33   C     C_R   0.276183 0.638705 0.300408 0.126314
C34   C     C_R   0.826574 0.708093 0.470909 0.152030
C35   C     C_R   0.710336 0.334892 0.504155 0.132078
C36   C     C_R   0.233297 0.686675 0.209845 -0.241703
C37   C     C_R   0.740435 0.339557 0.613166 -0.257736
C38   C     C_R   0.124900 0.761321 0.170766 -0.229516
C39   C     C_R   0.847714 0.280590 0.680304 -0.281521
C40   C     C_R   0.592022 0.216551 0.486616 -0.140812
C41   C     C_R   0.403272 0.771678 0.441764 -0.138776
C42   C     C_R   0.059151 0.790990 0.223088 0.614290
C43   C     C_R   0.925760 0.217321 0.639406 0.673794
C44   C     C_R   0.400369 0.460486 0.344689 -0.242676
C45   C     C_R   0.502620 0.303839 0.438841 0.050481
C46   C     C_R   0.586411 0.490109 0.413927 -0.240335
C47   C     C_R   0.502437 0.386151 0.404107 0.056415
C48   C     C_R   0.485775 0.575913 0.390413 0.047872
C49   C     C_R   0.598045 0.399617 0.434342 0.047358
C50   C     C_R   0.389399 0.558008 0.342201 0.052119
C51   C     C_2   0.851715 0.117461 0.999319 -0.108774
C52   C     C_2   0.949930 0.125187 0.092591 -0.139596
C53   C     C_R   0.410687 0.978716 0.715037 -0.112883
C54   C     C_R   0.587317 0.951393 0.262419 -0.117867
C55   C     C_R   0.410274 0.292919 0.418431 -0.109631
C56   C     C_R   0.490478 0.677515 0.443506 0.057374
C57   C     C_R   0.585787 0.694974 0.515733 -0.128312
C58   C     C_R   0.591554 0.905217 0.787413 -0.041067
C59   C     C_R   0.405632 0.020596 0.191439 -0.155339
C60   C     C_R   0.202917 0.185115 0.537660 -0.149503
C61   C     C_R   0.783031 0.805972 0.441997 -0.172753
C62   C     C_R   0.745433 0.093481 0.701987 -0.279739
C63   C     C_R   0.196074 0.971574 0.315870 -0.273201
C64   C     C_R   0.775259 0.078606 0.804477 -0.020362
C65   C     C_R   0.132711 0.026718 0.227286 -0.011341
C66   C     C_3   0.671505 0.678222 0.124902 0.184008
C67   C     C_R   0.502343 0.915357 0.794208 0.076866
C68   C     C_3   0.602034 0.692155 0.177727 -0.297999
C69   C     C_3   0.610013 0.587955 0.183245 -1.002553
C70   C     C_3   0.297333 0.801580 0.742713 0.136631
C71   C     C_3   0.377331 0.709186 0.700114 -0.305720
C72   C     C_3   0.346887 0.616026 0.657171 -1.009882
C73   C     C_3   0.924433 0.944213 0.257223 0.161079
C74   C     C_3   0.838549 0.940961 0.276052 -0.277071
C75   C     C_3   0.807389 0.030545 0.357110 -1.045526
C76   C     C_3   0.044180 0.046827 0.668157 0.155300
C77   C     C_3   0.959433 0.019895 0.664886 -0.365636
C78   C     C_R   0.494092 0.957263 0.165648 0.113033
C79   C     C_3   0.992287 0.902970 0.649350 -0.978747
C80   C     C_R   0.789555 0.592554 0.832541 -0.114593
F1    F     F_    0.778926 0.947117 0.872617 -0.748267
F2    F     F_    0.159773 0.145485 0.175430 -0.763808
H1    H     H_    0.991707 0.987080 0.141818 0.179295
H2    H     H_    0.231772 0.895525 0.947193 0.114520
H3    H     H_    0.981111 0.637232 0.076252 0.127991
H4    H     H_    0.053145 0.029234 0.942585 0.133780
H5    H     H_    0.844208 0.519478 0.456893 0.134160
H6    H     H_    0.008384 0.424328 0.356920 0.133324
H7    H     H_    0.947951 0.614269 0.404509 0.130338
H8    H     H_    0.005079 0.355983 0.530835 0.143412
H9    H     H_    0.180638 0.329022 0.393235 0.098364
H10   H     H_    0.810701 0.658037 0.584392 0.094318
H11   H     H_    0.051903 0.757716 0.351367 0.130523
H12   H     H_    0.865783 0.176945 0.899171 0.123758
H13   H     H_    0.959441 0.176119 0.501657 0.132403
H14   H     H_    0.240181 0.626993 0.418491 0.151505
H15   H     H_    0.769952 0.280280 0.382983 0.146043
H16   H     H_    0.283379 0.665896 0.169436 0.144550
H17   H     H_    0.680242 0.386993 0.645305 0.149565
H18   H     H_    0.092173 0.796924 0.100034 0.156028
H19   H     H_    0.869263 0.281037 0.763277 0.132802
H20   H     H_    0.326261 0.448414 0.309330 0.129175
H21   H     H_    0.659982 0.499068 0.437177 0.126598
H22   H     H_    0.674239 0.186986 0.495198 0.124254
H23   H     H_    0.966065 0.522595 0.906981 0.109819
H24   H     H_    0.317298 0.790435 0.399665 0.133557
H25   H     H_    0.325803 0.996637 0.689122 0.163747
H26   H     H_    0.670137 0.912479 0.272072 0.160336
H27   H     H_    0.325322 0.338370 0.370563 0.094933
H28   H     H_    0.668619 0.637410 0.543481 0.090598
H29   H     H_    0.675020 0.851464 0.826809 0.180465
H30   H     H_    0.320472 0.041845 0.140828 0.175595
H31   H     H_    0.174117 0.154834 0.568728 0.108892
H32   H     H_    0.810068 0.828932 0.402772 0.117464
H33   H     H_    0.750218 0.152859 0.680914 0.153586
H34   H     H_    0.005681 0.216625 0.947382 0.068648
H35   H     H_    0.165735 0.945291 0.348954 0.131895
H36   H     H_    0.973854 0.184600 0.099561 0.206584
H37   H     H_    0.813881 0.077018 0.005430 0.212079
H38   H     H_    0.756521 0.621338 0.166996 0.139026
H39   H     H_    0.640392 0.643577 0.040191 0.085572
H40   H     H_    0.630336 0.731200 0.260061 0.225939
H41   H     H_    0.514677 0.741655 0.131278 0.189678
H42   H     H_    0.579368 0.548471 0.101464 0.266439
H43   H     H_    0.559369 0.600986 0.222372 0.272408
H44   H     H_    0.696300 0.537001 0.230712 0.274643
H45   H     H_    0.782974 0.542756 0.758216 0.122586
H46   H     H_    0.213383 0.816702 0.678159 0.141924
H47   H     H_    0.301351 0.781514 0.811802 0.091986
H48   H     H_    0.376905 0.732315 0.635343 0.215255
H49   H     H_    0.461117 0.685077 0.766015 0.185391
H50   H     H_    0.354838 0.587346 0.722976 0.271054
H51   H     H_    0.402837 0.552330 0.622194 0.271543
H52   H     H_    0.261220 0.637833 0.594278 0.260566
H53   H     H_    0.887337 0.019082 0.224965 0.135759
H54   H     H_    0.996605 0.945860 0.334784 0.070351
H55   H     H_    0.764006 0.947098 0.199391 0.216057
H56   H     H_    0.135451 0.267995 0.952490 0.093423
H57   H     H_    0.871195 0.866212 0.306058 0.186176
H58   H     H_    0.882226 0.031570 0.430056 0.270921
H59   H     H_    0.755561 0.021828 0.380955 0.267481
H60   H     H_    0.761233 0.105362 0.321837 0.278019
H61   H     H_    0.124899 0.000195 0.726429 0.210069
H62   H     H_    0.048155 0.024153 0.589759 0.084816
H63   H     H_    0.951128 0.051961 0.741043 0.219450
H64   H     H_    0.878479 0.055503 0.598204 0.198886
H65   H     H_    0.005736 0.867775 0.575684 0.258734
H66   H     H_    0.925889 0.887992 0.641584 0.284361
H67   H     H_    0.616142 0.675266 0.778110 0.122856
H68   H     H_    0.067782 0.866083 0.719896 0.256107
H69   H     H_    0.314914 0.134749 0.957047 0.113748
H70   H     H_    0.815244 0.772496 0.097748 0.168072
N1    N     N_R   0.705410 0.966550 0.689210 -0.107369
N2    N     N_R   0.556610 0.796750 0.548620 -0.043626
N3    N     N_R   0.556610 0.951620 0.703500 -0.058512
N4    N     N_R   0.443390 0.048380 0.296500 -0.039614
N5    N     N_R   0.294590 0.131500 0.522480 -0.045704
N6    N     N_R   0.705410 0.868500 0.477520 -0.043574
N7    N     N_R   0.705410 0.023370 0.632390 -0.068360
N8    N     N_R   0.294590 0.976630 0.367610 -0.068778
N9    N     N_R   0.294590 0.033450 0.310790 -0.103286
N10   N     N_R   0.294590 0.188320 0.465660 -0.048257
N11   N     N_R   0.705410 0.811680 0.534340 -0.045280
N12   N     N_R   0.556610 0.157790 0.497330 -0.038302
N13   N     N_R   0.443390 0.842210 0.502670 -0.041076
N14   N     N_R   0.443390 0.997080 0.657540 -0.059330
N15   N     N_R   0.556610 0.002920 0.342460 -0.052739
N16   N     N_R   0.443390 0.203250 0.451380 -0.038410
Ni1   Ni    Ni4+2 0.629830 0.882720 0.617850 0.231912
Ni2   Ni    Ni4+2 0.370170 0.117280 0.382150 0.255828
Ni3   Ni    Ni4+2 0.629830 0.013030 0.487540 0.192137
Ni4   Ni    Ni4+2 0.370170 0.986970 0.512460 0.197788
O1    O     O_3   0.677466 0.772858 0.135243 -0.702459
O2    O     O_3   0.313530 0.893552 0.767435 -0.697400
O3    O     O_3   0.950968 0.862394 0.179602 -0.677916
O4    O     O_3   0.028069 0.152175 0.705248 -0.683963

loop_
_geom_bond_atom_site_label_1
_geom_bond_atom_site_label_2
_ccdc_geom_bond_type
C66   C68   S    
C63   C65   A    
N14   Ni4   S    
C29   C42   A    
C73   C74   S    
C14   C18   A    
C54   N15   A    
C24   H7    S    
C47   C49   A    
C32   H15   S    
C15   C19   A    
C46   C49   A    
N7    Ni3   S    
C63   N8    A    
C14   C21   A    
C19   C21   A    
C24   C26   D    
C40   N12   A    
C14   O1    S    
C75   H58   S    
N5    Ni4   S    
C63   H35   S    
N6    Ni3   S    
N3    N14   A    
C44   C50   A    
C31   H14   S    
C33   C36   A    
C56   C57   A    
C59   C78   A    
C48   C56   S    
C2    C13   A    
N3    Ni1   S    
C62   C64   A    
C75   H59   S    
C9    H3    S    
C12   N9    A    
C73   H53   S    
C26   H5    S    
C22   C25   D    
C41   N13   A    
C11   H23   S    
C51   H37   S    
C31   C33   A    
N2    N13   A    
C19   C67   S    
C70   C71   S    
C30   C32   A    
C17   N11   A    
C44   C47   A    
N13   Ni4   S    
N16   Ni2   S    
C69   H43   S    
C66   H38   S    
C55   H27   S    
C28   H1    S    
C60   H31   S    
C23   C60   A    
C17   H10   S    
C55   N16   A    
N11   Ni1   S    
C3    C80   A    
C68   H41   S    
C22   C23   S    
C27   C51   D    
C39   H19   S    
C45   C47   S    
C22   H8    S    
C40   C45   A    
C74   H55   S    
C46   C48   A    
C3    H67   S    
C74   C75   S    
C51   C52   S    
C2    H56   S    
C32   C35   A    
C76   O4    S    
C76   C77   S    
C4    C6    A    
C41   H24   S    
C68   H40   S    
C5    C7    A    
C44   H20   S    
C68   C69   S    
C39   C43   A    
N4    N15   A    
C16   N10   A    
C25   C26   S    
C25   H6    S    
C24   C34   S    
C58   H29   S    
N2    Ni1   S    
C15   C20   A    
C5    C21   S    
C73   O3    S    
C2    C4    A    
C41   C56   A    
C35   C49   S    
C30   H13   S    
C75   H60   S    
C40   H22   S    
C70   O2    S    
C43   O4    S    
C53   H25   S    
C12   C65   A    
C72   H52   S    
C11   C80   A    
N10   Ni2   S    
C73   H54   S    
N12   N16   A    
C18   C78   S    
C66   H39   S    
C59   H30   S    
N8    Ni4   S    
C77   C79   S    
C12   F2    S    
C66   O1    S    
C60   N5    A    
C1    N1    A    
C48   C50   A    
C9    C11   A    
N6    N11   A    
C79   H68   S    
C79   H65   S    
N9    Ni2   S    
C76   H62   S    
C38   H18   S    
C69   H44   S    
C16   C23   A    
C30   C43   A    
C17   C34   A    
C1    C64   A    
C77   H63   S    
C37   H17   S    
N1    N7    A    
C74   H57   S    
C70   H46   S    
C58   N3    A    
C7    C9    A    
C4    H69   S    
C10   H4    S    
C15   O2    S    
C35   C37   A    
C8    H2    S    
C8    C10   A    
C3    C5    A    
C10   C13   A    
C6    C8    A    
C59   N4    A    
C57   H28   S    
C38   C42   A    
C79   H66   S    
C80   H45   S    
C54   H26   S    
C6    C20   S    
C46   H21   S    
C69   H42   S    
N15   Ni3   S    
C42   O3    S    
N8    N9    A    
C36   C38   A    
C28   C65   S    
C33   C50   S    
C71   C72   S    
C29   C31   A    
C61   N6    A    
C72   H50   S    
C29   H11   S    
C28   C52   D    
C72   H51   S    
C77   H64   S    
N4    Ni2   S    
C18   C20   A    
C70   H47   S    
C53   C67   A    
C13   H34   S    
C27   C64   S    
C71   H49   S    
C7    H70   S    
C76   H61   S    
C58   C67   A    
C62   H33   S    
C53   N14   A    
C45   C55   A    
C16   H9    S    
C37   C39   A    
C34   C61   A    
N1    Ni1   S    
C61   H32   S    
C62   N7    A    
C27   H12   S    
C36   H16   S    
C54   C78   A    
N12   Ni3   S    
C57   N2    A    
C1    F1    S    
N5    N10   A    
C71   H48   S    
C52   H36   S    
