data_mof_unit_60188.cif
_audit_creation_date              2012-12-10T18:29:21-0500
_audit_creation_method            fapswitch 2.2
_symmetry_space_group_name_H-M    P1
_symmetry_Int_Tables_number       1
_space_group_crystal_system       triclinic
_cell_length_a                    35.959839
_cell_length_b                    25.901138
_cell_length_c                    22.14548
_cell_angle_alpha                 90.034684
_cell_angle_beta                  144.162919
_cell_angle_gamma                 90.02266
_cell_volume                      12076.3306397

loop_
_atom_site_label
_atom_site_type_symbol
_atom_type_description
_atom_site_fract_x
_atom_site_fract_y
_atom_site_fract_z
_atom_type_partial_charge
C1    C     C_R   0.650432 0.750018 0.000046 0.818773
C2    C     C_R   0.650473 0.249984 0.000097 0.831457
C3    C     C_R   0.150432 0.250018 0.000046 0.818774
C4    C     C_R   0.150473 0.749984 0.000097 0.831484
C5    C     C_3   0.749371 0.551102 0.995803 -0.243331
C6    C     C_3   0.748744 0.448856 0.995162 -0.230289
C7    C     C_3   0.249376 0.051102 0.995808 -0.243443
C8    C     C_3   0.248748 0.948856 0.995169 -0.230453
C9    C     C_3   0.506824 0.201815 0.988807 0.194986
C10   C     C_3   0.492631 0.794112 0.960285 0.191742
C11   C     C_3   0.006748 0.701823 0.988654 0.194793
C12   C     C_3   0.998082 0.296276 0.971208 0.192145
C13   C     C_3   0.942526 0.730290 0.909541 -0.169928
C14   C     C_3   0.939632 0.261013 0.903730 -0.163824
C15   C     C_3   0.442559 0.230221 0.909608 -0.170557
C16   C     C_3   0.438722 0.754997 0.901904 -0.162796
C17   C     C_1   0.888960 0.750033 0.999611 -0.020565
C18   C     C_1   0.888962 0.249977 0.999593 -0.030205
C19   C     C_1   0.388960 0.250033 0.999613 -0.020554
C20   C     C_1   0.388999 0.749941 0.999666 -0.030279
C21   C     C_1   0.610846 0.249906 0.000038 -0.023216
C22   C     C_1   0.610815 0.750021 0.999998 -0.026559
C23   C     C_1   0.110845 0.749905 0.000037 -0.023296
C24   C     C_1   0.110777 0.250058 0.999922 -0.026509
C25   C     C_3   0.026233 0.722078 0.077395 0.244245
C26   C     C_3   0.020481 0.284560 0.065793 0.245139
C27   C     C_3   0.526277 0.222138 0.077484 0.244272
C28   C     C_3   0.516108 0.788279 0.057031 0.245837
C29   C     C_3   0.962082 0.750466 0.998125 -0.011148
C30   C     C_3   0.962093 0.249363 0.998139 -0.010594
C31   C     C_3   0.462084 0.250465 0.998128 -0.011128
C32   C     C_3   0.462252 0.749218 0.998459 -0.011005
C33   C     C_3   0.555880 0.270699 0.087028 0.189280
C34   C     C_3   0.560030 0.743429 0.095361 0.191111
C35   C     C_3   0.055911 0.770631 0.087088 0.189331
C36   C     C_3   0.058789 0.237696 0.092870 0.190885
C37   C     C_3   0.536173 0.250372 0.998371 -0.029559
C38   C     C_3   0.536303 0.749271 0.998637 -0.030282
C39   C     C_3   0.036172 0.750373 0.998368 -0.029604
C40   C     C_3   0.036142 0.249419 0.998312 -0.030478
C41   C     C_3   0.991566 0.798919 0.007719 -0.154422
C42   C     C_3   0.000188 0.202588 0.025074 -0.154878
C43   C     C_3   0.491493 0.298925 0.007573 -0.153806
C44   C     C_3   0.505950 0.704447 0.036626 -0.155693
C45   C     C_R   0.849506 0.750008 0.999900 0.843303
C46   C     C_R   0.849514 0.250008 0.999884 0.827682
C47   C     C_R   0.349506 0.250009 0.999900 0.843297
C48   C     C_R   0.349514 0.750008 0.999884 0.827380
C49   C     C_3   0.472091 0.278681 0.919059 -0.179044
C50   C     C_3   0.482551 0.710231 0.940084 -0.177781
C51   C     C_3   0.972132 0.778743 0.919141 -0.178978
C52   C     C_3   0.977860 0.214242 0.930682 -0.177712
C53   C     C_1   0.922044 0.750158 0.999096 0.181944
C54   C     C_1   0.922036 0.249791 0.999062 0.180283
C55   C     C_1   0.422045 0.250158 0.999099 0.181965
C56   C     C_1   0.422121 0.749711 0.999233 0.180221
C57   C     C_1   0.577251 0.250013 0.999526 0.159416
C58   C     C_1   0.577259 0.749800 0.999559 0.157787
C59   C     C_1   0.077249 0.750013 0.999524 0.159334
C60   C     C_1   0.077172 0.249883 0.999383 0.157649
C61   C     C_3   0.492803 0.761575 0.562838 -0.456873
C62   C     C_3   0.505569 0.293390 0.562725 -0.412319
C63   C     C_3   0.992783 0.261492 0.562832 -0.456747
C64   C     C_3   0.005555 0.793377 0.562724 -0.412112
C65   C     C_3   0.429592 0.756869 0.442745 -0.131457
C66   C     C_3   0.441083 0.290114 0.443601 -0.159274
C67   C     C_3   0.929579 0.256781 0.442741 -0.131623
C68   C     C_3   0.941066 0.790095 0.443600 -0.159135
C69   C     C_3   0.543327 0.692166 0.560401 0.089629
C70   C     C_3   0.573864 0.265582 0.562792 0.062604
C71   C     C_3   0.043392 0.192200 0.560400 0.089430
C72   C     C_3   0.073854 0.765600 0.562784 0.061647
C73   C     C_3   0.557749 0.789618 0.559731 -0.395535
C74   C     C_3   0.518067 0.198987 0.560084 -0.402321
C75   C     C_3   0.057699 0.289688 0.559733 -0.395467
C76   C     C_3   0.018077 0.698980 0.560084 -0.402438
C77   C     C_3   0.552109 0.747488 0.602124 -0.027795
C78   C     C_3   0.553114 0.251832 0.602637 -0.029433
C79   C     C_3   0.052108 0.247494 0.602122 -0.027847
C80   C     C_3   0.053111 0.751831 0.602635 -0.029322
C81   C     C_3   0.448471 0.748809 0.398083 -0.139695
C82   C     C_3   0.450714 0.252262 0.398488 -0.112360
C83   C     C_3   0.948470 0.248812 0.398082 -0.139836
C84   C     C_3   0.950708 0.752262 0.398487 -0.112294
C85   C     C_3   0.485668 0.695235 0.437025 0.030576
C86   C     C_3   0.511728 0.268808 0.438948 0.029326
C87   C     C_3   0.985728 0.195277 0.437022 0.030631
C88   C     C_3   0.011713 0.768835 0.438941 0.029344
C89   C     C_R   0.891845 0.750764 0.282700 0.840903
C90   C     C_R   0.890957 0.250156 0.282523 0.760741
C91   C     C_R   0.391848 0.250766 0.282701 0.841049
C92   C     C_R   0.390959 0.750153 0.282523 0.760572
C93   C     C_3   0.496093 0.793512 0.441803 0.058792
C94   C     C_3   0.465340 0.196338 0.442650 0.042311
C95   C     C_3   0.996043 0.293571 0.441804 0.058846
C96   C     C_3   0.965352 0.696333 0.442651 0.042341
C97   C     C_3   0.806009 0.970962 0.103133 -0.255946
C98   C     C_3   0.810628 0.030396 0.099374 -0.272373
C99   C     C_3   0.305972 0.470961 0.103153 -0.255634
C100  C     C_3   0.310615 0.530395 0.099426 -0.272265
C101  C     C_3   0.684257 0.969160 0.953720 0.087872
C102  C     C_3   0.691705 0.030918 0.971981 0.092002
C103  C     C_3   0.184197 0.469168 0.953547 0.088347
C104  C     C_3   0.191661 0.530922 0.971870 0.092062
C105  C     C_3   0.738074 0.971305 0.917909 -0.332242
C106  C     C_3   0.728357 0.030641 0.906861 -0.331311
C107  C     C_3   0.238186 0.471316 0.918037 -0.332623
C108  C     C_3   0.228409 0.530644 0.906915 -0.331389
C109  C     C_3   0.742904 0.949093 0.991254 -0.141971
C110  C     C_3   0.743328 0.051511 0.992113 -0.105471
C111  C     C_3   0.242907 0.449096 0.991244 -0.142262
C112  C     C_3   0.243336 0.551514 0.992120 -0.105309
C113  C     C_R   0.609006 0.749535 0.717492 0.870927
C114  C     C_R   0.609100 0.250265 0.717642 0.852765
C115  C     C_R   0.109004 0.249538 0.717491 0.870813
C116  C     C_R   0.109099 0.750265 0.717641 0.852734
C117  C     C_R   0.746982 0.891184 0.996364 0.767893
C118  C     C_R   0.747899 0.108959 0.997553 0.911781
C119  C     C_R   0.246983 0.391185 0.996362 0.768278
C120  C     C_R   0.247912 0.608959 0.997568 0.910882
C121  C     C_R   0.749754 0.608765 0.998038 0.930398
C122  C     C_R   0.749606 0.391210 0.997618 0.944005
C123  C     C_R   0.249754 0.108765 0.998038 0.930325
C124  C     C_R   0.249607 0.891210 0.997621 0.943927
C125  C     C_3   0.683494 0.530098 0.886849 0.128254
C126  C     C_3   0.680574 0.470639 0.891536 0.126855
C127  C     C_3   0.183522 0.030097 0.886819 0.128204
C128  C     C_3   0.180592 0.970640 0.891501 0.126822
C129  C     C_3   0.761991 0.530219 0.077756 -0.014353
C130  C     C_3   0.769452 0.470077 0.085788 -0.016781
C131  C     C_3   0.261929 0.030219 0.077685 -0.014086
C132  C     C_3   0.269397 0.970078 0.085735 -0.016600
C133  C     C_3   0.804028 0.529428 0.026501 0.090459
C134  C     C_3   0.797873 0.469700 0.012445 0.066010
C135  C     C_3   0.304078 0.029426 0.026618 0.090528
C136  C     C_3   0.297925 0.969699 0.012560 0.066148
H1    H     H_    0.644989 0.546758 0.864438 0.183492
H2    H     H_    0.651193 0.463484 0.893810 0.177969
H3    H     H_    0.144983 0.046762 0.864321 0.183340
H4    H     H_    0.151173 0.963491 0.893702 0.177878
H5    H     H_    0.490875 0.737976 0.602212 0.207618
H6    H     H_    0.527977 0.332046 0.587818 0.221779
H7    H     H_    0.990877 0.237840 0.602197 0.208158
H8    H     H_    0.027952 0.832037 0.587810 0.221822
H9    H     H_    0.499885 0.801763 0.588864 0.218463
H10   H     H_    0.498729 0.289968 0.603267 0.246632
H11   H     H_    0.999814 0.301666 0.588859 0.218245
H12   H     H_    0.998720 0.789944 0.603272 0.246568
H13   H     H_    0.598036 0.781037 0.581971 0.252190
H14   H     H_    0.551118 0.165918 0.598097 0.249603
H15   H     H_    0.098002 0.281179 0.581984 0.252301
H16   H     H_    0.051134 0.665917 0.598100 0.249645
H17   H     H_    0.568597 0.827638 0.595085 0.228670
H18   H     H_    0.497193 0.194283 0.578419 0.244734
H19   H     H_    0.068496 0.327693 0.595082 0.228462
H20   H     H_    0.997201 0.694264 0.578415 0.244647
H21   H     H_    0.508670 0.789675 0.409955 0.214456
H22   H     H_    0.483385 0.171197 0.430166 0.249107
H23   H     H_    0.008631 0.289793 0.409968 0.214682
H24   H     H_    0.983408 0.671206 0.430172 0.249211
H25   H     H_    0.802551 0.964747 0.148231 0.265496
H26   H     H_    0.824953 0.047520 0.162231 0.259456
H27   H     H_    0.302436 0.464750 0.148147 0.265436
H28   H     H_    0.324884 0.547515 0.162223 0.259503
H29   H     H_    0.785631 0.964860 0.959894 0.189461
H30   H     H_    0.764195 0.047052 0.922398 0.200237
H31   H     H_    0.285790 0.464903 0.960168 0.189293
H32   H     H_    0.264226 0.547087 0.922431 0.199646
H33   H     H_    0.849492 0.536904 0.110606 0.129439
H34   H     H_    0.845446 0.453406 0.085877 0.147948
H35   H     H_    0.349517 0.036901 0.110735 0.129396
H36   H     H_    0.345488 0.953405 0.086020 0.148048
H37   H     H_    0.807689 0.546654 0.154503 0.168787
H38   H     H_    0.820859 0.461321 0.159363 0.160101
H39   H     H_    0.307608 0.046657 0.154453 0.168908
H40   H     H_    0.320800 0.961325 0.159348 0.160041
O1    O     O_3   0.749990 0.749990 0.000000 -0.540761
O2    O     O_3   0.749990 0.250010 0.000000 -0.540058
O3    O     O_3   0.249990 0.249990 0.000000 -0.540802
O4    O     O_3   0.249990 0.750010 0.000000 -0.539987
O5    O     O_R   0.888390 0.719350 0.233690 -0.581475
O6    O     O_R   0.888390 0.280650 0.233690 -0.624768
O7    O     O_R   0.388390 0.219350 0.233690 -0.581485
O8    O     O_R   0.388390 0.780650 0.233690 -0.624767
O9    O     O_R   0.611600 0.719370 0.766300 -0.610445
O10   O     O_R   0.611600 0.280630 0.766300 -0.624493
O11   O     O_R   0.111600 0.219370 0.766300 -0.610244
O12   O     O_R   0.111600 0.780630 0.766300 -0.624487
O13   O     O_R   0.698440 0.780630 0.061300 -0.610816
O14   O     O_R   0.698440 0.219370 0.061300 -0.590877
O15   O     O_R   0.198440 0.280630 0.061300 -0.610972
O16   O     O_R   0.198440 0.719370 0.061300 -0.590803
O17   O     O_R   0.801540 0.780630 0.938710 -0.599042
O18   O     O_R   0.801540 0.219370 0.938710 -0.624497
O19   O     O_R   0.301540 0.280630 0.938710 -0.598966
O20   O     O_R   0.301540 0.719370 0.938710 -0.624623
O21   O     O_R   0.637170 0.719360 0.938750 -0.612438
O22   O     O_R   0.637170 0.280640 0.938750 -0.614636
O23   O     O_R   0.137170 0.219360 0.938750 -0.612145
O24   O     O_R   0.137170 0.780640 0.938750 -0.614645
O25   O     O_R   0.862810 0.719350 0.061240 -0.605605
O26   O     O_R   0.862810 0.280650 0.061240 -0.617796
O27   O     O_R   0.362810 0.219350 0.061240 -0.605614
O28   O     O_R   0.362810 0.780650 0.061240 -0.617770
O29   O     O_R   0.845300 0.780620 0.233710 -0.629021
O30   O     O_R   0.845300 0.219380 0.233710 -0.572254
O31   O     O_R   0.345300 0.280620 0.233710 -0.629013
O32   O     O_R   0.345300 0.719380 0.233710 -0.572181
O33   O     O_R   0.654690 0.780640 0.766300 -0.624986
O34   O     O_R   0.654690 0.219360 0.766300 -0.616739
O35   O     O_R   0.154690 0.280640 0.766300 -0.624988
O36   O     O_R   0.154690 0.719360 0.766300 -0.616630
O37   O     O_R   0.759080 0.866840 0.061290 -0.568997
O38   O     O_R   0.759080 0.133160 0.061290 -0.589754
O39   O     O_R   0.259080 0.366840 0.061290 -0.568884
O40   O     O_R   0.259080 0.633160 0.061290 -0.589879
O41   O     O_R   0.697810 0.633140 0.938720 -0.602179
O42   O     O_R   0.697810 0.366860 0.938720 -0.597054
O43   O     O_R   0.197810 0.133140 0.938720 -0.602356
O44   O     O_R   0.197810 0.866860 0.938720 -0.597046
O45   O     O_R   0.740900 0.866850 0.938740 -0.644393
O46   O     O_R   0.740900 0.133150 0.938740 -0.616111
O47   O     O_R   0.240900 0.366850 0.938740 -0.644489
O48   O     O_R   0.240900 0.633150 0.938740 -0.616325
O49   O     O_R   0.802180 0.633140 0.061250 -0.618880
O50   O     O_R   0.802180 0.366860 0.061250 -0.635620
O51   O     O_R   0.302180 0.133140 0.061250 -0.618861
O52   O     O_R   0.302180 0.866860 0.061250 -0.635623
Zn1   Zn    Zn3+2 0.824550 0.706220 0.087530 1.095159
Zn2   Zn    Zn3+2 0.824550 0.293780 0.087530 1.050296
Zn3   Zn    Zn3+2 0.324550 0.206220 0.087530 1.095169
Zn4   Zn    Zn3+2 0.324550 0.793780 0.087530 1.050114
Zn5   Zn    Zn3+2 0.762980 0.793760 0.087560 1.072793
Zn6   Zn    Zn3+2 0.762980 0.206240 0.087560 1.109044
Zn7   Zn    Zn3+2 0.262980 0.293760 0.087560 1.072858
Zn8   Zn    Zn3+2 0.262980 0.706240 0.087560 1.108855
Zn9   Zn    Zn3+2 0.737010 0.793770 0.912460 1.053405
Zn10  Zn    Zn3+2 0.737010 0.206230 0.912460 1.075907
Zn11  Zn    Zn3+2 0.237010 0.293770 0.912460 1.053413
Zn12  Zn    Zn3+2 0.237010 0.706230 0.912460 1.075498
Zn13  Zn    Zn3+2 0.675440 0.706230 0.912460 1.073941
Zn14  Zn    Zn3+2 0.675440 0.293770 0.912460 1.078143
Zn15  Zn    Zn3+2 0.175440 0.206230 0.912460 1.074108
Zn16  Zn    Zn3+2 0.175440 0.793770 0.912460 1.078098
C137  C     C_2   0.984491 0.853809 0.018711 0.513293
H41   H     H_    0.008078 0.884362 0.024866 0.101011
O53   O     O_2   0.952472 0.864445 0.020748 -0.532574
C138  C     C_2   0.002872 0.149642 0.055714 0.515368
H42   H     H_    0.031887 0.120154 0.072798 0.103004
O54   O     O_2   0.972744 0.139397 0.061559 -0.532134
C139  C     C_2   0.484334 0.353822 0.018397 0.512439
H43   H     H_    0.507874 0.384379 0.024457 0.100753
O55   O     O_2   0.452299 0.364458 0.020403 -0.533068
C140  C     C_2   0.514966 0.653787 0.079966 0.515457
H44   H     H_    0.547510 0.625567 0.104126 0.103542
O56   O     O_2   0.486061 0.643989 0.088263 -0.531424
Br1   Br    Br    0.638111 0.299923 0.215144 -0.326671
Br2   Br    Br    0.648020 0.735056 0.235046 -0.329230
Br3   Br    Br    0.138188 0.799757 0.215298 -0.324742
Br4   Br    Br    0.145223 0.220846 0.229443 -0.327619
Br5   Br    Br    0.064941 0.681173 0.191682 -0.274115
Br6   Br    Br    0.050925 0.335356 0.163349 -0.266955
Br7   Br    Br    0.565045 0.181323 0.191892 -0.274670
Br8   Br    Br    0.539994 0.844661 0.141447 -0.262386
C141  C     C_2   0.389243 0.805176 0.399336 0.591723
H45   H     H_    0.357786 0.818788 0.322565 0.081610
O57   O     O_2   0.387310 0.826806 0.445832 -0.500606
C142  C     C_2   0.388525 0.269040 0.416186 0.591719
H46   H     H_    0.340111 0.266312 0.336045 0.129175
O58   O     O_2   0.398593 0.255068 0.481254 -0.524136
C143  C     C_2   0.889183 0.305051 0.399346 0.591543
H47   H     H_    0.857776 0.318727 0.322636 0.081713
O59   O     O_2   0.887145 0.326566 0.445764 -0.501429
C144  C     C_2   0.888518 0.768994 0.416191 0.591937
H48   H     H_    0.840108 0.766243 0.336048 0.129220
O60   O     O_2   0.898589 0.755027 0.481265 -0.524421
C145  C     C_2   0.389747 0.712647 0.416054 0.549099
H49   H     H_    0.411796 0.680655 0.468150 0.148857
O61   O     O_2   0.331794 0.712333 0.335907 -0.500352
C146  C     C_2   0.421927 0.345828 0.403189 0.510061
H50   H     H_    0.457555 0.374087 0.437556 0.170048
O62   O     O_2   0.367164 0.361047 0.335694 -0.492016
C147  C     C_2   0.889782 0.212500 0.416044 0.549858
H51   H     H_    0.911872 0.180471 0.468092 0.149127
O63   O     O_2   0.831824 0.212176 0.335951 -0.500194
C148  C     C_2   0.921884 0.845811 0.403185 0.509850
H52   H     H_    0.957499 0.874087 0.437557 0.169948
O64   O     O_2   0.867113 0.861009 0.335680 -0.491915
Br9   Br    Br    0.529023 0.640418 0.606043 -0.394368
Br10  Br    Br    0.622601 0.331079 0.628181 -0.381671
Br11  Br    Br    0.029153 0.140369 0.606050 -0.393911
Br12  Br    Br    0.122585 0.831098 0.628184 -0.382487
Br13  Br    Br    0.430377 0.633230 0.369786 -0.357657
Br14  Br    Br    0.497446 0.337060 0.383633 -0.417720
Br15  Br    Br    0.930498 0.133230 0.369768 -0.357948
Br16  Br    Br    0.997403 0.837104 0.383637 -0.417285
Br17  Br    Br    0.662134 0.554109 0.777209 -0.266585
Br18  Br    Br    0.631044 0.434290 0.763865 -0.279085
Br19  Br    Br    0.162258 0.054097 0.777276 -0.266355
Br20  Br    Br    0.131116 0.934283 0.763869 -0.279084
Br21  Br    Br    0.464065 0.864684 0.400915 -0.441108
Br22  Br    Br    0.392567 0.155755 0.375208 -0.416818
Br23  Br    Br    0.963933 0.364717 0.400893 -0.441431
Br24  Br    Br    0.892592 0.655726 0.375208 -0.418584
C149  C     C_2   0.603754 0.670927 0.611171 0.567504
H53   H     H_    0.602840 0.632323 0.590821 0.152738
O65   O     O_2   0.653112 0.695637 0.673461 -0.542681
C150  C     C_2   0.622776 0.226436 0.603767 0.430295
H54   H     H_    0.669802 0.239133 0.652032 0.138779
O66   O     O_2   0.610402 0.180520 0.583019 -0.511605
C151  C     C_2   0.103845 0.171037 0.611170 0.567486
H55   H     H_    0.102979 0.132451 0.590832 0.152709
O67   O     O_2   0.153172 0.195791 0.673449 -0.542501
C152  C     C_2   0.122767 0.726464 0.603739 0.431652
H56   H     H_    0.169782 0.739170 0.651964 0.140587
O68   O     O_2   0.110403 0.680546 0.583003 -0.511046
C153  C     C_2   0.505846 0.691766 0.396863 0.366159
H57   H     H_    0.472188 0.677434 0.319337 0.148536
O69   O     O_2   0.557031 0.707479 0.445813 -0.540106
C154  C     C_2   0.522872 0.238464 0.394626 0.484264
H58   H     H_    0.554581 0.254839 0.402683 0.125147
O70   O     O_2   0.501313 0.195620 0.356071 -0.505625
C155  C     C_2   0.005913 0.191893 0.396865 0.365831
H59   H     H_    0.972279 0.177560 0.319348 0.148363
O71   O     O_2   0.057076 0.207674 0.445809 -0.539892
C156  C     C_2   0.022854 0.738520 0.394595 0.484338
H60   H     H_    0.054517 0.754930 0.402573 0.125679
O72   O     O_2   0.001344 0.695658 0.356107 -0.505504
C157  C     C_2   0.865836 0.942811 0.162637 0.490053
H61   H     H_    0.875156 0.934779 0.127662 0.057895
O73   O     O_2   0.904552 0.929488 0.251437 -0.465777
C158  C     C_2   0.862892 0.046833 0.124517 0.435640
H62   H     H_    0.865970 0.030231 0.083720 0.075660
O74   O     O_2   0.902789 0.078481 0.192385 -0.519068
C159  C     C_2   0.365823 0.442803 0.162769 0.491302
H63   H     H_    0.375337 0.434957 0.128041 0.057604
O75   O     O_2   0.404330 0.429244 0.251375 -0.466135
C160  C     C_2   0.362956 0.546796 0.124736 0.434020
H64   H     H_    0.365786 0.530487 0.083430 0.074686
O76   O     O_2   0.403268 0.578020 0.193444 -0.517675
Br25  Br    Br    0.678779 0.933938 0.025705 -0.326883
Br26  Br    Br    0.720544 0.049385 0.092785 -0.324279
Br27  Br    Br    0.178559 0.433911 0.025287 -0.326598
Br28  Br    Br    0.220428 0.549346 0.092614 -0.324322
C161  C     C_2   0.692263 0.944810 0.813918 0.526782
H65   H     H_    0.641589 0.944165 0.755201 0.057903
O77   O     O_2   0.712253 0.924603 0.794153 -0.492898
C162  C     C_2   0.664955 0.048577 0.797963 0.537411
H66   H     H_    0.620653 0.034773 0.758032 0.129409
O78   O     O_2   0.663159 0.077782 0.752344 -0.484178
C163  C     C_2   0.192490 0.444812 0.814095 0.526961
H67   H     H_    0.141795 0.444158 0.755234 0.057194
O79   O     O_2   0.212602 0.424613 0.794532 -0.493046
C164  C     C_2   0.164980 0.548526 0.797985 0.537546
H68   H     H_    0.120698 0.534651 0.758061 0.128808
O80   O     O_2   0.163140 0.577758 0.752336 -0.484270
Br29  Br    Br    0.698774 0.555716 0.052809 -0.339454
Br30  Br    Br    0.729727 0.433619 0.101710 -0.354546
Br31  Br    Br    0.198647 0.055710 0.052593 -0.341008
Br32  Br    Br    0.229612 0.933619 0.101547 -0.353982
C165  C     C_2   0.622732 0.949153 0.844152 0.339778
H69   H     H_    0.619704 0.908481 0.828558 0.075975
O81   O     O_2   0.575662 0.975503 0.773641 -0.558611
C166  C     C_2   0.628435 0.059467 0.888386 0.485176
H70   H     H_    0.591327 0.046773 0.870217 0.175596
O82   O     O_2   0.618505 0.097566 0.844314 -0.611697
C167  C     C_2   0.122710 0.449210 0.843904 0.339122
H71   H     H_    0.119807 0.408617 0.828083 0.075421
O83   O     O_2   0.075497 0.475473 0.773625 -0.558544
C168  C     C_2   0.128404 0.559497 0.888256 0.484783
H72   H     H_    0.091286 0.546842 0.870085 0.175521
O84   O     O_2   0.118499 0.597577 0.844180 -0.611670
Br33  Br    Br    0.819473 0.566175 0.970461 -0.256341
Br34  Br    Br    0.781697 0.444263 0.909107 -0.234421
Br35  Br    Br    0.319611 0.066169 0.970707 -0.255607
Br36  Br    Br    0.281825 0.944264 0.909306 -0.234418
C169  C     C_2   0.879850 0.707385 0.809250 0.538854
H73   H     H_    0.872451 0.694631 0.753386 0.101627
O85   O     O_2   0.837122 0.702973 0.789853 -0.497370
C170  C     C_2   0.873661 0.274280 0.796852 0.526811
H74   H     H_    0.864426 0.281713 0.737317 0.102741
O86   O     O_2   0.830298 0.276764 0.776189 -0.525623
C171  C     C_2   0.379920 0.207239 0.809390 0.539756
H75   H     H_    0.372541 0.194445 0.753567 0.102174
O87   O     O_2   0.337199 0.202812 0.790009 -0.496960
C172  C     C_2   0.371526 0.761632 0.792566 0.526351
H76   H     H_    0.361608 0.765345 0.731657 0.102698
O88   O     O_2   0.327935 0.762865 0.771442 -0.528246
Br37  Br    Br    0.518298 0.131699 0.975231 -0.303281
Br38  Br    Br    0.483453 0.858858 0.905201 -0.303664
Br39  Br    Br    0.018114 0.631714 0.974865 -0.304448
Br40  Br    Br    0.997001 0.363920 0.932342 -0.300321
C173  C     C_2   0.440145 0.310639 0.829504 0.464055
H77   H     H_    0.394731 0.328523 0.779408 0.096776
O89   O     O_2   0.464716 0.316710 0.812470 -0.508386
C174  C     C_2   0.462297 0.666114 0.874008 0.458700
H78   H     H_    0.423383 0.641471 0.836966 0.091369
O90   O     O_2   0.489142 0.657681 0.861539 -0.507192
C175  C     C_2   0.940234 0.810770 0.829682 0.463875
H79   H     H_    0.894846 0.828693 0.779640 0.096736
O91   O     O_2   0.964813 0.816855 0.812666 -0.508434
C176  C     C_2   0.952475 0.174498 0.854325 0.458711
H80   H     H_    0.910710 0.152290 0.811570 0.092512
O92   O     O_2   0.978320 0.166909 0.839854 -0.508868

loop_
_geom_bond_atom_site_label_1
_geom_bond_atom_site_label_2
_ccdc_geom_bond_type
C124  O44   A    
C82   C94   S    
C11   Br39  S    
C13   C169  S    
C36   C42   S    
C73   C93   S    
C110  C118  S    
C75   C95   S    
C130  H38   S    
C71   Br11  S    
C132  Br32  S    
C47   O19   A    
C174  O90   D    
C35   C39   S    
C173  O89   D    
C123  O51   A    
C10   C28   S    
C143  H47   S    
C121  O49   A    
C144  H48   S    
C4    O16   A    
C140  O56   D    
C72   C88   S    
C13   C51   S    
C134  Br34  S    
C14   C52   S    
C80   C116  S    
C70   Br10  S    
C156  H60   S    
O32   Zn8   S    
C73   H13   S    
O15   Zn7   S    
C137  H41   S    
C129  H37   S    
C94   Br22  S    
O37   Zn5   S    
C98   H26   S    
C138  O54   D    
C128  Br20  S    
C25   C29   S    
C107  H31   S    
C130  Br30  S    
C27   C31   S    
C155  H59   S    
C84   C88   S    
C28   C32   S    
C67   C147  S    
C12   Br40  S    
O10   Zn14  S    
C4    C23   S    
C152  H56   S    
O22   Zn14  S    
C82   C91   S    
O45   Zn9   S    
C89   O5    A    
C12   C40   S    
C172  O88   D    
C35   Br3   S    
C66   C82   S    
C119  O47   A    
O39   Zn7   S    
C158  H62   S    
C117  O37   A    
O3    Zn7   S    
C142  O58   D    
O35   Zn11  S    
O3    Zn3   S    
C171  H75   S    
C135  Br35  S    
O1    Zn9   S    
C44   C50   S    
C175  O91   D    
C2    O14   A    
C7    C123  S    
C114  O10   A    
C22   C58   T    
C102  C166  S    
C173  H77   S    
C10   C38   S    
C9    C15   S    
O47   Zn11  S    
C76   C96   S    
C148  O64   D    
C11   C13   S    
C98   C158  S    
C162  H66   S    
C15   C49   S    
C101  C165  S    
C3    O15   A    
C85   C153  S    
C159  H63   S    
C43   C139  S    
O4    Zn8   S    
C73   C77   S    
C33   Br1   S    
O4    Zn12  S    
C10   C16   S    
C101  C109  S    
C41   C51   S    
C37   C57   S    
C97   C157  S    
C170  H74   S    
C39   C51   S    
C67   C83   S    
C40   C60   S    
C79   C115  S    
C118  O46   A    
C26   Br6   S    
C69   C77   S    
C163  H67   S    
C6    C130  S    
C71   C79   S    
C168  H72   S    
O31   Zn7   S    
C27   C33   S    
C23   C59   T    
C30   C54   S    
C42   C138  S    
C31   C43   S    
C95   H23   S    
C64   C68   S    
O19   Zn11  S    
C17   C45   S    
O2    Zn2   S    
C107  C163  S    
C19   C47   S    
C11   C25   S    
C175  H79   S    
C97   C109  S    
C166  H70   S    
C74   H18   S    
C111  C119  S    
C133  H33   S    
O48   Zn12  S    
O34   Zn10  S    
C81   C92   S    
C8    C128  S    
C10   Br38  S    
C61   C77   S    
C149  O65   D    
C52   C176  S    
C107  C108  S    
O13   Zn5   S    
O24   Zn16  S    
O25   Zn1   S    
C108  H32   S    
C99   C111  S    
C1    C22   S    
C120  O48   A    
C38   C58   S    
C145  H49   S    
C64   H12   S    
C157  O73   D    
C3    C24   S    
C62   H6    S    
C63   H11   S    
C150  O66   D    
C46   O18   A    
C89   O29   A    
C62   C66   S    
C146  H50   S    
C92   O8    A    
C88   C156  S    
O2    Zn6   S    
O50   Zn2   S    
C12   C26   S    
C155  O71   D    
C154  O70   D    
C11   C39   S    
C14   C170  S    
C61   C65   S    
C115  O11   A    
C86   C154  S    
C113  O9    A    
O18   Zn10  S    
C141  O57   D    
C108  C164  S    
C99   H27   S    
C61   H5    S    
C26   C30   S    
C51   C175  S    
C151  O67   D    
C50   C174  S    
C166  O82   D    
O7    Zn3   S    
C69   C85   S    
C129  C130  S    
C159  O75   D    
C105  C109  S    
C42   C52   S    
C95   Br23  S    
C29   C41   S    
C107  C111  S    
C62   C78   S    
C1    O21   A    
C76   C80   S    
C28   Br8   S    
C91   O31   A    
C75   H19   S    
C15   C31   S    
C16   C32   S    
C21   C57   T    
C48   O28   A    
C160  O76   D    
C115  O35   A    
O30   Zn6   S    
C69   C149  S    
C72   Br12  S    
C113  O33   A    
C72   C80   S    
C72   C152  S    
C75   C79   S    
C106  H30   S    
C116  O12   A    
C102  Br26  S    
C144  O60   D    
C36   Br4   S    
C35   C41   S    
O3    Zn15  S    
C169  O85   D    
C127  Br19  S    
C4    O24   A    
C164  H68   S    
C134  H34   S    
C5    C125  S    
C147  H51   S    
C63   H7    S    
C156  O72   D    
C96   Br24  S    
C7    C127  S    
C81   C85   S    
C1    O13   A    
C83   C87   S    
C101  C102  S    
C98   C110  S    
C91   O7    A    
C8    C136  S    
C74   C94   S    
C170  O86   D    
O51   Zn3   S    
C65   C141  S    
C70   C150  S    
O23   Zn15  S    
C135  C136  S    
O38   Zn6   S    
C119  O39   A    
C165  O81   D    
O21   Zn13  S    
C104  C168  S    
C13   C29   S    
C16   C50   S    
C176  H80   S    
O20   Zn12  S    
C77   C113  S    
C147  O63   D    
C76   H16   S    
C152  O68   D    
C122  O50   A    
C34   Br2   S    
C103  C111  S    
C132  H40   S    
C153  O69   D    
C61   H9    S    
O3    Zn11  S    
C90   O30   A    
O4    Zn4   S    
C136  H36   S    
C99   C159  S    
O16   Zn8   S    
C135  H35   S    
C161  O77   D    
C7    C131  S    
C20   C56   T    
C67   C143  S    
C5    C129  S    
C28   C34   S    
C94   H22   S    
C2    O22   A    
C64   C80   S    
C78   C114  S    
C123  O43   A    
C18   C46   S    
C97   C98   S    
C45   O17   A    
C68   C84   S    
C174  H78   S    
C6    C126  S    
O11   Zn15  S    
C8    C124  S    
O9    Zn13  S    
C125  H1    S    
C82   C86   S    
C76   H20   S    
C33   C37   S    
C108  C112  S    
C101  Br25  S    
C9    Br37  S    
C87   C155  S    
C109  C117  S    
C5    C133  S    
C140  H44   S    
C25   Br5   S    
C65   C81   S    
C27   Br7   S    
C2    C21   S    
C162  O78   D    
C139  H43   S    
C47   O27   A    
C118  O38   A    
C126  Br18  S    
C20   C48   S    
C25   C35   S    
C71   C87   S    
C26   C36   S    
C100  C112  S    
C137  O53   D    
C65   C145  S    
C133  C134  S    
O40   Zn8   S    
C102  C110  S    
C131  C132  S    
C17   C53   T    
O2    Zn10  S    
C66   C142  S    
C138  H42   S    
C9    C27   S    
C112  C120  S    
C100  C160  S    
C41   C137  S    
C133  Br33  S    
C168  O84   D    
C163  O79   D    
C129  Br29  S    
C121  O41   A    
C105  C106  S    
C86   Br14  S    
C172  H76   S    
C116  O36   A    
C15   C171  S    
O27   Zn3   S    
C131  H39   S    
C105  H29   S    
C128  H4    S    
O41   Zn13  S    
C46   O26   A    
C68   C144  S    
C142  H46   S    
C149  H53   S    
C74   C78   S    
C103  C104  S    
C30   C42   S    
C31   C55   S    
C125  Br17  S    
C32   C56   S    
C97   H25   S    
O2    Zn14  S    
C151  H55   S    
O28   Zn4   S    
C70   C78   S    
C157  H61   S    
C117  O45   A    
C167  H71   S    
C63   C79   S    
O44   Zn16  S    
C93   Br21  S    
C146  O62   D    
O1    Zn1   S    
C148  H52   S    
C139  O55   D    
C5    C121  S    
C37   C49   S    
O52   Zn4   S    
C84   C96   S    
C104  C112  S    
C90   O6    A    
O5    Zn1   S    
C8    C132  S    
C3    O23   A    
C66   C146  S    
O14   Zn6   S    
C141  H45   S    
O26   Zn2   S    
O42   Zn14  S    
C39   C59   S    
C48   O20   A    
C127  H3    S    
C14   C30   S    
C124  O52   A    
O6    Zn2   S    
C176  O92   D    
O4    Zn16  S    
C85   Br13  S    
C63   C67   S    
C33   C43   S    
C103  Br27  S    
C36   C40   S    
C34   C44   S    
O8    Zn4   S    
C100  H28   S    
C75   H15   S    
C43   C49   S    
O1    Zn5   S    
C64   H8    S    
C40   C52   S    
O46   Zn10  S    
C87   Br15  S    
C88   Br16  S    
C171  O87   D    
C7    C135  S    
C92   O32   A    
C49   C173  S    
C81   C93   S    
C106  C162  S    
C99   C100  S    
C24   C60   T    
C83   C95   S    
C9    C37   S    
C32   C44   S    
O43   Zn15  S    
O36   Zn12  S    
C93   H21   S    
O17   Zn9   S    
C169  H73   S    
C45   O25   A    
C96   H24   S    
C12   C14   S    
C164  O80   D    
C145  O61   D    
C62   H10   S    
C68   C148  S    
C84   C89   S    
C6    C122  S    
C73   H17   S    
C70   C86   S    
C71   C151  S    
C150  H54   S    
C104  Br28  S    
O33   Zn9   S    
C103  C167  S    
C106  C110  S    
C143  O59   D    
C83   C90   S    
C126  H2    S    
C122  O42   A    
C34   C38   S    
C38   C50   S    
C19   C55   T    
C120  O40   A    
C16   C172  S    
C165  H69   S    
C154  H58   S    
C114  O34   A    
O29   Zn5   S    
C161  H65   S    
C6    C134  S    
C44   C140  S    
C125  C126  S    
C29   C53   S    
C69   Br9   S    
C105  C161  S    
C167  O83   D    
C153  H57   S    
O12   Zn16  S    
C18   C54   T    
C158  O74   D    
C136  Br36  S    
O49   Zn1   S    
C160  H64   S    
C131  Br31  S    
C74   H14   S    
O1    Zn13  S    
C127  C128  S    
