data_mof_unit_63375.cif
_audit_creation_date              2012-12-10T16:35:06-0500
_audit_creation_method            fapswitch 2.2
_symmetry_space_group_name_H-M    P1
_symmetry_Int_Tables_number       1
_space_group_crystal_system       triclinic
_cell_length_a                    10.828819
_cell_length_b                    10.851607
_cell_length_c                    10.89276
_cell_angle_alpha                 80.409456
_cell_angle_beta                  98.124836
_cell_angle_gamma                 90.287428
_cell_volume                      1249.22551605

loop_
_atom_site_label
_atom_site_type_symbol
_atom_type_description
_atom_site_fract_x
_atom_site_fract_y
_atom_site_fract_z
_atom_type_partial_charge
C1    C     C_R   0.834852 0.471379 0.528498 0.486180
C2    C     C_2   0.469168 0.026963 0.537404 0.226667
C3    C     C_2   0.530841 0.968800 0.465009 -0.030692
C4    C     C_2   0.029072 0.537901 0.461856 -0.111323
C5    C     C_3   0.665173 0.283123 0.008575 -0.009172
C6    C     C_3   0.715655 0.173883 0.109436 -0.345691
C7    C     C_2   0.968066 0.460295 0.539327 -0.096795
C8    C     C_2   0.477837 0.544714 0.023109 0.235310
C9    C     C_2   0.530232 0.454982 0.974039 0.301310
C10   C     C_R   0.163824 0.527407 0.472531 0.522585
C11   C     C_R   0.523198 0.471345 0.838607 0.554136
C12   C     C_R   0.477567 0.528504 0.159887 0.516725
C13   C     C_R   0.524971 0.835181 0.474032 0.557067
C14   C     C_R   0.476562 0.163511 0.524659 0.489277
H1    H     H_    0.583789 0.019360 0.395726 0.063324
H2    H     H_    0.746658 0.207381 0.199613 0.175126
H3    H     H_    0.979129 0.609369 0.390440 0.107159
H4    H     H_    0.015650 0.388190 0.611487 0.126332
H5    H     H_    0.362837 0.014035 0.669164 0.347025
H6    H     H_    0.398425 0.709839 0.995414 0.345060
H7    H     H_    0.741834 0.350970 0.995565 0.123934
H8    H     H_    0.635518 0.246739 0.919531 0.134702
H9    H     H_    0.641995 0.103437 0.123648 0.163660
H10   H     H_    0.796300 0.129192 0.080239 0.101580
O1    O     O_3   0.500000 0.500000 0.500000 -0.455153
O2    O     O_R   0.597340 0.765700 0.560080 -0.510583
O3    O     O_R   0.548200 0.222430 0.451790 -0.555706
O4    O     O_R   0.441590 0.789440 0.401000 -0.530470
O5    O     O_R   0.412860 0.222430 0.587130 -0.553059
O6    O     O_3   0.400636 0.957373 0.621790 -0.679324
O7    O     O_3   0.428457 0.652011 0.944216 -0.711243
O8    O     O_3   0.562491 0.338358 0.047232 -0.565360
O9    O     O_R   0.441590 0.410520 0.779910 -0.535618
O10   O     O_R   0.548210 0.443940 0.230290 -0.497769
O11   O     O_R   0.787780 0.544200 0.591150 -0.539227
O12   O     O_R   0.222430 0.601350 0.398650 -0.525049
O13   O     O_R   0.767360 0.410530 0.454140 -0.541459
O14   O     O_R   0.222430 0.443930 0.556060 -0.535309
O15   O     O_R   0.597340 0.544190 0.781580 -0.534116
O16   O     O_R   0.412870 0.601350 0.208220 -0.564566
Zn1   Zn    Zn3+2 0.396020 0.396030 0.603970 0.963198
Zn2   Zn    Zn3+2 0.618560 0.587010 0.606350 0.974057
Zn3   Zn    Zn3+2 0.396030 0.620930 0.379070 0.969575
Zn4   Zn    Zn3+2 0.589390 0.396030 0.410610 0.943697

loop_
_geom_bond_atom_site_label_1
_geom_bond_atom_site_label_2
_ccdc_geom_bond_type
O1    Zn2   S    
C12   O16   A    
C13   O4    A    
C10   O14   A    
C1    O13   A    
C14   O3    A    
O4    Zn3   S    
C3    C13   S    
C2    O6    S    
C8    C12   S    
C5    O8    S    
O9    Zn1   S    
C7    H4    S    
O13   Zn4   S    
C2    C3    D    
C6    H10   S    
C11   O15   A    
C9    C11   S    
O1    Zn3   S    
H5    O6    S    
C4    C7    D    
C6    H9    S    
O1    Zn4   S    
O15   Zn2   S    
C5    C6    S    
C2    C14   S    
C13   O2    A    
C4    H3    S    
C14   O5    A    
C6    H2    S    
C11   O9    A    
O10   Zn4   S    
O2    Zn2   S    
O14   Zn1   S    
O1    Zn1   S    
O11   Zn2   S    
C1    O11   A    
C3    H1    S    
C10   O12   A    
C9    O8    S    
O5    Zn1   S    
C1    C7    S    
C8    O7    S    
C12   O10   A    
O3    Zn4   S    
H6    O7    S    
O16   Zn3   S    
C5    H8    S    
C4    C10   S    
C8    C9    D    
O12   Zn3   S    
C5    H7    S    
