data_mof_unit_9484.cif
_audit_creation_date              2012-12-10T20:34:55-0500
_audit_creation_method            fapswitch 2.2
_symmetry_space_group_name_H-M    P1
_symmetry_Int_Tables_number       1
_space_group_crystal_system       triclinic
_cell_length_a                    10.687561
_cell_length_b                    10.666135
_cell_length_c                    9.858192
_cell_angle_alpha                 89.535484
_cell_angle_beta                  90.127358
_cell_angle_gamma                 89.800232
_cell_volume                      1123.73767585

loop_
_atom_site_label
_atom_site_type_symbol
_atom_type_description
_atom_site_fract_x
_atom_site_fract_y
_atom_site_fract_z
_atom_type_partial_charge
C1    C     C_R   0.504559 0.259765 0.500357 0.885718
C2    C     C_R   0.533180 0.934318 0.622184 0.136657
C3    C     C_3   0.449401 0.924967 0.742931 -0.472259
C4    C     C_R   0.257515 0.505517 0.499546 0.847513
C5    C     C_3   0.448907 0.066881 0.743980 -0.502509
C6    C     C_R   0.393067 0.474390 0.071356 0.181902
C7    C     C_R   0.602483 0.536874 0.071861 -0.088563
C8    C     C_R   0.602586 0.536625 0.927907 -0.134525
C9    C     C_R   0.392695 0.475337 0.928797 0.215887
C10   C     C_3   0.318436 0.357551 0.924444 -0.505615
C11   C     C_3   0.319752 0.356215 0.078155 -0.483904
C12   C     C_3   0.878196 0.497596 0.498992 0.067963
C13   C     C_R   0.506459 0.739827 0.499597 0.852531
C14   C     C_R   0.742148 0.496162 0.500107 0.872636
C15   C     C_3   0.071187 0.497076 0.645663 -0.450274
C16   C     C_3   0.928988 0.499588 0.646716 -0.477698
C17   C     C_3   0.065133 0.629914 0.431043 -0.057791
C18   C     C_3   0.075144 0.388370 0.421289 -0.409820
C19   C     C_3   0.120599 0.506455 0.497545 0.082437
C20   C     C_3   0.118084 0.669730 0.289206 -0.391160
C21   C     C_3   0.208909 0.780356 0.300364 -0.350106
C22   C     C_3   0.275136 0.806873 0.166214 -0.833713
C23   C     C_3   0.921137 0.618292 0.425177 -0.401134
C24   C     C_3   0.931803 0.379274 0.426487 0.236572
C25   C     C_R   0.532614 0.062226 0.622878 0.139348
C26   C     C_R   0.527133 0.128288 0.500641 -0.113449
C27   C     C_R   0.548572 0.065532 0.378069 -0.201398
C28   C     C_R   0.549759 0.935815 0.377600 -0.239968
C29   C     C_R   0.528970 0.870839 0.499552 -0.109833
Cl1   Cl    Cl    0.873068 0.354649 0.257458 -0.672170
H1    H     H_    0.107084 0.575766 0.708188 0.187122
H2    H     H_    0.103482 0.407695 0.693091 0.188611
H3    H     H_    0.686087 0.564272 0.873838 0.150819
H4    H     H_    0.223475 0.372851 0.881979 0.197449
H5    H     H_    0.371363 0.279108 0.879399 0.212854
H6    H     H_    0.225493 0.370858 0.122053 0.202551
H7    H     H_    0.373910 0.276680 0.122700 0.215414
H8    H     H_    0.894176 0.417087 0.705309 0.194207
H9    H     H_    0.896400 0.585680 0.699496 0.196839
H10   H     H_    0.085128 0.707350 0.503225 0.138218
H11   H     H_    0.877972 0.702201 0.473110 0.137666
H12   H     H_    0.885664 0.616209 0.319137 0.205841
H13   H     H_    0.108006 0.391442 0.314857 0.206489
H14   H     H_    0.116653 0.302298 0.468002 0.131646
H15   H     H_    0.905627 0.294533 0.486557 0.102649
H16   H     H_    0.335667 0.726415 0.138380 0.260638
H17   H     H_    0.205672 0.824231 0.084098 0.249257
H18   H     H_    0.334630 0.891401 0.176405 0.244780
H19   H     H_    0.156041 0.865628 0.330557 0.211591
H20   H     H_    0.279090 0.760937 0.380259 0.228782
H21   H     H_    0.162167 0.589825 0.236346 0.232455
H22   H     H_    0.042364 0.702247 0.219813 0.200043
H23   H     H_    0.555053 0.115373 0.282162 0.183561
H24   H     H_    0.557146 0.887632 0.281625 0.173913
H25   H     H_    0.356503 0.884023 0.718575 0.197511
H26   H     H_    0.497720 0.882543 0.832233 0.206276
H27   H     H_    0.355559 0.108218 0.720537 0.198235
H28   H     H_    0.497651 0.105759 0.833937 0.208066
H29   H     H_    0.685848 0.564925 0.125837 0.172258
N1    N     N_R   0.499150 0.499140 0.142800 -0.107593
N2    N     N_R   0.499150 0.499180 0.857150 -0.107643
O1    O     O_R   0.500020 0.316790 0.614690 -0.615145
O2    O     O_R   0.500000 0.316760 0.385350 -0.607294
O3    O     O_R   0.314800 0.500000 0.614670 -0.627194
O4    O     O_R   0.314790 0.499960 0.385330 -0.623720
O5    O     O_R   0.500000 0.683240 0.614650 -0.617831
O6    O     O_R   0.499980 0.683210 0.385310 -0.626779
O7    O     O_R   0.685210 0.500040 0.614670 -0.642972
O8    O     O_R   0.685200 0.500000 0.385330 -0.577528
Zn1   Zn    Zn3+2 0.500010 0.500020 0.653130 0.934729
Zn2   Zn    Zn3+2 0.499990 0.499980 0.346870 0.959955

loop_
_geom_bond_atom_site_label_1
_geom_bond_atom_site_label_2
_ccdc_geom_bond_type
N2    Zn1   S    
C22   H18   S    
C27   H23   S    
C11   H7    S    
C15   H1    S    
C10   H5    S    
C9    N2    A    
O3    Zn1   S    
C2    C25   A    
C9    C10   S    
C4    O3    A    
C23   H11   S    
C5    H27   S    
C8    N2    A    
C8    H3    S    
C1    O1    A    
C6    C9    A    
C21   H19   S    
C22   H17   S    
C18   H13   S    
C7    C8    A    
C20   H22   S    
C17   C23   S    
C21   C22   S    
C15   C19   S    
C12   C23   S    
C26   C27   A    
O5    Zn1   S    
C23   H12   S    
C5    H28   S    
C2    C29   A    
C18   C24   S    
C24   H15   S    
C1    O2    A    
C7    H29   S    
C21   H20   S    
C22   H16   S    
C12   C14   S    
C7    N1    A    
C2    C3    S    
C20   H21   S    
O6    Zn2   S    
C13   O5    A    
C6    C11   S    
C13   O6    A    
C4    O4    A    
C14   O8    A    
C5    C25   S    
C1    C26   S    
C24   Cl1   S    
C10   C11   S    
C16   H9    S    
C15   C16   S    
C6    N1    A    
C18   H14   S    
C15   H2    S    
C17   C20   S    
C20   C21   S    
O1    Zn1   S    
C10   H4    S    
C18   C19   S    
C3    H26   S    
C13   C29   S    
C27   C28   A    
O8    Zn2   S    
O7    Zn1   S    
C28   H24   S    
C28   C29   A    
C14   O7    A    
C12   C16   S    
N1    Zn2   S    
C17   C19   S    
C25   C26   A    
O4    Zn2   S    
C4    C19   S    
C3    H25   S    
O2    Zn2   S    
C12   C24   S    
C16   H8    S    
C3    C5    S    
C17   H10   S    
C11   H6    S    
