data_mof_unit_18634.cif
_audit_creation_date              2012-12-10T17:51:32-0500
_audit_creation_method            fapswitch 2.2
_symmetry_space_group_name_H-M    P1
_symmetry_Int_Tables_number       1
_space_group_crystal_system       triclinic
_cell_length_a                    9.906868
_cell_length_b                    10.645483
_cell_length_c                    16.60065
_cell_angle_alpha                 91.351981
_cell_angle_beta                  86.132255
_cell_angle_gamma                 89.665492
_cell_volume                      1746.23866923

loop_
_atom_site_label
_atom_site_type_symbol
_atom_type_description
_atom_site_fract_x
_atom_site_fract_y
_atom_site_fract_z
_atom_type_partial_charge
C1    C     C_R   0.499874 0.739477 0.497917 0.859698
C2    C     C_R   0.526765 0.468362 0.258428 -0.112104
C3    C     C_R   0.375005 0.865971 0.368176 -0.231184
C4    C     C_R   0.482540 0.492298 0.653108 0.838415
C5    C     C_R   0.313002 0.929169 0.307882 -0.162202
C6    C     C_R   0.314132 0.060399 0.306658 0.243432
C7    C     C_R   0.377856 0.127369 0.366866 -0.236782
C8    C     C_R   0.437710 0.064123 0.429757 0.062403
C9    C     C_R   0.436399 0.932614 0.430319 0.104057
C10   C     C_R   0.500292 0.871801 0.492344 -0.083889
C11   C     C_R   0.568393 0.937577 0.550373 -0.217963
C12   C     C_R   0.354225 0.448510 0.783384 -0.200999
C13   C     C_R   0.569335 0.065900 0.550036 -0.200461
C14   C     C_R   0.502343 0.128239 0.491588 -0.088736
C15   C     C_R   0.847058 0.664652 0.605501 -0.154912
C16   C     C_R   0.500665 0.260578 0.497601 0.874943
C17   C     C_R   0.910956 0.746318 0.657049 -0.198866
C18   C     C_R   0.050640 0.746665 0.656818 -0.195797
C19   C     C_R   0.127233 0.665320 0.605057 -0.155849
C20   C     C_R   0.065999 0.581489 0.551741 0.169725
C21   C     C_R   0.921360 0.581272 0.551860 0.167976
C22   C     C_R   0.934584 0.422097 0.450451 -0.112887
C23   C     C_R   0.428448 0.430525 0.130322 -0.131245
C24   C     C_R   0.077714 0.421930 0.450596 -0.122933
C25   C     C_R   0.517416 0.496725 0.345951 0.830235
C26   C     C_R   0.476003 0.446124 0.735255 -0.026453
C27   C     C_R   0.589009 0.382320 0.761440 -0.207943
C28   C     C_R   0.581891 0.325145 0.835600 -0.166274
C29   C     C_R   0.462793 0.333976 0.885838 0.207537
C30   C     C_R   0.347866 0.392781 0.858613 -0.173112
C31   C     C_3   0.246747 0.128744 0.241519 -0.445503
C32   C     C_3   0.323117 0.107665 0.159385 -0.841799
C33   C     C_3   0.279629 0.537217 0.242696 -0.373459
C34   C     C_R   0.413795 0.478017 0.209911 0.136350
C35   C     C_3   0.178674 0.570444 0.180494 -0.942927
C36   C     C_R   0.649842 0.417460 0.224522 -0.211723
C37   C     C_R   0.661292 0.371675 0.145535 -0.189338
C38   C     C_R   0.550028 0.374955 0.098812 0.138458
C39   C     C_2   0.462398 0.302816 0.971138 -0.248909
C40   C     C_2   0.567653 0.336474 0.013426 -0.217249
H1    H     H_    0.682719 0.374333 0.724027 0.162275
H2    H     H_    0.851507 0.809581 0.697527 0.144053
H3    H     H_    0.100151 0.810188 0.697128 0.148391
H4    H     H_    0.233745 0.670969 0.608827 0.203131
H5    H     H_    0.136462 0.357837 0.410431 0.133087
H6    H     H_    0.737365 0.409298 0.259848 0.164243
H7    H     H_    0.665070 0.357293 0.982888 0.151991
H8    H     H_    0.255251 0.400598 0.897083 0.121992
H9    H     H_    0.346203 0.439195 0.091501 0.146933
H10   H     H_    0.264949 0.494255 0.763243 0.151742
H11   H     H_    0.365519 0.281761 0.002110 0.141520
H12   H     H_    0.757132 0.332803 0.120949 0.134087
H13   H     H_    0.670636 0.277117 0.854515 0.126936
H14   H     H_    0.429043 0.140608 0.161451 0.274168
H15   H     H_    0.323643 0.006587 0.141203 0.252583
H16   H     H_    0.272369 0.161326 0.113404 0.239124
H17   H     H_    0.141063 0.095268 0.238745 0.203765
H18   H     H_    0.241724 0.231462 0.255242 0.202470
H19   H     H_    0.226948 0.630951 0.133299 0.265679
H20   H     H_    0.138134 0.483912 0.152575 0.255332
H21   H     H_    0.091981 0.623169 0.211173 0.261476
H22   H     H_    0.228090 0.472471 0.286042 0.218962
H23   H     H_    0.618180 0.889370 0.597128 0.139524
H24   H     H_    0.301394 0.626227 0.274817 0.211285
H25   H     H_    0.375681 0.764853 0.365128 0.156471
H26   H     H_    0.264943 0.875502 0.261658 0.146345
H27   H     H_    0.381784 0.228537 0.363100 0.145105
H28   H     H_    0.619439 0.117013 0.596684 0.152599
H29   H     H_    0.885785 0.358445 0.409981 0.141732
H30   H     H_    0.739627 0.669712 0.609720 0.199065
N1    N     N_R   0.857140 0.501200 0.500750 -0.120208
N2    N     N_R   0.142740 0.501280 0.500770 -0.118221
O1    O     O_R   0.385310 0.683220 0.500000 -0.637012
O2    O     O_R   0.614640 0.683250 0.500010 -0.623300
O3    O     O_R   0.371780 0.500010 0.615800 -0.627911
O4    O     O_R   0.601110 0.500030 0.615800 -0.639590
O5    O     O_R   0.385360 0.316750 0.499990 -0.611748
O6    O     O_R   0.614690 0.316780 0.500000 -0.614244
O7    O     O_R   0.398890 0.499970 0.384200 -0.639857
O8    O     O_R   0.628220 0.499990 0.384200 -0.603104
Zn1   Zn    Zn3+2 0.346870 0.499980 0.499990 0.923434
Zn2   Zn    Zn3+2 0.653130 0.500020 0.500010 0.933957

loop_
_geom_bond_atom_site_label_1
_geom_bond_atom_site_label_2
_ccdc_geom_bond_type
C40   H7    S    
C39   H11   S    
C25   O8    A    
C19   C20   A    
C7    C8    A    
C26   C27   A    
C29   C30   A    
C21   N1    A    
C1    O2    A    
C31   H18   S    
C30   H8    S    
C36   C37   A    
C18   C19   A    
C11   H23   S    
C5    C6    A    
C23   H9    S    
C35   H19   S    
C16   O5    A    
O1    Zn1   S    
O6    Zn2   S    
C17   H2    S    
C4    O3    A    
C8    C9    A    
C36   H6    S    
C14   C16   S    
C9    C10   A    
C22   H29   S    
N2    Zn1   S    
N1    Zn2   S    
C2    C34   A    
C6    C31   S    
C13   C14   A    
C3    H25   S    
O2    Zn2   S    
C32   H14   S    
C33   C34   S    
O8    Zn2   S    
O4    Zn2   S    
C39   C40   D    
O7    Zn1   S    
C37   H12   S    
O3    Zn1   S    
C33   H22   S    
C12   C26   A    
C35   H20   S    
C37   C38   A    
C3    C9    A    
C27   H1    S    
C12   H10   S    
C31   C32   S    
O5    Zn1   S    
C23   C34   A    
C29   C39   S    
C17   C18   A    
C35   H21   S    
C22   C24   A    
C24   H5    S    
C22   N1    A    
C19   H4    S    
C24   N2    A    
C2    C36   A    
C15   C17   A    
C15   H30   S    
C28   C29   A    
C8    C14   A    
C32   H15   S    
C12   C30   A    
C25   O7    A    
C1    C10   S    
C5    H26   S    
C3    C5    A    
C4    C26   S    
C28   H13   S    
C6    C7    A    
C23   C38   A    
C1    O1    A    
C31   H17   S    
C18   H3    S    
C38   C40   S    
C11   C13   A    
C33   H24   S    
C33   C35   S    
C2    C25   S    
C16   O6    A    
C4    O4    A    
C10   C11   A    
C7    H27   S    
C15   C21   A    
C20   C21   A    
C27   C28   A    
C20   N2    A    
C32   H16   S    
C13   H28   S    
