data_mof_unit_22213.cif
_audit_creation_date              2012-12-10T17:31:59-0500
_audit_creation_method            fapswitch 2.2
_symmetry_space_group_name_H-M    P1
_symmetry_Int_Tables_number       1
_space_group_crystal_system       triclinic
_cell_length_a                    12.009856
_cell_length_b                    11.543012
_cell_length_c                    12.858281
_cell_angle_alpha                 90.279214
_cell_angle_beta                  92.591042
_cell_angle_gamma                 86.282789
_cell_volume                      1776.97030803

loop_
_atom_site_label
_atom_site_type_symbol
_atom_type_description
_atom_site_fract_x
_atom_site_fract_y
_atom_site_fract_z
_atom_type_partial_charge
C1    C     C_R   0.479025 0.504857 0.300305 0.970631
C2    C     C_R   0.975134 0.537869 0.536550 -0.160260
C3    C     C_R   0.499811 0.281882 0.499854 0.914504
C4    C     C_R   0.500161 0.718116 0.500073 0.912258
C5    C     C_1   0.499508 0.161483 0.499838 -0.162635
C6    C     C_1   0.500341 0.838507 0.500004 -0.181060
C7    C     C_1   0.499632 0.059320 0.499870 0.007066
C8    C     C_1   0.500055 0.940673 0.499945 -0.001252
C9    C     C_R   0.531415 0.507777 0.810108 -0.222124
C10   C     C_R   0.468933 0.495920 0.190303 -0.215992
C11   C     C_R   0.430204 0.370990 0.044131 0.585564
C12   C     C_R   0.521034 0.497563 0.699879 0.973294
C13   C     C_R   0.576008 0.631156 0.956032 0.604472
C14   C     C_R   0.425485 0.396021 0.149855 -0.421424
C15   C     C_R   0.582096 0.603598 0.850707 -0.414216
C16   C     C_R   0.523558 0.572470 0.129668 0.495510
C17   C     C_R   0.471565 0.436804 0.871217 0.510491
C18   C     C_R   0.525145 0.553465 0.021796 -0.196033
C19   C     C_R   0.476067 0.452548 0.979175 -0.195882
C20   C     C_3   0.294660 0.393843 0.818009 -0.216159
C21   C     C_3   0.685191 0.651273 0.191956 -0.192808
C22   C     C_3   0.312957 0.216839 0.049988 -0.279559
C23   C     C_R   0.043912 0.605586 0.600483 0.375634
C24   C     C_3   0.709673 0.768805 0.956152 -0.314342
C25   C     C_3   0.782741 0.343248 0.245935 -0.219790
C26   C     C_3   0.212618 0.784027 0.617478 -0.223784
C27   C     C_3   0.002443 0.622843 0.770215 -0.336551
C28   C     C_3   0.016698 0.197585 0.393355 -0.331557
C29   C     C_R   0.956590 0.386981 0.405866 0.370050
C30   C     C_R   0.160860 0.599490 0.587121 0.517812
C31   C     C_R   0.838357 0.402072 0.411228 0.532975
C32   C     C_R   0.142771 0.451447 0.459704 -0.123917
C33   C     C_R   0.857500 0.545976 0.542481 -0.126663
C34   C     C_R   0.025081 0.458643 0.466286 -0.159297
H1    H     H_    0.617432 0.662320 0.797651 0.173255
H2    H     H_    0.725290 0.592491 0.133514 0.109536
H3    H     H_    0.245269 0.284678 0.064988 0.137413
H4    H     H_    0.340309 0.169418 0.122612 0.171836
H5    H     H_    0.277167 0.153044 0.995290 0.197192
H6    H     H_    0.696940 0.811988 0.879178 0.179487
H7    H     H_    0.771670 0.692910 0.952447 0.128901
H8    H     H_    0.745692 0.832689 0.010602 0.189915
H9    H     H_    0.836321 0.268202 0.218788 0.201527
H10   H     H_    0.818384 0.425786 0.223390 0.108534
H11   H     H_    0.700170 0.340005 0.204079 0.174916
H12   H     H_    0.395075 0.334109 0.203057 0.171460
H13   H     H_    0.137396 0.825531 0.652783 0.195594
H14   H     H_    0.206626 0.795091 0.531256 0.138571
H15   H     H_    0.285143 0.831158 0.647289 0.179715
H16   H     H_    0.090458 0.603271 0.798744 0.177823
H17   H     H_    0.956784 0.541875 0.766219 0.155647
H18   H     H_    0.961604 0.681088 0.828027 0.187469
H19   H     H_    0.934254 0.166818 0.412877 0.193356
H20   H     H_    0.071708 0.203175 0.465035 0.161228
H21   H     H_    0.056818 0.131729 0.341547 0.189870
H22   H     H_    0.817280 0.605705 0.596373 0.205293
H23   H     H_    0.183138 0.390793 0.406684 0.203898
H24   H     H_    0.248997 0.339739 0.761079 0.172903
H25   H     H_    0.281673 0.485604 0.791755 0.169928
H26   H     H_    0.256170 0.386080 0.894156 0.151244
H27   H     H_    0.707703 0.618496 0.271366 0.173720
H28   H     H_    0.722346 0.736391 0.186517 0.187237
N1    N     N_R   0.792200 0.479100 0.480660 -0.172094
N2    N     N_R   0.207800 0.520900 0.519340 -0.167880
O1    O     O_R   0.578300 0.494420 0.341180 -0.596706
O2    O     O_3   0.567746 0.669238 0.176526 -0.569355
O3    O     O_3   0.405410 0.262495 0.004035 -0.550167
O4    O     O_3   0.606429 0.738660 0.993509 -0.545987
O5    O     O_3   0.767690 0.333162 0.353867 -0.581806
O6    O     O_3   0.230071 0.666496 0.647595 -0.593925
O7    O     O_3   0.997060 0.680134 0.673359 -0.612381
O8    O     O_3   0.004475 0.304566 0.340278 -0.622813
O9    O     O_R   0.421700 0.505580 0.658820 -0.568056
O10   O     O_R   0.390690 0.507830 0.353590 -0.630318
O11   O     O_R   0.609310 0.492170 0.646410 -0.638916
O12   O     O_R   0.593810 0.327740 0.493800 -0.564798
O13   O     O_R   0.406190 0.672260 0.506200 -0.591907
O14   O     O_R   0.406190 0.341150 0.506220 -0.628224
O15   O     O_R   0.593810 0.658850 0.493780 -0.624770
O16   O     O_3   0.408639 0.353084 0.823439 -0.561850
Zn1   Zn    Zn3+2 0.625270 0.491050 0.491710 0.979436
Zn2   Zn    Zn3+2 0.374730 0.508950 0.508290 0.980092

loop_
_geom_bond_atom_site_label_1
_geom_bond_atom_site_label_2
_ccdc_geom_bond_type
C30   N2    A    
C21   O2    S    
C24   H8    S    
C25   H9    S    
C7    C8    S    
C14   H12   S    
C21   H2    S    
C11   C19   A    
C13   C18   A    
N1    Zn1   S    
C1    O10   A    
C11   C14   A    
C22   H4    S    
C18   C19   A    
C24   H6    S    
C11   O3    S    
C1    O1    A    
C20   H26   S    
C21   H27   S    
C27   H16   S    
C26   H14   S    
C29   O8    S    
C2    C34   A    
C33   H22   S    
C12   O9    A    
C24   H7    S    
C28   O8    S    
C32   H23   S    
O10   Zn2   S    
C25   H10   S    
C15   H1    S    
C30   O6    S    
C28   H21   S    
C27   H17   S    
C20   O16   S    
C23   C30   A    
C23   O7    S    
C32   N2    A    
C4    O15   A    
C4    C6    S    
C10   C14   A    
C26   H15   S    
C5    C7    T    
C28   H20   S    
O11   Zn1   S    
C6    C8    T    
C22   H3    S    
C29   C34   A    
C17   O16   S    
C32   C34   A    
C31   N1    A    
O14   Zn2   S    
O1    Zn1   S    
C33   N1    A    
C20   H25   S    
C3    O12   A    
N2    Zn2   S    
C21   H28   S    
C26   H13   S    
C2    C33   A    
C9    C17   A    
C13   C15   A    
C26   O6    S    
C25   O5    S    
C20   H24   S    
C25   H11   S    
O9    Zn2   S    
C27   O7    S    
C27   H18   S    
O15   Zn1   S    
C1    C10   S    
C3    C5    S    
O12   Zn1   S    
C28   H19   S    
C9    C15   A    
C4    O13   A    
C29   C31   A    
C10   C16   A    
O13   Zn2   S    
C22   H5    S    
C17   C19   A    
C9    C12   S    
C22   O3    S    
C24   O4    S    
C31   O5    S    
C16   O2    S    
C16   C18   A    
C12   O11   A    
C2    C23   A    
C3    O14   A    
C13   O4    S    
