data_mof_unit_68156.cif
_audit_creation_date              2012-12-11T16:25:28-0500
_audit_creation_method            fapswitch 2.2
_symmetry_space_group_name_H-M    P1
_symmetry_Int_Tables_number       1
_space_group_crystal_system       triclinic
_cell_length_a                    20.95027
_cell_length_b                    7.363899
_cell_length_c                    13.2429
_cell_angle_alpha                 90.000015
_cell_angle_beta                  104.410179
_cell_angle_gamma                 90.000019
_cell_volume                      1978.78060212

loop_
_atom_site_label
_atom_site_type_symbol
_atom_type_description
_atom_site_fract_x
_atom_site_fract_y
_atom_site_fract_z
_atom_type_partial_charge
O1    O     O_R   0.449520 0.506760 0.599710 -0.538767
O2    O     O_R   0.550480 0.006760 0.400290 -0.538767
O3    O     O_R   0.587930 0.180200 0.595790 -0.523120
O4    O     O_R   0.412070 0.680200 0.404210 -0.523120
C1    C     C_R   0.613340 0.345226 0.623854 0.802724
C2    C     C_R   0.386660 0.845226 0.376146 0.802724
O5    O     O_R   0.452350 0.177380 0.611700 -0.526366
O6    O     O_R   0.547650 0.677380 0.388300 -0.526366
O7    O     O_R   0.413930 0.001760 0.416320 -0.542303
O8    O     O_R   0.586070 0.501760 0.583680 -0.542302
C3    C     C_R   0.427259 0.344270 0.623419 0.749845
C4    C     C_R   0.572741 0.844270 0.376581 0.749846
O9    O     O_3   0.487550 0.337460 0.435880 -0.395886
O10   O     O_3   0.512450 0.837460 0.564120 -0.395886
V1    V     V_3+5 0.502310 0.064670 0.511900 1.442996
V2    V     V_3+5 0.497690 0.564670 0.488100 1.442996
C5    C     C_R   0.619830 0.969824 0.135838 0.060935
C6    C     C_R   0.380170 0.469824 0.864162 0.060936
H1    H     H_    0.694835 0.044830 0.008751 0.176270
H2    H     H_    0.305165 0.544830 0.991249 0.176270
C7    C     C_R   0.617768 0.859262 0.305391 -0.099954
C8    C     C_R   0.382232 0.359262 0.694609 -0.099954
C9    C     C_R   0.932438 0.830366 0.317225 -0.215280
C10   C     C_R   0.067562 0.330366 0.682775 -0.215280
C11   C     C_R   0.904509 0.851679 0.400740 -0.145936
C12   C     C_R   0.095491 0.351678 0.599260 -0.145936
C13   C     C_R   0.837710 0.896242 0.385509 0.347596
C14   C     C_R   0.162290 0.396241 0.614491 0.347596
C15   C     C_R   0.795915 0.903740 0.283174 0.031987
C16   C     C_R   0.204085 0.403740 0.716826 0.031987
C17   C     C_R   0.826159 0.897104 0.195845 -0.052689
C18   C     C_R   0.173841 0.397104 0.804155 -0.052689
C19   C     C_R   0.725143 0.919303 0.263816 0.055949
C20   C     C_R   0.274857 0.419303 0.736184 0.055949
C21   C     C_R   0.689470 0.972277 0.162530 -0.021217
C22   C     C_R   0.310530 0.472277 0.837470 -0.021217
C23   C     C_R   0.722240 0.997647 0.083871 -0.188299
C24   C     C_R   0.277760 0.497647 0.916129 -0.188299
C25   C     C_R   0.785658 0.929706 0.093485 0.110495
C26   C     C_R   0.214342 0.429706 0.906515 0.110494
C27   C     C_R   0.687182 0.879274 0.338344 -0.266328
C28   C     C_R   0.312818 0.379274 0.661656 -0.266328
C29   C     C_R   0.588318 0.873969 0.200766 0.318762
C30   C     C_R   0.411681 0.373969 0.799234 0.318762
C31   C     C_R   0.895772 0.861220 0.215422 -0.074008
C32   C     C_R   0.104228 0.361219 0.784578 -0.074008
H3    H     H_    0.709345 0.847049 0.418658 0.198473
H4    H     H_    0.290655 0.347049 0.581342 0.198473
H5    H     H_    0.984630 0.800162 0.332980 0.134647
H6    H     H_    0.015370 0.300161 0.667020 0.134647
H7    H     H_    0.935963 0.839484 0.478872 0.140227
H8    H     H_    0.064037 0.339484 0.521128 0.140227
C33   C     C_R   0.213350 0.865385 0.023828 0.307824
C34   C     C_R   0.786650 0.365385 0.976172 0.307825
C35   C     C_R   0.258166 0.922947 0.971492 -0.234132
C36   C     C_R   0.741834 0.422946 0.028508 -0.234132
C37   C     C_R   0.322827 0.951457 0.021117 0.094389
C38   C     C_R   0.677173 0.451457 0.978882 0.094389
C39   C     C_R   0.345218 0.917398 0.131222 0.059582
C40   C     C_R   0.654782 0.417398 0.868778 0.059583
C41   C     C_R   0.298836 0.876829 0.193177 -0.054705
C42   C     C_R   0.701164 0.376829 0.806822 -0.054705
C43   C     C_R   0.230532 0.863539 0.136211 0.008234
C44   C     C_R   0.769468 0.363538 0.863788 0.008234
C45   C     C_R   0.316018 0.853189 0.307226 -0.128493
C46   C     C_R   0.683982 0.353189 0.692774 -0.128493
C47   C     C_R   0.263368 0.846512 0.359589 0.013167
C48   C     C_R   0.736632 0.346512 0.640411 0.013167
C49   C     C_R   0.196649 0.880156 0.301954 -0.085843
C50   C     C_R   0.803351 0.380156 0.698045 -0.085843
C51   C     C_R   0.180019 0.864574 0.190496 -0.120923
C52   C     C_R   0.819981 0.364574 0.809504 -0.120923
C53   C     C_R   0.275463 0.816011 0.470126 0.320128
C54   C     C_R   0.724537 0.316012 0.529874 0.320128
C55   C     C_R   0.223959 0.828979 0.519455 -0.249528
C56   C     C_R   0.776041 0.328980 0.480544 -0.249528
C57   C     C_R   0.161582 0.886266 0.466243 0.337613
C58   C     C_R   0.838417 0.386266 0.533756 0.337613
C59   C     C_R   0.149244 0.929306 0.359648 0.051620
C60   C     C_R   0.850756 0.429306 0.640351 0.051620
H9    H     H_    0.241032 0.950887 0.888759 0.143390
H10   H     H_    0.758968 0.450887 0.111241 0.143390
H11   H     H_    0.233249 0.799817 0.602079 0.122967
H12   H     H_    0.766751 0.299818 0.397921 0.122967
O11   O     O_R   0.913760 0.203480 0.916370 -0.520055
O12   O     O_R   0.086240 0.703480 0.083630 -0.520055
O13   O     O_R   0.047590 0.535230 0.888250 -0.530461
O14   O     O_R   0.952410 0.035230 0.111750 -0.530461
C61   C     C_R   0.065337 0.368790 0.864244 0.643019
C62   C     C_R   0.934663 0.868790 0.135756 0.643019
O15   O     O_R   0.912020 0.532880 0.904260 -0.539704
O16   O     O_R   0.087980 0.032880 0.095740 -0.539704
O17   O     O_R   0.949590 0.708460 0.099750 -0.534642
O18   O     O_R   0.050410 0.208460 0.900250 -0.534642
C63   C     C_R   0.889711 0.365009 0.873468 0.778499
C64   C     C_R   0.110289 0.865009 0.126532 0.778499
O19   O     O_3   0.012370 0.375360 0.064120 -0.374125
O20   O     O_3   0.987630 0.875360 0.935880 -0.374125
V3    V     V_3+5 0.997700 0.648160 0.988110 1.433153
V4    V     V_3+5 0.002300 0.148160 0.011890 1.433153
O21   O     O_3   0.536325 0.760701 0.162009 -0.674985
H13   H     H_    0.527431 0.759515 0.085491 0.303014
O22   O     O_3   0.463675 0.260701 0.837991 -0.674985
H14   H     H_    0.472569 0.259515 0.914509 0.303014
O23   O     O_3   0.151206 0.821550 0.963737 -0.630226
H15   H     H_    0.149905 0.817520 0.888327 0.284467
O24   O     O_3   0.848794 0.321550 0.036263 -0.630226
H16   H     H_    0.850095 0.317520 0.111673 0.284467
C65   C     C_3   0.362129 0.043047 0.952455 -0.351057
C66   C     C_3   0.356217 0.955923 0.844322 -0.756247
H17   H     H_    0.326641 0.830147 0.832597 0.219341
H18   H     H_    0.331454 0.050221 0.781552 0.233278
H19   H     H_    0.405617 0.923881 0.832770 0.240948
H20   H     H_    0.339724 0.177371 0.937673 0.208894
H21   H     H_    0.414276 0.069166 0.989427 0.184848
C67   C     C_3   0.637871 0.543047 0.047545 -0.351057
C68   C     C_3   0.643783 0.455923 0.155678 -0.756247
H22   H     H_    0.673358 0.330147 0.167402 0.219341
H23   H     H_    0.668546 0.550221 0.218448 0.233278
H24   H     H_    0.594383 0.423881 0.167230 0.240948
H25   H     H_    0.660276 0.677371 0.062327 0.208894
H26   H     H_    0.585724 0.569166 0.010573 0.184848
C69   C     C_3   0.417301 0.938465 0.177832 -0.365484
C70   C     C_3   0.435782 0.131721 0.213904 -0.711351
H27   H     H_    0.475025 0.181529 0.179287 0.195597
H28   H     H_    0.392843 0.224223 0.200044 0.213916
H29   H     H_    0.457873 0.136122 0.296272 0.279202
H30   H     H_    0.438471 0.833918 0.235747 0.178103
H31   H     H_    0.441402 0.906552 0.116544 0.210985
C71   C     C_3   0.582699 0.438465 0.822168 -0.365484
C72   C     C_3   0.564217 0.631721 0.786096 -0.711352
H32   H     H_    0.524975 0.681528 0.820713 0.195597
H33   H     H_    0.607157 0.724223 0.799956 0.213916
H34   H     H_    0.542127 0.636122 0.703728 0.279203
H35   H     H_    0.561528 0.333917 0.764253 0.178103
H36   H     H_    0.558598 0.406552 0.883456 0.210985
O25   O     O_3   0.337042 0.767483 0.529960 -0.633276
H37   H     H_    0.337092 0.760788 0.604804 0.291195
O26   O     O_3   0.662958 0.267483 0.470040 -0.633275
H38   H     H_    0.662908 0.260789 0.395196 0.291195
C73   C     C_3   0.093728 0.064614 0.319279 -0.307297
C74   C     C_3   0.120899 0.248460 0.295162 -0.697330
H39   H     H_    0.165828 0.283092 0.356142 0.232102
H40   H     H_    0.135357 0.247939 0.220757 0.234682
H41   H     H_    0.083236 0.356167 0.291220 0.199447
H42   H     H_    0.055790 0.010136 0.253893 0.154044
H43   H     H_    0.065493 0.093456 0.378064 0.214168
C75   C     C_3   0.906272 0.564613 0.680721 -0.307298
C76   C     C_3   0.879101 0.748460 0.704838 -0.697329
H44   H     H_    0.834173 0.783093 0.643857 0.232101
H45   H     H_    0.864643 0.747938 0.779242 0.234682
H46   H     H_    0.916765 0.856166 0.708781 0.199448
H47   H     H_    0.944210 0.510135 0.746108 0.154043
H48   H     H_    0.934508 0.593454 0.621936 0.214168
C77   C     C_3   0.578159 0.069480 0.042316 -0.414800
C78   C     C_3   0.564371 0.963361 0.941677 -0.812333
H49   H     H_    0.562768 0.054264 0.874436 0.258991
H50   H     H_    0.603879 0.864920 0.943703 0.232641
H51   H     H_    0.516028 0.895761 0.929729 0.224427
H52   H     H_    0.531003 0.109738 0.058784 0.173906
H53   H     H_    0.602478 0.195322 0.029171 0.224805
C79   C     C_3   0.421840 0.569480 0.957684 -0.414800
C80   C     C_3   0.435629 0.463361 0.058324 -0.812332
H54   H     H_    0.437232 0.554264 0.125564 0.258991
H55   H     H_    0.396121 0.364920 0.056297 0.232641
H56   H     H_    0.483972 0.395761 0.070270 0.224427
H57   H     H_    0.468997 0.609738 0.941216 0.173906
H58   H     H_    0.397522 0.695322 0.970829 0.224805
O27   O     O_3   0.814605 0.948313 0.469653 -0.669382
H59   H     H_    0.852585 0.982940 0.527576 0.283651
O28   O     O_3   0.185395 0.448312 0.530347 -0.669382
H60   H     H_    0.147415 0.482939 0.472424 0.283652
C81   C     C_3   0.806379 0.878800 0.994027 -0.322144
C82   C     C_3   0.751029 0.862754 0.893954 -0.799217
H61   H     H_    0.710485 0.778768 0.908111 0.233969
H62   H     H_    0.731986 0.998227 0.864744 0.229542
H63   H     H_    0.769677 0.795954 0.832024 0.226418
H64   H     H_    0.842245 0.978289 0.978971 0.228398
H65   H     H_    0.829395 0.742423 0.005660 0.199058
C83   C     C_3   0.193621 0.378800 0.005973 -0.322144
C84   C     C_3   0.248971 0.362754 0.106046 -0.799218
H66   H     H_    0.289515 0.278768 0.091889 0.233969
H67   H     H_    0.268014 0.498227 0.135256 0.229542
H68   H     H_    0.230323 0.295954 0.167975 0.226418
H69   H     H_    0.157754 0.478289 0.021029 0.228398
H70   H     H_    0.170604 0.242423 0.994339 0.199058
O29   O     O_3   0.112273 0.907124 0.518158 -0.660313
H71   H     H_    0.129021 0.871496 0.592280 0.289676
O30   O     O_3   0.887727 0.407125 0.481842 -0.660313
H72   H     H_    0.870979 0.371498 0.407720 0.289677

loop_
_geom_bond_atom_site_label_1
_geom_bond_atom_site_label_2
_ccdc_geom_bond_type
C46   C48   A    
O28   H60   S    
O21   H13   S    
C9    C31   A    
C13   C15   A    
O11   C63   A    
O27   H59   S    
C48   C54   A    
C80   H54   S    
O1    C3    A    
C33   O23   S    
C25   C81   S    
C72   H34   S    
O2    C4    A    
C56   H12   S    
C2    O7    A    
C29   O21   S    
C69   C70   S    
C32   C61   S    
C8    C28   A    
C84   H66   S    
C77   H53   S    
O5    C3    A    
C54   C56   A    
C34   O24   S    
C78   H49   S    
C21   C23   A    
C56   C58   A    
C65   H21   S    
C12   H8    S    
C68   H23   S    
C58   C60   A    
C37   C39   A    
C81   H65   S    
C38   C40   A    
C15   C19   A    
O16   C64   A    
C67   C68   S    
C40   C42   A    
C61   O18   A    
C49   C51   A    
C82   H61   S    
C33   C43   A    
C42   C44   A    
H1    C23   S    
C26   C83   S    
C52   C63   S    
C73   C74   S    
C78   H50   S    
C30   O22   S    
C2    C45   S    
C8    C30   A    
C71   H35   S    
C36   C38   A    
C45   C47   A    
C20   C28   A    
O24   H16   S    
C47   C53   A    
C35   H9    S    
C13   O27   S    
C20   C22   A    
C84   H67   S    
O25   H37   S    
O6    V2    S    
C24   C26   A    
C7    C29   A    
C69   H31   S    
C38   C67   S    
C53   C55   A    
C74   H41   S    
C58   O30   S    
C75   H48   S    
C53   O25   S    
C39   C69   S    
O13   V3    S    
C33   C35   A    
C10   H6    S    
C34   C36   A    
C39   C41   A    
C67   H25   S    
C16   C20   A    
C50   C60   A    
C80   H56   S    
C75   C76   S    
O4    C2    A    
C68   H24   S    
C40   C71   S    
C42   C46   A    
C51   C64   S    
C72   H33   S    
C81   C82   S    
C4    C7    S    
C66   H17   S    
C37   C65   S    
C47   C49   A    
O4    V2    S    
C5    C29   A    
O2    V1    S    
C6    C30   A    
H2    C24   S    
C14   O28   S    
C66   H19   S    
O18   V4    S    
O6    C4    A    
C41   C43   A    
C27   H3    S    
C57   C59   A    
O1    V2    S    
C28   H4    S    
O12   C64   A    
O12   V3    S    
C55   C57   A    
C82   H63   S    
O14   V4    S    
C67   H26   S    
C73   H42   S    
C70   H29   S    
C7    C27   A    
C65   H20   S    
C48   C50   A    
O14   C62   A    
C35   C37   A    
C57   O29   S    
C79   H58   S    
C76   H46   S    
C75   H47   S    
C72   H32   S    
C5    C77   S    
O22   H14   S    
C18   C26   A    
O3    V1    S    
C83   C84   S    
O16   V4    S    
C62   O17   A    
C70   H28   S    
C79   C80   S    
C54   O26   S    
C84   H68   S    
O17   V3    S    
O19   V4    S    
C80   H55   S    
C77   H52   S    
C74   H39   S    
C18   C32   A    
C78   H51   S    
C71   H36   S    
C10   C12   A    
C1    C46   S    
O3    C1    A    
C50   C52   A    
O26   H38   S    
C36   H10   S    
C11   C13   A    
C9    H5    S    
O23   H15   S    
C3    C8    S    
C12   C14   A    
C11   H7    S    
C83   H70   S    
C19   C27   A    
C14   C16   A    
C71   C72   S    
O7    V1    S    
C10   C32   A    
C1    O8    A    
C15   C17   A    
O11   V4    S    
O8    V2    S    
C68   H22   S    
C22   C24   A    
C16   C18   A    
C6    C79   S    
C55   H11   S    
C69   H30   S    
C59   C73   S    
C34   C44   A    
C81   H64   S    
O5    V1    S    
C19   C21   A    
C82   H62   S    
C17   C25   A    
C74   H40   S    
C44   C52   A    
O30   H72   S    
C66   H18   S    
C49   C59   A    
C83   H69   S    
C73   H43   S    
O15   C63   A    
C79   H57   S    
C76   H45   S    
C41   C45   A    
C60   C75   S    
C9    C11   A    
C23   C25   A    
O20   V3    S    
C17   C31   A    
O9    V2    S    
C65   C66   S    
C77   C78   S    
O13   C61   A    
O10   V1    S    
O29   H71   S    
C5    C21   A    
O15   V3    S    
C76   H44   S    
C6    C22   A    
C43   C51   A    
C31   C62   S    
C70   H27   S    
