data_mof_unit_35016.cif
_audit_creation_date              2012-12-11T14:15:39-0500
_audit_creation_method            fapswitch 2.2
_symmetry_space_group_name_H-M    P1
_symmetry_Int_Tables_number       1
_space_group_crystal_system       triclinic
_cell_length_a                    11.140202
_cell_length_b                    12.723093
_cell_length_c                    23.464065
_cell_angle_alpha                 90.393659
_cell_angle_beta                  97.039715
_cell_angle_gamma                 68.625332
_cell_volume                      3071.07254343

loop_
_atom_site_label
_atom_site_type_symbol
_atom_type_description
_atom_site_fract_x
_atom_site_fract_y
_atom_site_fract_z
_atom_type_partial_charge
C1    C     C_R   0.149623 0.616971 0.429007 0.546467
C2    C     C_R   0.659738 0.558042 0.310642 -0.124135
C3    C     C_R   0.712867 0.727274 0.317573 -0.143578
C4    C     C_R   0.705571 0.734258 0.258027 -0.004703
C5    C     C_R   0.685600 0.646898 0.225368 0.079356
C6    C     C_R   0.684885 0.651164 0.166520 -0.087367
C7    C     C_R   0.697266 0.837308 0.170375 -0.132157
C8    C     C_R   0.717966 0.826579 0.230317 -0.138696
C9    C     C_1   0.236063 0.162717 0.122911 0.009338
C10   C     C_2   0.181260 0.233040 0.226541 -0.113302
C11   C     C_2   0.154292 0.165788 0.262670 -0.114723
C12   C     C_R   0.749016 0.604259 0.403963 0.546768
C13   C     C_1   0.131463 0.199166 0.320504 -0.037668
C14   C     C_1   0.210726 0.197628 0.169646 -0.036329
C15   C     C_1   0.115369 0.232149 0.368358 0.007422
C16   C     C_1   0.167719 0.749056 0.123572 0.007887
C17   C     C_2   0.143591 0.687560 0.227997 -0.119689
C18   C     C_2   0.237336 0.676797 0.271810 -0.118773
C19   C     C_1   0.218726 0.653333 0.329541 -0.046707
C20   C     C_1   0.155686 0.719630 0.170678 -0.035174
C21   C     C_1   0.194342 0.635690 0.376475 0.003180
C22   C     C_1   0.627879 0.757601 0.864853 0.013943
C23   C     C_R   0.100983 0.282169 0.423384 0.550512
C24   C     C_2   0.698184 0.715317 0.760763 -0.108319
C25   C     C_2   0.613319 0.700681 0.718700 -0.100470
C26   C     C_1   0.651525 0.668461 0.662648 -0.024572
C27   C     C_1   0.663019 0.739463 0.817914 -0.029296
C28   C     C_1   0.690334 0.639323 0.617128 0.014658
C29   C     C_R   0.192656 0.190748 0.855982 0.004889
C30   C     C_R   0.115399 0.218771 0.640492 0.031724
C31   C     C_R   0.003260 0.180030 0.715279 -0.095545
C32   C     C_R   0.008353 0.199428 0.657462 -0.144727
C33   C     C_R   0.221842 0.210513 0.681911 0.089627
C34   C     C_R   0.153257 0.617418 0.589827 0.561988
C35   C     C_R   0.203940 0.214451 0.739684 -0.012491
C36   C     C_R   0.098525 0.191638 0.757133 0.065262
C37   C     C_R   0.091932 0.180154 0.815943 0.208403
C38   C     C_R   0.274290 0.242717 0.837755 0.056854
C39   C     C_R   0.284235 0.248602 0.779893 -0.108422
C40   C     C_R   0.135031 0.762755 0.846575 0.002777
C41   C     C_R   0.206648 0.639102 0.646683 0.015626
C42   C     C_R   0.296032 0.556716 0.742443 -0.144345
C43   C     C_R   0.287141 0.546782 0.683259 -0.152280
C44   C     C_R   0.149365 0.745603 0.669416 0.084920
C45   C     C_R   0.749792 0.602165 0.565975 0.546530
C46   C     C_R   0.141176 0.750786 0.728279 0.050829
C47   C     C_R   0.217443 0.656150 0.765210 0.021196
C48   C     C_R   0.215527 0.663426 0.824350 -0.118379
C49   C     C_R   0.047951 0.850590 0.809155 -0.117871
C50   C     C_R   0.053718 0.846116 0.750714 -0.113117
C51   C     C_R   0.265866 0.110135 0.069392 0.546186
C52   C     C_R   0.602009 0.774077 0.080786 0.537934
C53   C     C_R   0.189586 0.787513 0.069708 0.545462
C54   C     C_R   0.238948 0.118879 0.908775 0.564079
C55   C     C_R   0.573697 0.776689 0.918145 0.544764
C56   C     C_R   0.101643 0.276495 0.584923 0.564338
C57   C     C_R   0.164875 0.788888 0.905854 0.548050
C58   C     C_R   0.674044 0.751411 0.138501 -0.017453
C59   C     C_R   0.696401 0.635921 0.344044 -0.024878
C60   C     C_R   0.658276 0.560485 0.251294 0.225655
Cr1   Cr    Cr6+3 0.189770 0.415650 0.511620 1.062383
Cr2   Cr    Cr6+3 0.930400 0.667320 0.496770 1.062943
Cr3   Cr    Cr6+3 0.879870 0.417010 0.491650 1.040153
Cr4   Cr    Cr6+3 0.149500 0.973980 0.985330 1.049899
Cr5   Cr    Cr6+3 0.457000 0.976510 0.994660 1.069836
Cr6   Cr    Cr6+3 0.411170 0.724270 0.995270 1.061754
H1    H     H_    0.673620 0.582265 0.141850 0.199751
H2    H     H_    0.054517 0.676255 0.235357 0.140599
H3    H     H_    0.516237 0.709113 0.726714 0.150779
H4    H     H_    0.795688 0.705776 0.752910 0.141988
H5    H     H_    0.920674 0.163466 0.727132 0.179884
H6    H     H_    0.353585 0.281843 0.766745 0.163176
H7    H     H_    0.926730 0.202948 0.626227 0.156062
H8    H     H_    0.281317 0.594639 0.853059 0.151361
H9    H     H_    0.690847 0.915062 0.149389 0.142872
H10   H     H_    0.982890 0.927746 0.825173 0.186966
H11   H     H_    0.356262 0.484266 0.770193 0.142126
H12   H     H_    0.988604 0.917500 0.723672 0.158441
H13   H     H_    0.335742 0.464777 0.666421 0.165869
H14   H     H_    0.733754 0.893936 0.254815 0.122061
H15   H     H_    0.642997 0.489275 0.330960 0.131898
H16   H     H_    0.738057 0.789236 0.343228 0.138632
H17   H     H_    0.152283 0.084386 0.249422 0.139023
H18   H     H_    0.184125 0.314080 0.239992 0.140551
H19   H     H_    0.326010 0.689159 0.264809 0.147587
O1    O     O_R   0.196340 0.303200 0.448500 -0.498788
O2    O     O_R   0.811960 0.658090 0.547150 -0.485699
O3    O     O_R   0.757930 0.506140 0.547110 -0.506613
O4    O     O_R   0.988670 0.321620 0.556040 -0.504714
O5    O     O_3   0.000020 0.499990 0.500010 -0.262006
O6    O     O_R   0.113660 0.883270 0.047820 -0.507621
O7    O     O_R   0.186930 0.068530 0.043990 -0.499827
O8    O     O_R   0.377770 0.089040 0.054220 -0.496882
O9    O     O_R   0.562800 0.872960 0.056970 -0.499525
O10   O     O_R   0.555390 0.700940 0.062700 -0.513454
O11   O     O_R   0.295020 0.731920 0.049950 -0.483948
O12   O     O_R   0.199310 0.519670 0.454880 -0.495553
O13   O     O_R   0.094290 0.884230 0.921550 -0.504294
O14   O     O_R   0.168980 0.069410 0.926940 -0.492540
O15   O     O_R   0.358400 0.089990 0.927950 -0.470013
O16   O     O_R   0.544850 0.873850 0.939920 -0.486753
O17   O     O_R   0.536020 0.701900 0.936430 -0.501933
O18   O     O_R   0.277070 0.732810 0.932890 -0.495110
O19   O     O_3   0.339220 0.891590 0.991750 -0.260855
O20   O     O_R   0.045660 0.691380 0.441680 -0.500644
O21   O     O_R   0.811930 0.659460 0.430950 -0.501086
O22   O     O_R   0.757900 0.507620 0.421760 -0.516890
O23   O     O_R   0.988630 0.322990 0.439840 -0.493606
O24   O     O_R   0.196380 0.301720 0.573850 -0.476049
O25   O     O_R   0.199350 0.518300 0.571080 -0.504242
O26   O     O_R   0.045700 0.689900 0.567030 -0.472406
O27   O     O_3   0.991290 0.153986 0.832738 -0.707886
H20   H     H_    0.973800 0.186349 0.870746 0.341199
I1    I     I_    0.390462 0.309093 0.894815 -0.376353
I2    I     I_    0.414750 0.178227 0.660533 -0.348099
I3    I     I_    0.082215 0.897287 0.615624 -0.371930
O28   O     O_3   0.630512 0.479903 0.218100 -0.711022
H21   H     H_    0.612637 0.426399 0.243221 0.327093

loop_
_geom_bond_atom_site_label_1
_geom_bond_atom_site_label_2
_ccdc_geom_bond_type
C12   O21   A    
C1    C21   S    
Cr3   O3    S    
C6    C58   A    
C35   C36   A    
C9    C51   S    
C24   C27   S    
Cr5   O16   S    
C4    C8    A    
Cr1   O24   S    
C24   H4    S    
C7    C8    A    
Cr2   O20   S    
C55   O17   A    
C36   C37   A    
C45   O2    A    
C38   C39   A    
C38   I1    S    
C2    C60   A    
C29   C54   S    
C23   O23   A    
C43   H13   S    
C40   C49   A    
C17   C20   S    
C52   O10   A    
C40   C48   A    
C18   C19   S    
C10   H18   S    
Cr6   O17   S    
C16   C53   S    
C37   O27   S    
C12   C59   S    
Cr4   O14   S    
Cr2   O26   S    
C31   C32   A    
C23   O1    A    
C29   C38   A    
C53   O6    A    
C39   H6    S    
C52   O9    A    
C7    C58   A    
C5    C60   A    
C15   C23   S    
C53   O11   A    
C34   O26   A    
C41   C43   A    
C54   O15   A    
C34   C41   S    
Cr1   O25   S    
C50   H12   S    
O27   H20   S    
C44   C46   A    
C57   O18   A    
C28   C45   S    
C33   I2    S    
C18   H19   S    
C48   H8    S    
C45   O3    A    
C24   C25   D    
C10   C14   S    
C1    O12   A    
C32   H7    S    
C2    C59   A    
C7    H9    S    
C11   H17   S    
C25   C26   S    
C30   C56   S    
C35   C39   A    
C9    C14   T    
Cr6   O19   S    
C51   O7    A    
C47   C48   A    
C16   C20   T    
Cr3   O4    S    
C3    H16   S    
C17   C18   D    
C49   H10   S    
C60   O28   S    
C52   C58   S    
C51   O8    A    
Cr5   O9    S    
C22   C27   T    
C13   C15   T    
C34   O25   A    
C41   C44   A    
C54   O14   A    
C25   H3    S    
C42   C43   A    
Cr4   O7    S    
Cr3   O22   S    
C3    C4    A    
C56   O24   A    
Cr1   O5    S    
Cr6   O11   S    
Cr4   O19   S    
C55   O16   A    
C46   C47   A    
C56   O4    A    
C17   H2    S    
C40   C57   S    
C30   C33   A    
C19   C21   T    
Cr6   O18   S    
Cr1   O12   S    
Cr5   O15   S    
C4    C5    A    
C12   O22   A    
C22   C55   S    
Cr2   O21   S    
Cr2   O2    S    
C46   C50   A    
C26   C28   T    
Cr5   O19   S    
C10   C11   D    
C6    H1    S    
O28   H21   S    
C30   C32   A    
C11   C13   S    
C5    C6    A    
C57   O13   A    
Cr2   O5    S    
Cr3   O5    S    
Cr4   O13   S    
Cr5   O8    S    
C33   C35   A    
C42   C47   A    
Cr1   O1    S    
C44   I3    S    
C42   H11   S    
C49   C50   A    
C29   C37   A    
C8    H14   S    
C31   C36   A    
Cr6   O10   S    
C2    H15   S    
Cr4   O6    S    
Cr3   O23   S    
C1    O20   A    
C31   H5    S    
C3    C59   A    
