data_mof_unit_42842.cif
_audit_creation_date              2012-12-11T14:38:09-0500
_audit_creation_method            fapswitch 2.2
_symmetry_space_group_name_H-M    P1
_symmetry_Int_Tables_number       1
_space_group_crystal_system       triclinic
_cell_length_a                    19.529702
_cell_length_b                    11.166093
_cell_length_c                    19.712488
_cell_angle_alpha                 89.949957
_cell_angle_beta                  96.546389
_cell_angle_gamma                 90.16686
_cell_volume                      4270.6646232

loop_
_atom_site_label
_atom_site_type_symbol
_atom_type_description
_atom_site_fract_x
_atom_site_fract_y
_atom_site_fract_z
_atom_type_partial_charge
C1    C     C_R   0.725036 0.954111 0.360643 0.571623
C2    C     C_R   0.277108 0.958858 0.637980 0.577066
C3    C     C_R   0.225737 0.451785 0.359548 0.580967
C4    C     C_R   0.774918 0.454235 0.639363 0.575446
C5    C     C_3   0.684797 0.473743 0.454364 -0.247204
C6    C     C_3   0.325385 0.426629 0.539360 -0.238109
C7    C     C_3   0.188000 0.975631 0.453695 -0.248222
C8    C     C_3   0.811791 0.979747 0.545212 -0.252426
C9    C     C_3   0.824179 0.482681 0.532297 0.204681
C10   C     C_3   0.183604 0.492230 0.468718 0.252708
C11   C     C_3   0.328867 0.984954 0.530670 0.195951
C12   C     C_3   0.677165 0.978162 0.468961 0.251422
C13   C     C_3   0.762022 0.295150 0.552101 -0.224891
C14   C     C_3   0.228938 0.291371 0.445535 -0.234018
C15   C     C_3   0.264226 0.799995 0.552795 -0.221730
C16   C     C_3   0.740188 0.792596 0.447305 -0.215530
C17   C     C_3   0.761426 0.428897 0.566076 0.049857
C18   C     C_3   0.239346 0.423665 0.432169 0.044124
C19   C     C_3   0.265359 0.934145 0.564904 0.053199
C20   C     C_3   0.739213 0.926791 0.433638 0.052925
C21   C     C_3   0.745481 0.396112 0.434002 -0.010212
C22   C     C_3   0.255266 0.390135 0.563671 -0.000955
C23   C     C_3   0.247881 0.896536 0.433653 -0.006876
C24   C     C_3   0.755444 0.892118 0.565007 0.008827
C25   C     C_3   0.813779 0.466322 0.454073 0.184382
C26   C     C_3   0.203368 0.492513 0.546728 0.198970
C27   C     C_3   0.317017 0.965685 0.452322 0.188286
C28   C     C_3   0.682765 0.944617 0.544567 0.199565
C29   C     C_3   0.740051 0.278953 0.475632 -0.252629
C30   C     C_3   0.228541 0.277012 0.522605 -0.223415
C31   C     C_3   0.243653 0.780084 0.476494 -0.252812
C32   C     C_3   0.765080 0.776110 0.523626 -0.216613
C33   C     C_3   0.488284 0.306042 0.962488 0.204445
C34   C     C_3   0.511178 0.306081 0.037592 0.204436
C35   C     C_3   0.988556 0.806048 0.962437 0.205190
C36   C     C_3   0.011454 0.806055 0.037539 0.204327
C37   C     C_3   0.428729 0.105805 0.969278 -0.156588
C38   C     C_3   0.571384 0.107074 0.030724 -0.156668
C39   C     C_3   0.928768 0.606016 0.969248 -0.155589
C40   C     C_3   0.071405 0.606811 0.030697 -0.155643
C41   C     C_3   0.555488 0.114153 0.952315 0.176683
C42   C     C_3   0.444604 0.112787 0.047694 0.177924
C43   C     C_3   0.055536 0.613923 0.952277 0.174921
C44   C     C_3   0.944631 0.613033 0.047659 0.177597
C45   C     C_R   0.536141 0.180366 0.338553 0.550361
C46   C     C_R   0.463069 0.180787 0.660937 0.536450
C47   C     C_R   0.036075 0.680260 0.338482 0.541362
C48   C     C_R   0.962206 0.680762 0.660432 0.520732
C49   C     C_3   0.484715 0.175144 0.934233 -0.008885
C50   C     C_3   0.515184 0.175108 0.065798 -0.009637
C51   C     C_3   0.984827 0.675140 0.934193 -0.007495
C52   C     C_3   0.015284 0.675094 0.065762 -0.009613
C53   C     C_1   0.762377 0.428261 0.904733 0.001355
C54   C     C_1   0.237569 0.428513 0.095199 0.002646
C55   C     C_1   0.262362 0.928219 0.904719 -0.000240
C56   C     C_1   0.737619 0.928387 0.095250 0.002463
C57   C     C_1   0.748306 0.406396 0.034647 0.037232
C58   C     C_1   0.251637 0.406749 0.965258 0.038163
C59   C     C_1   0.248297 0.906355 0.034635 0.037524
C60   C     C_1   0.751731 0.906509 0.965337 0.037861
C61   C     C_1   0.754349 0.416651 0.964142 -0.012718
C62   C     C_1   0.245579 0.416997 0.035778 -0.011927
C63   C     C_1   0.254335 0.916602 0.964128 -0.012952
C64   C     C_1   0.745658 0.916801 0.035845 -0.011991
C65   C     C_1   0.743559 0.391611 0.094540 0.079775
C66   C     C_1   0.256408 0.391927 0.905373 0.077932
C67   C     C_1   0.243554 0.891585 0.094532 0.080241
C68   C     C_1   0.756489 0.891701 0.905451 0.079492
C69   C     C_R   0.738643 0.361365 0.361626 0.578471
C70   C     C_R   0.262364 0.357488 0.636848 0.551461
C71   C     C_R   0.238981 0.861089 0.361552 0.576907
C72   C     C_R   0.762000 0.859478 0.637688 0.538762
C73   C     C_R   0.722092 0.954723 0.163062 0.537035
C74   C     C_R   0.277909 0.954717 0.836915 0.533681
C75   C     C_R   0.222080 0.454755 0.163042 0.539843
C76   C     C_R   0.777916 0.454738 0.836924 0.535477
C77   C     C_R   0.535133 0.179743 0.139787 0.579782
C78   C     C_R   0.464799 0.179810 0.860238 0.580241
C79   C     C_R   0.035192 0.679745 0.139762 0.580311
C80   C     C_R   0.964879 0.679803 0.860204 0.573520
C81   C     C_R   0.735963 0.357614 0.163475 0.563696
C82   C     C_R   0.264007 0.357869 0.836467 0.547462
C83   C     C_R   0.235961 0.857607 0.163472 0.564230
C84   C     C_R   0.764051 0.857727 0.836524 0.557141
C85   C     C_1   0.483288 0.174951 0.593348 0.022895
C86   C     C_1   0.513758 0.173488 0.405250 0.089653
C87   C     C_1   0.981938 0.673902 0.592693 0.045432
C88   C     C_1   0.013394 0.672688 0.404992 0.073283
C89   C     C_1   0.502527 0.171799 0.464117 0.064075
C90   C     C_1   0.493155 0.172965 0.534076 0.015494
C91   C     C_1   0.001850 0.669896 0.463733 0.083179
C92   C     C_1   0.992075 0.670532 0.533553 0.071057
C93   C     C_3   0.688583 0.476994 0.533337 0.165656
C94   C     C_3   0.315092 0.454866 0.462392 0.170579
C95   C     C_3   0.193319 0.983112 0.532220 0.169167
C96   C     C_3   0.811183 0.977822 0.466600 0.161533
Cr1   Cr    Cr6+3 0.765780 0.160710 0.267420 1.038341
Cr2   Cr    Cr6+3 0.234220 0.160710 0.732580 1.053086
Cr3   Cr    Cr6+3 0.265780 0.660710 0.267420 1.045380
Cr4   Cr    Cr6+3 0.734220 0.660710 0.732580 1.043908
Cr5   Cr    Cr6+3 0.612200 0.009560 0.248850 1.100992
Cr6   Cr    Cr6+3 0.387800 0.009560 0.751150 1.077517
Cr7   Cr    Cr6+3 0.112200 0.509560 0.248850 1.090020
Cr8   Cr    Cr6+3 0.887800 0.509560 0.751150 1.090405
Cr9   Cr    Cr6+3 0.616030 0.323720 0.248510 1.070222
Cr10  Cr    Cr6+3 0.383970 0.323720 0.751490 1.060898
Cr11  Cr    Cr6+3 0.116030 0.823720 0.248510 1.067559
Cr12  Cr    Cr6+3 0.883970 0.823720 0.751490 1.069597
H1    H     H_    0.674313 0.565964 0.550297 0.180472
H2    H     H_    0.327815 0.549523 0.454782 0.126384
H3    H     H_    0.182827 0.073500 0.548307 0.158341
H4    H     H_    0.825877 0.065039 0.447776 0.154823
H5    H     H_    0.767870 0.206832 0.455769 0.090123
H6    H     H_    0.174310 0.260162 0.532312 0.212982
H7    H     H_    0.273384 0.706708 0.458126 0.089990
H8    H     H_    0.739112 0.701341 0.544037 0.111399
H9    H     H_    0.525458 0.360274 0.936248 0.199376
H10   H     H_    0.473840 0.359403 0.063872 0.199821
H11   H     H_    0.025785 0.860122 0.936178 0.199364
H12   H     H_    0.974183 0.859562 0.063803 0.199619
H13   H     H_    0.376703 0.143971 0.953617 0.114699
H14   H     H_    0.623291 0.146185 0.046398 0.112911
H15   H     H_    0.876780 0.644324 0.953570 0.113776
H16   H     H_    0.123362 0.645718 0.046383 0.112657
H17   H     H_    0.403682 0.165317 0.069009 0.126097
H18   H     H_    0.596241 0.167621 0.931021 0.124091
H19   H     H_    0.903770 0.665753 0.068949 0.125389
H20   H     H_    0.096346 0.667261 0.930990 0.121219
H21   H     H_    0.573450 0.011649 0.047158 0.229023
H22   H     H_    0.426964 0.010430 0.952810 0.229436
H23   H     H_    0.073338 0.511385 0.047129 0.229178
H24   H     H_    0.926912 0.510627 0.952805 0.229587
H25   H     H_    0.633915 0.436205 0.433265 0.209726
H26   H     H_    0.363032 0.352302 0.549471 0.194048
H27   H     H_    0.136803 0.937360 0.434208 0.210189
H28   H     H_    0.864045 0.954289 0.569255 0.210102
H29   H     H_    0.687000 0.564300 0.432791 0.053431
H30   H     H_    0.347244 0.506466 0.567982 0.092281
H31   H     H_    0.189956 0.064917 0.430461 0.050264
H32   H     H_    0.800980 0.069527 0.563606 0.039452
H33   H     H_    0.337489 0.080714 0.541469 0.099161
H34   H     H_    0.676578 0.074389 0.463803 0.050737
H35   H     H_    0.829225 0.576954 0.545100 0.080522
H36   H     H_    0.177041 0.581843 0.447889 0.078930
H37   H     H_    0.306989 0.056302 0.431086 0.093576
H38   H     H_    0.677303 0.028159 0.574763 0.031515
H39   H     H_    0.803301 0.557634 0.433842 0.088499
H40   H     H_    0.230588 0.576903 0.559881 -0.000458
H41   H     H_    0.814615 0.259285 0.566289 0.169272
H42   H     H_    0.179156 0.259005 0.418734 0.176840
H43   H     H_    0.314849 0.757432 0.569284 0.157016
H44   H     H_    0.687413 0.755727 0.435189 0.185957
H45   H     H_    0.726299 0.245904 0.582449 0.150943
H46   H     H_    0.270703 0.238637 0.426688 0.155689
H47   H     H_    0.225831 0.759664 0.583497 0.149696
H48   H     H_    0.774974 0.746802 0.414953 0.145243
H49   H     H_    0.684819 0.253737 0.469372 0.156586
H50   H     H_    0.261003 0.202018 0.540394 0.052371
H51   H     H_    0.188519 0.754939 0.471153 0.148973
H52   H     H_    0.821084 0.756769 0.528831 0.156518
O1    O     O_R   0.783100 0.287550 0.345460 -0.503352
O2    O     O_R   0.216900 0.287550 0.654540 -0.502944
O3    O     O_R   0.283100 0.787550 0.345460 -0.498769
O4    O     O_R   0.716900 0.787550 0.654540 -0.491687
O5    O     O_R   0.554710 0.081900 0.170950 -0.462181
O6    O     O_R   0.445290 0.081900 0.829050 -0.462467
O7    O     O_R   0.054710 0.581900 0.170950 -0.461224
O8    O     O_R   0.945290 0.581900 0.829050 -0.465789
O9    O     O_R   0.545650 0.284910 0.163740 -0.478689
O10   O     O_R   0.454350 0.284910 0.836260 -0.479327
O11   O     O_R   0.045650 0.784910 0.163740 -0.479202
O12   O     O_R   0.954350 0.784910 0.836260 -0.479511
O13   O     O_R   0.677950 0.374280 0.185410 -0.456319
O14   O     O_R   0.322050 0.374280 0.814590 -0.455819
O15   O     O_R   0.177950 0.874280 0.185410 -0.456077
O16   O     O_R   0.822050 0.874280 0.814590 -0.455216
O17   O     O_3   0.664670 0.164660 0.254930 -0.296853
O18   O     O_3   0.335330 0.164660 0.745070 -0.293627
O19   O     O_3   0.164670 0.664660 0.254930 -0.297352
O20   O     O_3   0.835330 0.664660 0.745070 -0.292987
O21   O     O_R   0.760020 0.037400 0.337700 -0.523984
O22   O     O_R   0.239980 0.037400 0.662300 -0.505196
O23   O     O_R   0.260020 0.537400 0.337700 -0.512785
O24   O     O_R   0.739980 0.537400 0.662300 -0.516672
O25   O     O_R   0.666600 0.921990 0.332020 -0.453204
O26   O     O_R   0.333400 0.921990 0.667980 -0.467188
O27   O     O_R   0.166600 0.421990 0.332020 -0.480535
O28   O     O_R   0.833400 0.421990 0.667980 -0.449480
O29   O     O_R   0.557260 0.082670 0.312540 -0.461668
O30   O     O_R   0.442740 0.082670 0.687460 -0.477024
O31   O     O_R   0.057260 0.582670 0.312540 -0.473506
O32   O     O_R   0.942740 0.582670 0.687460 -0.476569
O33   O     O_R   0.548410 0.285740 0.316480 -0.515157
O34   O     O_R   0.451590 0.285740 0.683520 -0.509284
O35   O     O_R   0.048410 0.785740 0.316480 -0.515166
O36   O     O_R   0.951590 0.785740 0.683520 -0.508711
O37   O     O_R   0.680500 0.375040 0.327000 -0.522859
O38   O     O_R   0.319500 0.375040 0.673000 -0.525966
O39   O     O_R   0.180500 0.875040 0.327000 -0.523297
O40   O     O_R   0.819500 0.875040 0.673000 -0.520702
O41   O     O_R   0.780350 0.286720 0.192720 -0.504867
O42   O     O_R   0.219650 0.286720 0.807280 -0.518829
O43   O     O_R   0.280350 0.786720 0.192720 -0.504268
O44   O     O_R   0.719650 0.786720 0.807280 -0.511790
O45   O     O_R   0.757470 0.036630 0.196110 -0.496200
O46   O     O_R   0.242530 0.036630 0.803890 -0.491866
O47   O     O_R   0.257470 0.536630 0.196110 -0.494540
O48   O     O_R   0.742530 0.536630 0.803890 -0.495648
O49   O     O_R   0.663840 0.921160 0.179280 -0.500772
O50   O     O_R   0.336160 0.921160 0.820720 -0.502242
O51   O     O_R   0.163840 0.421160 0.179280 -0.500216
O52   O     O_R   0.836160 0.421160 0.820720 -0.499692
F1    F     F_    0.886204 0.435488 0.561022 -0.650751
F2    F     F_    0.118984 0.439561 0.453630 -0.611539
F3    F     F_    0.389477 0.933583 0.559961 -0.679472
F4    F     F_    0.613341 0.939939 0.437809 -0.615472
O53   O     O_3   0.871980 0.432084 0.420137 -0.533479
C97   C     C_3   0.910025 0.331431 0.446788 0.090085
H53   H     H_    0.878465 0.264744 0.470705 0.141508
H54   H     H_    0.953185 0.361963 0.484377 0.238674
C98   C     C_3   0.944256 0.270745 0.390230 -0.339235
H55   H     H_    0.975814 0.336783 0.365133 0.191439
H56   H     H_    0.978512 0.197973 0.412339 0.123228
H57   H     H_    0.905436 0.230938 0.351338 0.177786
O54   O     O_3   0.143689 0.477508 0.580990 -0.486999
C99   C     C_3   0.145797 0.552588 0.639074 -0.016198
H58   H     H_    0.124557 0.641725 0.623260 0.155740
H59   H     H_    0.198796 0.565658 0.665658 0.107953
C100  C     C_3   0.102478 0.496699 0.690261 -0.321468
H60   H     H_    0.129165 0.417630 0.714763 0.185913
H61   H     H_    0.094108 0.562779 0.730551 0.111616
H62   H     H_    0.052040 0.466935 0.664065 0.202353
O55   O     O_3   0.373949 0.928330 0.417513 -0.529189
C101  C     C_3   0.412956 0.830297 0.446038 0.078437
H63   H     H_    0.382864 0.766626 0.473868 0.144803
H64   H     H_    0.457177 0.865239 0.480631 0.215766
C102  C     C_3   0.444515 0.762838 0.390147 -0.333676
H65   H     H_    0.473659 0.825751 0.360386 0.196926
H66   H     H_    0.480585 0.693696 0.413606 0.121789
H67   H     H_    0.404191 0.717377 0.355178 0.178272
O56   O     O_3   0.632279 0.855398 0.554081 -0.496311
C103  C     C_3   0.581381 0.898332 0.593148 0.033734
H68   H     H_    0.546557 0.959294 0.561450 0.174453
H69   H     H_    0.604238 0.945358 0.640245 0.122053
C104  C     C_3   0.539433 0.792983 0.615056 -0.320769
H70   H     H_    0.572955 0.732523 0.648968 0.166087
H71   H     H_    0.497173 0.826026 0.643252 0.158840
H72   H     H_    0.516874 0.741526 0.569724 0.158816
F5    F     F_    0.424196 0.361201 0.951263 -0.649037
F6    F     F_    0.575088 0.362489 0.048803 -0.649122
F7    F     F_    0.924529 0.861432 0.951228 -0.648840
F8    F     F_    0.075437 0.862205 0.048758 -0.649325
F9    F     F_    0.555581 0.000042 0.924582 -0.616542
F10   F     F_    0.444874 0.998527 0.075381 -0.613180
F11   F     F_    0.055520 0.499815 0.924525 -0.619433
F12   F     F_    0.944751 0.498806 0.075375 -0.613541
F13   F     F_    0.636811 0.404404 0.553828 -0.650229
F14   F     F_    0.361881 0.389697 0.429439 -0.641854
F15   F     F_    0.140389 0.916006 0.554949 -0.648778
F16   F     F_    0.864152 0.904987 0.449450 -0.651862

loop_
_geom_bond_atom_site_label_1
_geom_bond_atom_site_label_2
_ccdc_geom_bond_type
C8    H32   S    
C34   H10   S    
C39   C51   S    
C28   H38   S    
C44   H19   S    
C58   C62   S    
C83   O15   A    
C8    H28   S    
Cr4   O44   S    
C14   C18   S    
C25   O53   S    
C35   C36   S    
C8    C96   S    
C15   H43   S    
C9    H35   S    
Cr7   O31   S    
C9    C25   S    
Cr10  O34   S    
Cr11  O11   S    
C31   H7    S    
C49   C78   S    
C67   C83   S    
C96   H4    S    
C11   C19   S    
Cr6   O26   S    
Cr9   O9    S    
C12   C28   S    
C13   C29   S    
C69   O1    A    
C10   F2    S    
C37   H13   S    
C98   H57   S    
Cr5   O29   S    
C74   O46   A    
C7    C23   S    
C72   O40   A    
C39   H24   S    
C42   F10   S    
C26   O54   S    
C77   O5    A    
C2    O26   A    
Cr8   O32   S    
C41   F9    S    
C78   O10   A    
C39   H15   S    
C37   H22   S    
Cr12  O20   S    
C3    C18   S    
O56   C103  S    
C2    O22   A    
C79   O11   A    
C37   C42   S    
C25   H39   S    
C99   C100  S    
Cr8   O52   S    
C51   C80   S    
C21   C25   S    
Cr11  O15   S    
C42   H17   S    
C59   C67   T    
C55   C74   S    
C75   O47   A    
C58   C66   T    
C40   C43   S    
C82   O14   A    
C6    C94   S    
C55   C63   T    
C16   H48   S    
C103  H69   S    
C56   C64   T    
Cr9   O17   S    
C23   C27   S    
Cr12  O36   S    
C52   C79   S    
O55   C101  S    
Cr3   O23   S    
C36   C52   S    
C27   H37   S    
Cr10  O38   S    
C46   C85   S    
Cr3   O43   S    
C5    C93   S    
C44   C52   S    
C6    C22   S    
Cr9   O37   S    
C11   F3    S    
C20   C96   S    
C70   O38   A    
Cr9   O13   S    
C104  H70   S    
C48   O36   A    
C69   O37   A    
Cr10  O10   S    
C12   C20   S    
C101  H64   S    
C46   O30   A    
Cr5   O25   S    
C70   O2    A    
Cr11  O35   S    
C22   C70   S    
Cr2   O2    S    
C60   C64   S    
C46   O34   A    
C71   O39   A    
C45   O33   A    
C33   H9    S    
Cr8   O28   S    
C80   O8    A    
C78   O6    A    
C103  C104  S    
C34   C50   S    
C73   O45   A    
Cr1   O21   S    
C68   C84   S    
C38   H21   S    
C23   C71   S    
Cr6   O30   S    
C33   C34   S    
C38   C41   S    
C83   O43   A    
Cr7   O51   S    
C91   C92   S    
Cr4   O48   S    
C1    O21   A    
Cr6   O50   S    
C29   H49   S    
C54   C62   T    
Cr5   O49   S    
O53   C97   S    
C14   C30   S    
C21   C29   S    
C15   C31   S    
C94   H2    S    
C10   C26   S    
C32   H8    S    
C54   C75   S    
C21   C69   S    
Cr1   O17   S    
C101  C102  S    
C23   C31   S    
Cr12  O40   S    
C36   H12   S    
C15   C19   S    
C24   C32   S    
Cr3   O19   S    
C100  H60   S    
Cr3   O47   S    
C76   O52   A    
C84   O16   A    
C66   C82   S    
C98   H55   S    
C37   C49   S    
C6    H26   S    
C97   H54   S    
C88   C91   T    
C11   C27   S    
C16   C20   S    
C75   O51   A    
C96   F16   S    
C14   H42   S    
C94   F14   S    
C35   F7    S    
C103  H68   S    
C72   O4    A    
C48   C87   S    
Cr7   O27   S    
C34   F6    S    
C10   H36   S    
Cr7   O7    S    
C4    O24   A    
C40   H16   S    
C33   F5    S    
C11   H33   S    
C6    H30   S    
C13   H45   S    
C38   H14   S    
C71   O3    A    
C42   C50   S    
C5    H25   S    
C93   F13   S    
C4    C17   S    
C9    C17   S    
C40   H23   S    
C74   O50   A    
C99   H59   S    
C102  H66   S    
C35   C51   S    
Cr6   O18   S    
Cr3   O3    S    
C102  H67   S    
C53   C76   S    
C17   C93   S    
C101  H63   S    
C12   F4    S    
C53   C61   T    
Cr4   O20   S    
C50   C77   S    
C79   O7    A    
C19   C95   S    
C24   C72   S    
C97   C98   S    
C82   O42   A    
Cr2   O18   S    
C30   H6    S    
C43   F11   S    
C30   H50   S    
C77   O9    A    
C29   H5    S    
C1    C20   S    
C56   C73   S    
C22   C30   S    
Cr11  O19   S    
C2    C19   S    
C31   H51   S    
Cr11  O39   S    
C15   H47   S    
C41   H18   S    
Cr2   O42   S    
C97   H53   S    
C44   F12   S    
Cr8   O20   S    
C24   C28   S    
C36   F8    S    
Cr1   O41   S    
C33   C49   S    
C86   C89   T    
Cr4   O4    S    
C43   H20   S    
C95   F15   S    
C81   O41   A    
C85   C90   T    
C16   H44   S    
C57   C61   S    
C39   C44   S    
C38   C50   S    
C1    O25   A    
Cr2   O22   S    
C16   C32   S    
C41   C49   S    
C7    C95   S    
C59   C63   S    
Cr8   O8    S    
C13   C17   S    
C98   H56   S    
C9    F1    S    
C47   C88   S    
C4    O28   A    
Cr12  O12   S    
C45   C86   S    
C89   C90   S    
C13   H41   S    
C5    H29   S    
C100  H61   S    
C40   C52   S    
Cr5   O5    S    
C7    H31   S    
Cr9   O33   S    
C43   C51   S    
C35   H11   S    
C47   O35   A    
C3    O23   A    
C10   C18   S    
C18   C94   S    
Cr12  O16   S    
C8    C24   S    
C104  H71   S    
C12   H34   S    
C73   O49   A    
Cr7   O19   S    
C57   C65   T    
C47   O31   A    
Cr4   O24   S    
C102  H65   S    
C48   O32   A    
C32   H52   S    
Cr5   O17   S    
C7    H27   S    
C27   O55   S    
C22   C26   S    
C100  H62   S    
C26   H40   S    
C5    C21   S    
C60   C68   T    
Cr6   O6    S    
C99   H58   S    
C28   O56   S    
C104  H72   S    
C93   H1    S    
C45   O29   A    
C80   O12   A    
C65   C81   S    
Cr2   O46   S    
C95   H3    S    
Cr1   O45   S    
C84   O44   A    
C87   C92   T    
C3    O27   A    
Cr10  O18   S    
C14   H46   S    
C76   O48   A    
Cr1   O1    S    
C81   O13   A    
O54   C99   S    
Cr10  O14   S    
