data_mof_unit_50305.cif
_audit_creation_date              2012-12-11T14:45:30-0500
_audit_creation_method            fapswitch 2.2
_symmetry_space_group_name_H-M    P1
_symmetry_Int_Tables_number       1
_space_group_crystal_system       triclinic
_cell_length_a                    25.050128
_cell_length_b                    7.164307
_cell_length_c                    14.360033
_cell_angle_alpha                 89.599484
_cell_angle_beta                  102.58632
_cell_angle_gamma                 91.843426
_cell_volume                      2513.91562328

loop_
_atom_site_label
_atom_site_type_symbol
_atom_type_description
_atom_site_fract_x
_atom_site_fract_y
_atom_site_fract_z
_atom_type_partial_charge
O1    O     O_R   0.319150 0.364170 0.330530 -0.514180
O2    O     O_R   0.680850 0.635830 0.669470 -0.500363
O3    O     O_R   0.180850 0.864170 0.169470 -0.548131
O4    O     O_R   0.819150 0.135830 0.830530 -0.550365
O5    O     O_R   0.210330 0.696850 0.354180 -0.543506
O6    O     O_R   0.789670 0.303150 0.645820 -0.543928
O7    O     O_R   0.289670 0.196850 0.145820 -0.525448
O8    O     O_R   0.710330 0.803150 0.854180 -0.532547
C1    C     C_R   0.197294 0.523266 0.378378 0.697353
C2    C     C_R   0.802801 0.476697 0.621785 0.707335
C3    C     C_R   0.302927 0.027506 0.121714 0.702991
C4    C     C_R   0.696982 0.972491 0.878125 0.714866
O9    O     O_R   0.320550 0.694110 0.341970 -0.551063
O10   O     O_R   0.679450 0.305890 0.658030 -0.548167
O11   O     O_R   0.179450 0.194110 0.158030 -0.518219
O12   O     O_R   0.820550 0.805890 0.841970 -0.504356
O13   O     O_R   0.291860 0.861000 0.157170 -0.543325
O14   O     O_R   0.708140 0.139000 0.842830 -0.542047
O15   O     O_R   0.208140 0.361000 0.342830 -0.522417
O16   O     O_R   0.791860 0.639000 0.657170 -0.527210
C5    C     C_R   0.342054 0.528052 0.361060 0.764166
C6    C     C_R   0.657363 0.471886 0.639433 0.744047
C7    C     C_R   0.158199 0.023225 0.138651 0.768661
C8    C     C_R   0.842410 0.976771 0.860550 0.748720
O17   O     O_3   0.240460 0.529330 0.189380 -0.379375
O18   O     O_3   0.759540 0.470670 0.810620 -0.377408
O19   O     O_3   0.259540 0.029330 0.310620 -0.376932
O20   O     O_3   0.740460 0.970670 0.689380 -0.369559
V1    V     V_3+5 0.251770 0.805510 0.261240 1.492974
V2    V     V_3+5 0.748230 0.194490 0.738760 1.510336
V3    V     V_3+5 0.248230 0.305510 0.238760 1.567647
V4    V     V_3+5 0.751770 0.694490 0.761240 1.581196
C9    C     C_R   0.103301 0.005674 0.075145 -0.138128
C10   C     C_R   0.898666 0.998015 0.921300 -0.134101
C11   C     C_R   0.397235 0.527830 0.424517 -0.144554
C12   C     C_R   0.600494 0.467748 0.579156 -0.139253
C13   C     C_R   0.962055 0.198049 0.034040 0.163604
C14   C     C_R   0.044138 0.842895 0.941206 0.161572
C15   C     C_R   0.532155 0.290938 0.462474 0.165186
C16   C     C_R   0.459898 0.662966 0.563361 0.168528
C17   C     C_R   0.909723 0.153958 0.980831 -0.174329
C18   C     C_R   0.095809 0.881774 0.999064 -0.197447
C19   C     C_R   0.585202 0.316579 0.516977 -0.173848
C20   C     C_R   0.407657 0.643084 0.504456 -0.205131
C21   C     C_R   0.942090 0.883482 0.911640 0.333172
C22   C     C_R   0.058650 0.102771 0.092538 0.338014
C23   C     C_R   0.560205 0.595509 0.590084 0.336705
C24   C     C_R   0.439331 0.419766 0.404705 0.342240
C25   C     C_R   0.997161 0.931731 0.960290 -0.005995
C26   C     C_R   0.006036 0.079054 0.030127 0.008374
C27   C     C_R   0.504301 0.563573 0.541401 -0.005867
C28   C     C_R   0.491804 0.423252 0.468358 0.012059
H1    H     H_    0.131208 0.812202 0.985532 0.140167
H2    H     H_    0.876641 0.245323 0.985161 0.158541
H3    H     H_    0.374249 0.720298 0.520680 0.147447
H4    H     H_    0.615361 0.214765 0.510805 0.171377
C29   C     C_R   0.664302 0.971378 0.951136 -0.044283
C30   C     C_R   0.335481 0.028960 0.048457 -0.036030
C31   C     C_R   0.835427 0.493488 0.549152 -0.040076
C32   C     C_R   0.164798 0.506056 0.451243 -0.033679
C33   C     C_R   0.653952 0.882211 0.108584 -0.087066
C34   C     C_R   0.346093 0.123234 0.891802 -0.094002
C35   C     C_R   0.844240 0.594295 0.392668 -0.086542
C36   C     C_R   0.155764 0.399369 0.606737 -0.092609
C37   C     C_R   0.686625 0.905882 0.042372 -0.190069
C38   C     C_R   0.313356 0.097891 0.957824 -0.191399
C39   C     C_R   0.811940 0.559623 0.458631 -0.189930
C40   C     C_R   0.188112 0.435915 0.541014 -0.192214
C41   C     C_R   0.608925 0.013537 0.925922 -0.149618
C42   C     C_R   0.390721 0.984959 0.073188 -0.113028
C43   C     C_R   0.891459 0.462125 0.574117 -0.145721
C44   C     C_R   0.108882 0.539447 0.426814 -0.113528
C45   C     C_R   0.574038 0.986361 0.991014 0.047807
C46   C     C_R   0.425792 0.015394 0.008631 0.053580
C47   C     C_R   0.925841 0.499612 0.509250 0.048822
C48   C     C_R   0.074341 0.498145 0.491014 0.054041
C49   C     C_R   0.597671 0.918866 0.083950 0.050610
C50   C     C_R   0.402316 0.085678 0.916199 0.053690
C51   C     C_R   0.901106 0.567321 0.416885 0.050755
C52   C     C_R   0.098948 0.427365 0.582793 0.052307
C53   C     C_R   0.516515 0.019653 0.965983 -0.001529
C54   C     C_R   0.483361 0.982935 0.033804 0.002285
C55   C     C_R   0.983818 0.475516 0.533906 -0.003131
C56   C     C_R   0.016322 0.521217 0.466177 0.001515
C57   C     C_R   0.508869 0.916474 0.124989 -0.173143
C58   C     C_R   0.491162 0.088735 0.875276 -0.201528
C59   C     C_R   0.989759 0.587063 0.375423 -0.170124
C60   C     C_R   0.010253 0.406726 0.624102 -0.195668
C61   C     C_R   0.564617 0.885718 0.150031 0.363171
C62   C     C_R   0.435499 0.121130 0.850516 0.354687
C63   C     C_R   0.933586 0.609532 0.350886 0.361075
C64   C     C_R   0.066363 0.382639 0.648339 0.355447
H5    H     H_    0.405063 0.935353 0.144892 0.129275
H6    H     H_    0.594312 0.058824 0.853504 0.136181
H7    H     H_    0.093831 0.591475 0.355792 0.128484
H8    H     H_    0.906739 0.415077 0.646027 0.134905
H9    H     H_    0.270742 0.134840 0.938643 0.129865
H10   H     H_    0.729343 0.870297 0.061901 0.132411
H11   H     H_    0.231353 0.407244 0.559785 0.127700
H12   H     H_    0.768606 0.586718 0.439453 0.131214
H13   H     H_    0.673098 0.830615 0.178449 0.181594
H14   H     H_    0.327073 0.177129 0.822365 0.181353
H15   H     H_    0.824261 0.645838 0.323255 0.181281
H16   H     H_    0.175636 0.345209 0.675639 0.180817
H17   H     H_    0.486719 0.885769 0.179768 0.169301
H18   H     H_    0.513491 0.122071 0.821035 0.168379
H19   H     H_    0.011338 0.623341 0.320533 0.172813
H20   H     H_    0.988517 0.367322 0.678357 0.172622
Cl1   Cl    Cl    0.068462 0.221690 0.203365 -0.694149
Cl2   Cl    Cl    0.924935 0.675716 0.843705 -0.719747
Cl3   Cl    Cl    0.428142 0.314719 0.290160 -0.690515
Cl4   Cl    Cl    0.581772 0.803033 0.656320 -0.714280
C65   C     C_3   0.969570 0.386192 0.083169 -0.556770
H21   H     H_    0.936036 0.481039 0.052128 0.225514
H22   H     H_    0.969141 0.369362 0.159855 0.258042
H23   H     H_    0.007927 0.458150 0.073517 0.222128
C66   C     C_3   0.043224 0.719474 0.855883 -0.569551
H24   H     H_    0.084763 0.704212 0.841811 0.207890
H25   H     H_    0.027900 0.576728 0.868779 0.253335
H26   H     H_    0.018441 0.782115 0.790237 0.236544
C67   C     C_3   0.519335 0.106989 0.410036 -0.575448
H27   H     H_    0.548908 0.999166 0.441425 0.228327
H28   H     H_    0.478440 0.050008 0.415870 0.217900
H29   H     H_    0.521878 0.124733 0.334314 0.257519
C68   C     C_3   0.463807 0.774775 0.653626 -0.577302
H30   H     H_    0.423039 0.790159 0.670941 0.210153
H31   H     H_    0.489036 0.702356 0.715736 0.233410
H32   H     H_    0.480335 0.917862 0.644924 0.251389
Cl5   Cl    Cl    0.590897 0.800826 0.266331 -0.676586
Cl6   Cl    Cl    0.409570 0.211926 0.735303 -0.710135
Cl7   Cl    Cl    0.905962 0.695284 0.235278 -0.682400
Cl8   Cl    Cl    0.093706 0.290822 0.762776 -0.708417

loop_
_geom_bond_atom_site_label_1
_geom_bond_atom_site_label_2
_ccdc_geom_bond_type
O17   V3    S    
O1    C5    A    
C59   C63   A    
O19   V1    S    
O13   V1    S    
O3    C7    A    
C56   C59   A    
C44   C48   A    
O15   V3    S    
C48   C56   A    
C53   C54   A    
C14   C25   A    
C35   C51   A    
C50   C62   A    
O7    C3    A    
C49   C61   A    
C9    C18   A    
C36   C40   A    
C38   H9    S    
O9    V1    S    
C64   Cl8   S    
O10   V2    S    
C37   H10   S    
C14   C18   A    
C66   H25   S    
C18   H1    S    
O4    C8    A    
C63   Cl7   S    
C32   C44   A    
C23   Cl4   S    
O1    V3    S    
C61   Cl5   S    
C12   C23   A    
O2    V4    S    
O3    V1    S    
C42   C46   A    
C67   H29   S    
C31   C39   A    
C14   C66   S    
C1    O15   A    
C60   C64   A    
C2    O16   A    
C7    C9    S    
O2    C6    A    
C68   H32   S    
C41   C45   A    
O14   V2    S    
C3    C30   S    
C16   C20   A    
C51   C63   A    
C53   C58   A    
C65   H23   S    
O11   C7    A    
C55   C60   A    
O12   C8    A    
C9    C22   A    
C36   C52   A    
C58   H18   S    
C10   C17   A    
C46   C54   A    
C57   H17   S    
C11   C24   A    
C45   C53   A    
C30   C38   A    
O5    V1    S    
C35   C39   A    
O7    V3    S    
C34   C38   A    
C27   C28   A    
O8    V4    S    
C42   H5    S    
C35   H15   S    
C41   H6    S    
C58   C62   A    
C66   H26   S    
C33   C49   A    
C57   C61   A    
C21   Cl2   S    
C30   C42   A    
C15   C19   A    
C43   H8    S    
C8    C10   S    
C65   H22   S    
C52   C64   A    
C33   H13   S    
O5    C1    A    
C55   C56   A    
C21   C25   A    
O8    C4    A    
O9    C5    A    
C10   C21   A    
C11   C20   A    
C67   H27   S    
C39   H12   S    
C4    C29   S    
O6    V2    S    
C68   H30   S    
C54   C57   A    
C65   H21   S    
O16   V4    S    
C36   H16   S    
C3    O13   A    
C34   C50   A    
C48   C52   A    
C29   C37   A    
O6    C2    A    
C23   C27   A    
O11   V3    S    
C5    C11   S    
O12   V4    S    
C16   C27   A    
C6    C12   S    
C22   C26   A    
C15   C67   S    
C1    C32   S    
O10   C6    A    
O20   V2    S    
C2    C31   S    
C40   H11   S    
C66   H24   S    
C43   C47   A    
C13   C26   A    
C20   H3    S    
C47   C55   A    
C44   H7    S    
C60   H20   S    
C16   C68   S    
C15   C28   A    
C13   C17   A    
C17   H2    S    
C67   H28   S    
C62   Cl6   S    
C33   C37   A    
C19   H4    S    
C24   C28   A    
C24   Cl3   S    
C59   H19   S    
C32   C40   A    
C25   C26   A    
C46   C50   A    
C22   Cl1   S    
C4    O14   A    
C68   H31   S    
C45   C49   A    
C12   C19   A    
C29   C41   A    
C47   C51   A    
O18   V4    S    
O4    V2    S    
C13   C65   S    
C31   C43   A    
C34   H14   S    
