data_mof_unit_64545.cif
_audit_creation_date              2012-12-10T17:27:42-0500
_audit_creation_method            fapswitch 2.2
_symmetry_space_group_name_H-M    P1
_symmetry_Int_Tables_number       1
_space_group_crystal_system       triclinic
_cell_length_a                    21.584588
_cell_length_b                    21.584583
_cell_length_c                    38.743294
_cell_angle_alpha                 88.655504
_cell_angle_beta                  88.655327
_cell_angle_gamma                 90.1265
_cell_volume                      18040.2735076

loop_
_atom_site_label
_atom_site_type_symbol
_atom_type_description
_atom_site_fract_x
_atom_site_fract_y
_atom_site_fract_z
_atom_type_partial_charge
C1    C     C_R   0.501211 0.120173 0.495106 0.940113
C2    C     C_R   0.879827 0.498790 0.504894 0.940124
C3    C     C_R   0.500683 0.879881 0.504918 0.934806
C4    C     C_R   0.120119 0.499317 0.495082 0.934823
C5    C     C_R   0.001211 0.620173 0.995107 0.940127
C6    C     C_R   0.379827 0.998789 0.004893 0.940126
C7    C     C_R   0.000683 0.379881 0.004919 0.934770
C8    C     C_R   0.620119 0.999317 0.995082 0.934788
C9    C     C_R   0.354120 0.290768 0.449450 0.391759
C10   C     C_R   0.722338 0.349278 0.462111 0.388372
C11   C     C_R   0.656691 0.720257 0.466324 0.393250
C12   C     C_R   0.289458 0.653699 0.452070 0.407841
C13   C     C_R   0.346302 0.710542 0.547932 0.407841
C14   C     C_R   0.709230 0.645882 0.550548 0.391757
C15   C     C_R   0.650721 0.277662 0.537890 0.388370
C16   C     C_R   0.279743 0.343309 0.533675 0.393250
C17   C     C_R   0.854124 0.790764 0.949448 0.391763
C18   C     C_R   0.222335 0.849278 0.962108 0.388375
C19   C     C_R   0.156693 0.220258 0.966328 0.393247
C20   C     C_R   0.789459 0.153700 0.952071 0.407842
C21   C     C_R   0.846298 0.210540 0.047927 0.407841
C22   C     C_R   0.209234 0.145877 0.050551 0.391761
C23   C     C_R   0.150721 0.777666 0.037892 0.388374
C24   C     C_R   0.779743 0.843307 0.033673 0.393248
C25   C     C_R   0.397178 0.317613 0.470620 -0.204087
C26   C     C_R   0.692241 0.404959 0.468171 -0.239254
C27   C     C_R   0.599256 0.691483 0.470574 -0.260927
C28   C     C_R   0.317969 0.605349 0.469760 -0.218569
C29   C     C_R   0.394651 0.682031 0.530241 -0.218567
C30   C     C_R   0.682385 0.602822 0.529379 -0.204088
C31   C     C_R   0.595040 0.307759 0.531829 -0.239255
C32   C     C_R   0.308517 0.400743 0.529426 -0.260924
C33   C     C_R   0.897179 0.817611 0.970619 -0.204083
C34   C     C_R   0.192239 0.904960 0.968169 -0.239254
C35   C     C_R   0.099258 0.191484 0.970576 -0.260938
C36   C     C_R   0.817970 0.105350 0.969760 -0.218571
C37   C     C_R   0.894649 0.182030 0.030239 -0.218573
C38   C     C_R   0.182388 0.102820 0.029381 -0.204081
C39   C     C_R   0.095040 0.807762 0.031831 -0.239251
C40   C     C_R   0.808517 0.900742 0.029424 -0.260933
C41   C     C_R   0.449209 0.283915 0.482258 0.002259
C42   C     C_R   0.719534 0.450772 0.488629 -0.025298
C43   C     C_R   0.550638 0.719518 0.489808 -0.020546
C44   C     C_R   0.284098 0.552450 0.481678 0.004275
C45   C     C_R   0.447550 0.715902 0.518322 0.004273
C46   C     C_R   0.716084 0.550792 0.517742 0.002259
C47   C     C_R   0.549228 0.280467 0.511371 -0.025296
C48   C     C_R   0.280482 0.449362 0.510192 -0.020543
C49   C     C_R   0.949211 0.783915 0.982257 0.002265
C50   C     C_R   0.219533 0.950772 0.988627 -0.025286
C51   C     C_R   0.050638 0.219519 0.989810 -0.020563
C52   C     C_R   0.784099 0.052451 0.981678 0.004273
C53   C     C_R   0.947548 0.215901 0.018321 0.004269
C54   C     C_R   0.216085 0.050790 0.017743 0.002263
C55   C     C_R   0.049229 0.780468 0.011373 -0.025281
C56   C     C_R   0.780481 0.949362 0.010191 -0.020557
C57   C     C_R   0.455099 0.220775 0.474126 0.007739
C58   C     C_R   0.779731 0.441371 0.500628 -0.010834
C59   C     C_R   0.558662 0.779951 0.501656 -0.004971
C60   C     C_R   0.220504 0.548091 0.474373 0.011724
C61   C     C_R   0.451910 0.779497 0.525627 0.011725
C62   C     C_R   0.779224 0.544903 0.525874 0.007740
C63   C     C_R   0.558630 0.220269 0.499373 -0.010837
C64   C     C_R   0.220050 0.441337 0.498344 -0.004968
C65   C     C_R   0.955103 0.720775 0.974125 0.007732
C66   C     C_R   0.279730 0.941370 0.000625 -0.010830
C67   C     C_R   0.058662 0.279950 0.001658 -0.004983
C68   C     C_R   0.720504 0.048092 0.974374 0.011727
C69   C     C_R   0.951906 0.279496 0.025626 0.011728
C70   C     C_R   0.279225 0.044899 0.025875 0.007735
C71   C     C_R   0.058631 0.720269 0.999375 -0.010830
C72   C     C_R   0.720050 0.941337 0.998343 -0.004981
C73   C     C_R   0.496201 0.312988 0.500922 -0.052269
C74   C     C_R   0.687012 0.503799 0.499078 -0.052266
C75   C     C_R   0.496316 0.686965 0.499741 -0.042012
C76   C     C_R   0.313035 0.503683 0.500259 -0.042010
C77   C     C_R   0.996201 0.812988 0.000922 -0.052268
C78   C     C_R   0.187011 0.003799 0.999077 -0.052267
C79   C     C_R   0.996316 0.186965 0.999742 -0.042015
C80   C     C_R   0.813035 0.003683 0.000258 -0.042013
C81   C     C_R   0.506226 0.187339 0.487297 -0.090891
C82   C     C_R   0.812661 0.493775 0.512704 -0.090884
C83   C     C_R   0.504723 0.812861 0.512941 -0.091610
C84   C     C_R   0.187139 0.495277 0.487059 -0.091607
C85   C     C_R   0.006228 0.687339 0.987298 -0.090904
C86   C     C_R   0.312661 0.993772 0.012702 -0.090895
C87   C     C_R   0.004722 0.312861 0.012942 -0.091608
C88   C     C_R   0.687139 0.995277 0.987059 -0.091608
C89   C     C_R   0.620144 0.501455 0.499528 0.840480
C90   C     C_R   0.498191 0.620116 0.499668 0.815415
C91   C     C_R   0.379884 0.501809 0.500332 0.815414
C92   C     C_R   0.498545 0.379856 0.500472 0.840479
C93   C     C_R   0.120144 0.001455 0.999528 0.840479
C94   C     C_R   0.998191 0.120116 0.999668 0.815421
C95   C     C_R   0.879884 0.001809 0.000332 0.815417
C96   C     C_R   0.998544 0.879856 0.000472 0.840477
C97   C     C_R   0.500743 0.998743 0.432834 0.996147
C98   C     C_R   0.998879 0.500683 0.432841 0.995868
C99   C     C_R   0.499316 0.001121 0.567159 0.995865
C100  C     C_R   0.001256 0.499257 0.567166 0.996161
C101  C     C_R   0.000743 0.498741 0.932833 0.996109
C102  C     C_R   0.498879 0.000683 0.932841 0.995873
C103  C     C_R   0.999316 0.501121 0.067159 0.995879
C104  C     C_R   0.501258 0.999257 0.067167 0.996124
C105  C     C_R   0.540508 0.038594 0.375735 0.384153
C106  C     C_R   0.951925 0.537250 0.378014 0.340349
C107  C     C_R   0.466530 0.953052 0.378115 0.340310
C108  C     C_R   0.042363 0.470018 0.375873 0.383017
C109  C     C_R   0.462748 0.048077 0.621986 0.340357
C110  C     C_R   0.961388 0.459508 0.624264 0.384164
C111  C     C_R   0.529991 0.957650 0.624127 0.383000
C112  C     C_R   0.046957 0.533453 0.621885 0.340292
C113  C     C_R   0.040543 0.538562 0.875734 0.384137
C114  C     C_R   0.451925 0.037248 0.878013 0.340345
C115  C     C_R   0.966492 0.453082 0.878112 0.340360
C116  C     C_R   0.542376 0.970033 0.875873 0.383019
C117  C     C_R   0.962761 0.548077 0.121987 0.340336
C118  C     C_R   0.461417 0.959474 0.124265 0.384145
C119  C     C_R   0.029962 0.457619 0.124126 0.383025
C120  C     C_R   0.546929 0.033489 0.121888 0.340331
C121  C     C_R   0.542196 0.036365 0.339896 -0.168695
C122  C     C_R   0.951074 0.538750 0.342012 -0.154052
C123  C     C_R   0.468586 0.951411 0.342186 -0.155696
C124  C     C_R   0.040910 0.471738 0.340053 -0.166308
C125  C     C_R   0.461255 0.048936 0.657988 -0.154051
C126  C     C_R   0.963613 0.457821 0.660104 -0.168694
C127  C     C_R   0.528278 0.959113 0.659946 -0.166320
C128  C     C_R   0.048597 0.531395 0.657815 -0.155694
C129  C     C_R   0.042231 0.536333 0.839894 -0.168707
C130  C     C_R   0.451082 0.038759 0.842011 -0.154046
C131  C     C_R   0.968547 0.451444 0.842182 -0.155714
C132  C     C_R   0.540933 0.971766 0.840053 -0.166299
C133  C     C_R   0.961254 0.548921 0.157989 -0.154043
C134  C     C_R   0.463642 0.957787 0.160104 -0.168702
C135  C     C_R   0.028232 0.459063 0.159946 -0.166298
C136  C     C_R   0.548566 0.031433 0.157817 -0.155704
C137  C     C_R   0.506296 0.993017 0.322838 -0.065487
C138  C     C_R   0.995351 0.505813 0.322821 -0.065667
C139  C     C_R   0.494201 0.004671 0.677179 -0.065674
C140  C     C_R   0.006974 0.493703 0.677162 -0.065506
C141  C     C_R   0.006294 0.493018 0.822836 -0.065493
C142  C     C_R   0.495372 0.005839 0.822820 -0.065669
C143  C     C_R   0.994168 0.504628 0.177180 -0.065677
C144  C     C_R   0.506973 0.993706 0.177164 -0.065482
C145  C     C_R   0.502506 0.996905 0.395156 -0.215905
C146  C     C_R   0.997622 0.502533 0.395171 -0.215803
C147  C     C_R   0.497468 0.002382 0.604829 -0.215795
C148  C     C_R   0.003092 0.497493 0.604843 -0.215893
C149  C     C_R   0.002506 0.496903 0.895155 -0.215920
C150  C     C_R   0.497625 0.002534 0.895171 -0.215801
C151  C     C_R   0.997466 0.502374 0.104829 -0.215790
C152  C     C_R   0.503093 0.997494 0.104844 -0.215910
C153  C     C_R   0.507995 0.992397 0.215057 0.355536
C154  C     C_R   0.993808 0.505571 0.215069 0.354840
C155  C     C_R   0.494432 0.006208 0.784931 0.354850
C156  C     C_R   0.007599 0.491995 0.784943 0.355595
C157  C     C_R   0.007996 0.492397 0.715055 0.355597
C158  C     C_R   0.493848 0.005625 0.715067 0.354848
C159  C     C_R   0.994400 0.506165 0.284932 0.354835
C160  C     C_R   0.507600 0.991994 0.284945 0.355527
C161  C     C_R   0.412496 0.195472 0.450671 0.352911
C162  C     C_R   0.803387 0.379574 0.500145 0.416876
C163  C     C_R   0.620647 0.803656 0.501996 0.418549
C164  C     C_R   0.194367 0.594675 0.452466 0.355972
C165  C     C_R   0.405326 0.805634 0.547535 0.355973
C166  C     C_R   0.804528 0.587509 0.549327 0.352920
C167  C     C_R   0.620426 0.196612 0.499857 0.416872
C168  C     C_R   0.196344 0.379352 0.498003 0.418549
C169  C     C_R   0.912506 0.695471 0.950668 0.352884
C170  C     C_R   0.303387 0.879573 0.000140 0.416857
C171  C     C_R   0.120647 0.303656 0.002000 0.418559
C172  C     C_R   0.694366 0.094678 0.952467 0.355982
C173  C     C_R   0.905318 0.305634 0.047531 0.355989
C174  C     C_R   0.304528 0.087498 0.049331 0.352897
C175  C     C_R   0.120428 0.696613 0.999860 0.416850
C176  C     C_R   0.696344 0.879352 0.998001 0.418554
C177  C     C_R   0.361967 0.230061 0.439391 -0.169791
C178  C     C_R   0.776212 0.335360 0.479489 -0.228253
C179  C     C_R   0.667986 0.775019 0.483108 -0.211700
C180  C     C_R   0.228035 0.647968 0.443038 -0.171185
C181  C     C_R   0.352033 0.771966 0.556963 -0.171186
C182  C     C_R   0.769937 0.638037 0.560607 -0.169792
C183  C     C_R   0.664640 0.223788 0.520513 -0.228256
C184  C     C_R   0.224981 0.332014 0.516891 -0.211695
C185  C     C_R   0.861976 0.730059 0.939387 -0.169787
C186  C     C_R   0.276209 0.835360 0.979484 -0.228247
C187  C     C_R   0.167986 0.275020 0.983113 -0.211698
C188  C     C_R   0.728035 0.147971 0.943040 -0.171179
C189  C     C_R   0.852025 0.271965 0.056958 -0.171180
C190  C     C_R   0.269940 0.138027 0.060612 -0.169789
C191  C     C_R   0.164640 0.723791 0.020516 -0.228245
C192  C     C_R   0.724981 0.832014 0.016888 -0.211696
H1    H     H_    0.571223 0.069243 0.325431 0.205902
H2    H     H_    0.915329 0.565060 0.329144 0.205024
H3    H     H_    0.440828 0.917270 0.329487 0.206120
H4    H     H_    0.076066 0.446636 0.325737 0.206398
H5    H     H_    0.434941 0.084680 0.670855 0.205023
H6    H     H_    0.930725 0.428805 0.674569 0.205901
H7    H     H_    0.553387 0.923964 0.674262 0.206401
H8    H     H_    0.082747 0.559140 0.670514 0.206122
H9    H     H_    0.071289 0.569184 0.825430 0.205900
H10   H     H_    0.415335 0.065067 0.829144 0.205025
H11   H     H_    0.940758 0.417329 0.829483 0.206120
H12   H     H_    0.576096 0.946673 0.825738 0.206401
H13   H     H_    0.934954 0.584672 0.170857 0.205026
H14   H     H_    0.430778 0.928742 0.174567 0.205905
H15   H     H_    0.053321 0.423898 0.174262 0.206400
H16   H     H_    0.582692 0.059209 0.170516 0.206126
H17   H     H_    0.710926 0.204700 0.521699 0.213222
H18   H     H_    0.789177 0.669431 0.578982 0.219939
H19   H     H_    0.316545 0.792506 0.573254 0.216359
H20   H     H_    0.206496 0.285320 0.516858 0.214103
H21   H     H_    0.714680 0.793504 0.483141 0.214103
H22   H     H_    0.795299 0.289073 0.478304 0.213222
H23   H     H_    0.330575 0.210821 0.421015 0.219938
H24   H     H_    0.207494 0.683457 0.426748 0.216360
H25   H     H_    0.210927 0.704703 0.021703 0.213225
H26   H     H_    0.289180 0.169417 0.078990 0.219937
H27   H     H_    0.816534 0.292505 0.073246 0.216360
H28   H     H_    0.706496 0.785319 0.016855 0.214104
H29   H     H_    0.214680 0.293504 0.983147 0.214104
H30   H     H_    0.295297 0.789073 0.978298 0.213226
H31   H     H_    0.830587 0.710818 0.921008 0.219937
H32   H     H_    0.707494 0.183461 0.926751 0.216361
H33   H     H_    0.390198 0.365540 0.477104 0.166079
H34   H     H_    0.647916 0.411509 0.456387 0.208084
H35   H     H_    0.594105 0.646580 0.459302 0.203055
H36   H     H_    0.367062 0.609660 0.473546 0.160237
H37   H     H_    0.390340 0.632938 0.526455 0.160238
H38   H     H_    0.634458 0.609802 0.522895 0.166080
H39   H     H_    0.588491 0.352086 0.543613 0.208085
H40   H     H_    0.353420 0.405894 0.540697 0.203054
H41   H     H_    0.890197 0.865537 0.977104 0.166078
H42   H     H_    0.147912 0.911510 0.956386 0.208086
H43   H     H_    0.094108 0.146581 0.959304 0.203053
H44   H     H_    0.867063 0.109660 0.973545 0.160238
H45   H     H_    0.890340 0.132937 0.026454 0.160239
H46   H     H_    0.134461 0.109802 0.022897 0.166080
H47   H     H_    0.088490 0.852089 0.043613 0.208087
H48   H     H_    0.853420 0.905893 0.040696 0.203053
N1    N     N_R   0.469467 0.953676 0.268044 -0.144645
N2    N     N_R   0.032392 0.467854 0.267110 -0.144657
N3    N     N_R   0.546186 0.030245 0.266250 -0.144728
N4    N     N_R   0.955942 0.544300 0.267172 -0.143793
N5    N     N_R   0.532158 0.967636 0.732889 -0.144660
N6    N     N_R   0.046392 0.530434 0.731956 -0.144681
N7    N     N_R   0.455708 0.044077 0.732828 -0.143795
N8    N     N_R   0.969670 0.453903 0.733750 -0.144746
N9    N     N_R   0.046171 0.530243 0.766247 -0.144746
N10   N     N_R   0.532466 0.967942 0.767108 -0.144667
N11   N     N_R   0.969481 0.453680 0.768041 -0.144675
N12   N     N_R   0.455939 0.044308 0.767172 -0.143801
N13   N     N_R   0.032081 0.467542 0.232891 -0.144661
N14   N     N_R   0.469655 0.953900 0.233753 -0.144723
N15   N     N_R   0.955707 0.544065 0.232828 -0.143798
N16   N     N_R   0.546406 0.030436 0.231958 -0.144670
O1    O     O_R   0.551620 0.091530 0.500110 -0.598539
O2    O     O_R   0.908470 0.551620 0.500110 -0.578698
O3    O     O_R   0.448380 0.908470 0.500110 -0.578271
O4    O     O_R   0.091530 0.448380 0.500110 -0.600210
O5    O     O_R   0.551620 0.908470 0.499890 -0.600212
O6    O     O_R   0.908470 0.448380 0.499890 -0.598540
O7    O     O_R   0.448380 0.091530 0.499890 -0.578699
O8    O     O_R   0.091530 0.551620 0.499890 -0.578269
O9    O     O_R   0.051620 0.591530 0.000110 -0.598529
O10   O     O_R   0.408470 0.051620 0.000110 -0.578701
O11   O     O_R   0.948380 0.408470 0.000110 -0.578271
O12   O     O_R   0.591530 0.948380 0.000110 -0.600215
O13   O     O_R   0.051620 0.408470 0.999890 -0.600218
O14   O     O_R   0.408470 0.948380 0.999890 -0.598530
O15   O     O_R   0.948380 0.591530 0.999890 -0.578703
O16   O     O_R   0.591530 0.051620 0.999890 -0.578271
O17   O     O_R   0.551620 0.999930 0.449180 -0.585848
O18   O     O_R   0.000070 0.551620 0.449180 -0.549494
O19   O     O_R   0.448380 0.000070 0.449180 -0.545792
O20   O     O_R   0.999930 0.448380 0.449180 -0.581960
O21   O     O_R   0.551620 0.000070 0.550820 -0.581962
O22   O     O_R   0.000070 0.448380 0.550820 -0.585856
O23   O     O_R   0.448380 0.999930 0.550820 -0.549486
O24   O     O_R   0.999930 0.551620 0.550820 -0.545798
O25   O     O_R   0.051620 0.499930 0.949180 -0.585826
O26   O     O_R   0.500070 0.051620 0.949180 -0.549500
O27   O     O_R   0.948380 0.500070 0.949180 -0.545776
O28   O     O_R   0.499930 0.948380 0.949180 -0.581957
O29   O     O_R   0.051620 0.500070 0.050820 -0.581959
O30   O     O_R   0.500070 0.948380 0.050820 -0.585837
O31   O     O_R   0.948380 0.499930 0.050820 -0.549501
O32   O     O_R   0.499930 0.051620 0.050820 -0.545784
O33   O     O_R   0.591500 0.499930 0.528880 -0.598859
O34   O     O_R   0.500070 0.591500 0.528880 -0.597711
O35   O     O_R   0.408500 0.500070 0.528880 -0.615698
O36   O     O_R   0.499930 0.408500 0.528880 -0.618545
O37   O     O_R   0.591500 0.500070 0.471120 -0.618545
O38   O     O_R   0.500070 0.408500 0.471120 -0.598859
O39   O     O_R   0.408500 0.499930 0.471120 -0.597713
O40   O     O_R   0.499930 0.591500 0.471120 -0.615700
O41   O     O_R   0.091500 0.999930 0.028880 -0.598861
O42   O     O_R   0.000070 0.091500 0.028880 -0.597713
O43   O     O_R   0.908500 0.000070 0.028880 -0.615699
O44   O     O_R   0.999930 0.908500 0.028880 -0.618543
O45   O     O_R   0.091500 0.000070 0.971120 -0.618545
O46   O     O_R   0.000070 0.908500 0.971120 -0.598860
O47   O     O_R   0.908500 0.999930 0.971120 -0.597714
O48   O     O_R   0.999930 0.091500 0.971120 -0.615702
Zn1   Zn    Zn3+2 0.568970 0.000000 0.500000 1.172282
Zn2   Zn    Zn3+2 0.000000 0.568970 0.500000 1.182165
Zn3   Zn    Zn3+2 0.431030 0.000000 0.500000 1.182173
Zn4   Zn    Zn3+2 1.000000 0.431030 0.500000 1.172278
Zn5   Zn    Zn3+2 0.068970 0.500000 0.000000 1.172297
Zn6   Zn    Zn3+2 0.500000 0.068970 0.000000 1.182171
Zn7   Zn    Zn3+2 0.931030 0.500000 0.000000 1.182175
Zn8   Zn    Zn3+2 0.500000 0.931030 0.000000 1.172294
Zn9   Zn    Zn3+2 0.500000 0.500000 0.538510 1.059021
Zn10  Zn    Zn3+2 0.500000 0.500000 0.461490 1.059017
Zn11  Zn    Zn3+2 0.000000 0.000000 0.038510 1.059019
Zn12  Zn    Zn3+2 0.000000 0.000000 0.961490 1.059013
Cl1   Cl    Cl    0.584517 0.096564 0.395009 -0.427752
Cl2   Cl    Cl    0.893362 0.577294 0.400750 -0.502881
Cl3   Cl    Cl    0.420369 0.897489 0.400847 -0.492464
Cl4   Cl    Cl    0.103147 0.429041 0.395319 -0.427445
Cl5   Cl    Cl    0.422692 0.106626 0.599250 -0.502881
Cl6   Cl    Cl    0.903406 0.415516 0.604989 -0.427769
Cl7   Cl    Cl    0.570968 0.896864 0.604683 -0.427435
Cl8   Cl    Cl    0.102536 0.579593 0.599153 -0.492489
Cl9   Cl    Cl    0.084599 0.596497 0.895007 -0.427718
Cl10  Cl    Cl    0.393349 0.077272 0.900749 -0.502902
Cl11  Cl    Cl    0.920284 0.397555 0.900841 -0.492412
Cl12  Cl    Cl    0.603161 0.929059 0.895320 -0.427455
Cl13  Cl    Cl    0.922743 0.606657 0.099251 -0.502913
Cl14  Cl    Cl    0.403468 0.915439 0.104989 -0.427733
Cl15  Cl    Cl    0.070930 0.396834 0.104678 -0.427471
Cl16  Cl    Cl    0.602474 0.079676 0.099158 -0.492435
Cl17  Cl    Cl    0.427662 0.128678 0.427194 -0.563942
Cl18  Cl    Cl    0.853600 0.349603 0.531752 -0.417278
Cl19  Cl    Cl    0.646588 0.855678 0.533111 -0.417333
Cl20  Cl    Cl    0.127332 0.583200 0.428763 -0.558204
Cl21  Cl    Cl    0.416803 0.872668 0.571238 -0.558194
Cl22  Cl    Cl    0.871324 0.572349 0.572803 -0.563936
Cl23  Cl    Cl    0.650399 0.146400 0.468250 -0.417268
Cl24  Cl    Cl    0.144322 0.353412 0.466889 -0.417336
Cl25  Cl    Cl    0.927685 0.628683 0.927187 -0.563962
Cl26  Cl    Cl    0.353599 0.849599 0.031746 -0.417260
Cl27  Cl    Cl    0.146585 0.355679 0.033115 -0.417334
Cl28  Cl    Cl    0.627330 0.083206 0.928765 -0.558206
Cl29  Cl    Cl    0.916787 0.372671 0.071233 -0.558199
Cl30  Cl    Cl    0.371319 0.072325 0.072810 -0.563955
Cl31  Cl    Cl    0.150402 0.646401 0.968254 -0.417251
Cl32  Cl    Cl    0.644321 0.853413 0.966887 -0.417333
Cl33  Cl    Cl    0.294216 0.335627 0.432188 -0.490709
Cl34  Cl    Cl    0.689116 0.294738 0.435214 -0.482399
Cl35  Cl    Cl    0.716993 0.683347 0.443700 -0.508107
Cl36  Cl    Cl    0.332439 0.719589 0.438883 -0.504785
Cl37  Cl    Cl    0.280413 0.667561 0.561119 -0.504773
Cl38  Cl    Cl    0.664370 0.705785 0.567811 -0.490708
Cl39  Cl    Cl    0.705260 0.310885 0.564788 -0.482400
Cl40  Cl    Cl    0.316653 0.283006 0.556299 -0.508108
Cl41  Cl    Cl    0.794218 0.835620 0.932186 -0.490704
Cl42  Cl    Cl    0.189109 0.794739 0.935212 -0.482398
Cl43  Cl    Cl    0.216997 0.183349 0.943705 -0.508109
Cl44  Cl    Cl    0.832441 0.219590 0.938885 -0.504811
Cl45  Cl    Cl    0.780408 0.167558 0.061113 -0.504801
Cl46  Cl    Cl    0.164376 0.205782 0.067814 -0.490705
Cl47  Cl    Cl    0.205260 0.810892 0.064789 -0.482395
Cl48  Cl    Cl    0.816653 0.783004 0.056296 -0.508105

loop_
_geom_bond_atom_site_label_1
_geom_bond_atom_site_label_2
_ccdc_geom_bond_type
O14   Zn8   S    
N5    N10   A    
C5    O9    A    
C19   Cl43  S    
C6    O14   A    
C13   Cl37  S    
C169  Cl25  S    
C117  C133  A    
C191  H25   S    
C9    C177  A    
N7    N12   A    
C162  Cl18  S    
C91   O35   A    
C46   C62   A    
C58   C82   A    
C22   C38   A    
C64   C84   A    
C17   Cl41  S    
C75   C90   S    
O47   Zn12  S    
C1    O7    A    
C3    O5    A    
C31   H39   S    
C22   C190  A    
C157  N6    A    
O37   Zn10  S    
C130  H10   S    
C171  Cl27  S    
C4    O4    A    
O24   Zn2   S    
C114  C130  A    
C28   H36   S    
C69   C173  A    
C122  H2    S    
C14   C182  A    
O48   Zn12  S    
C108  C146  A    
C154  N15   A    
C43   C75   A    
C34   C50   A    
O41   Zn11  S    
C25   C41   A    
O3    Zn3   S    
C156  N9    A    
C143  C154  S    
C28   C44   A    
C29   C45   A    
C37   C53   A    
C170  Cl26  S    
O23   Zn3   S    
C4    C84   S    
C11   C27   A    
C50   C66   A    
C97   O19   A    
C103  O31   A    
O12   Zn8   S    
C98   O20   A    
O4    Zn4   S    
C3    C83   S    
C11   C179  A    
C114  C150  A    
C161  C177  A    
C58   C162  A    
C159  N4    A    
O11   Zn7   S    
O18   Zn2   S    
C124  C138  A    
C99   C147  S    
C137  C160  S    
C97   C145  S    
C112  Cl8   S    
O25   Zn5   S    
C16   C184  A    
C141  C156  S    
O35   Zn9   S    
C67   C171  A    
C104  C152  S    
O20   Zn4   S    
C19   C35   A    
C27   H35   S    
C2    O6    A    
O29   Zn5   S    
C3    O3    A    
C25   H33   S    
C116  Cl12  S    
C157  N8    A    
C119  C151  A    
C48   C64   A    
C106  Cl2   S    
C57   C161  A    
C64   C168  A    
C185  H31   S    
C95   O47   A    
C33   C49   A    
C55   C71   A    
C189  H27   S    
C104  O30   A    
C154  N13   A    
C32   H40   S    
O45   Zn12  S    
C48   C76   A    
C166  C182  A    
C39   H47   S    
C156  N11   A    
C163  Cl19  S    
C90   O34   A    
C20   C188  A    
C9    Cl33  S    
C182  H18   S    
C114  Cl10  S    
C11   Cl35  S    
C44   C76   A    
C103  O29   A    
C42   C58   A    
C98   O18   A    
C99   O23   A    
C6    O10   A    
O34   Zn9   S    
C159  N2    A    
C118  C134  A    
C43   C59   A    
C5    C85   S    
C126  H6    S    
C63   C167  A    
C106  C122  A    
C109  C147  A    
C96   O46   A    
C110  C148  A    
C39   C55   A    
O40   Zn10  S    
C79   C94   S    
C24   C192  A    
C15   Cl39  S    
C12   Cl36  S    
C56   C72   A    
C53   C69   A    
O30   Zn8   S    
C21   Cl45  S    
C8    C88   S    
C110  Cl6   S    
C118  C152  A    
C38   H46   S    
C173  Cl29  S    
C21   C189  A    
C116  C132  A    
C4    O8    A    
C115  C149  A    
C117  C151  A    
C51   C67   A    
C94   O42   A    
C80   C95   S    
C7    O11   A    
C70   C174  A    
C110  C126  A    
C117  Cl13  S    
C89   O33   A    
C62   C166  A    
C104  O32   A    
C13   C181  A    
C163  C179  A    
C35   H43   S    
C158  N7    A    
C10   Cl34  S    
C33   H41   S    
C26   C42   A    
C135  H15   S    
O33   Zn9   S    
O46   Zn12  S    
C30   C46   A    
C73   C92   S    
C164  C180  A    
C66   C86   A    
C15   C31   A    
C36   H44   S    
C123  C137  A    
C77   C96   S    
C6    C86   S    
C101  O25   A    
C128  C140  A    
C29   H37   S    
C40   H48   S    
C99   O21   A    
C68   C88   A    
C60   C164  A    
C49   C77   A    
C61   C165  A    
C62   C82   A    
O10   Zn6   S    
C51   C79   A    
C162  C178  A    
C59   C163  A    
C76   C91   S    
C41   C73   A    
O19   Zn3   S    
N2    N13   A    
O6    Zn4   S    
C22   Cl46  S    
O1    Zn1   S    
N6    N9    A    
C34   H42   S    
C124  H4    S    
C174  Cl30  S    
C107  C123  A    
C93   O41   A    
O21   Zn1   S    
C9    C25   A    
C26   H34   S    
C161  Cl17  S    
C12   C28   A    
C13   C29   A    
C59   C83   A    
C47   C63   A    
O27   Zn7   S    
C134  H14   S    
C129  C141  A    
C1    C81   S    
C92   O38   A    
C176  Cl32  S    
C177  H23   S    
C19   C187  A    
C7    C87   S    
C17   C185  A    
C40   C56   A    
C15   C183  A    
C20   Cl44  S    
C158  N5    A    
C131  H11   S    
C168  Cl24  S    
C69   C87   A    
C103  C151  S    
C186  H30   S    
C31   C47   A    
C32   C48   A    
C123  H3    S    
C17   C33   A    
C190  H26   S    
C121  H1    S    
C1    O1    A    
C120  Cl16  S    
C132  H12   S    
C42   C74   A    
C178  H22   S    
C102  O28   A    
C180  H24   S    
C47   C73   A    
C61   C83   A    
C136  H16   S    
C101  O27   A    
C187  H29   S    
O39   Zn10  S    
C119  C135  A    
N3    N16   A    
C127  H7    S    
C120  C136  A    
O15   Zn7   S    
C128  H8    S    
C111  C147  A    
C38   C54   A    
C105  C145  A    
C170  C186  A    
C122  C138  A    
C113  C129  A    
C174  C190  A    
C92   O36   A    
C2    C82   S    
C16   C32   A    
O8    Zn2   S    
O22   Zn4   S    
C18   Cl42  S    
C100  O22   A    
C12   C180  A    
C111  Cl7   S    
C56   C80   A    
C155  N12   A    
C181  H19   S    
O5    Zn1   S    
C41   C57   A    
C136  C144  A    
C68   C172  A    
C89   O37   A    
C44   C60   A    
C55   C77   A    
C45   C61   A    
C71   C175  A    
C108  C124  A    
C72   C176  A    
O16   Zn6   S    
C112  C128  A    
C169  C185  A    
C20   C36   A    
C27   C43   A    
C21   C37   A    
C8    O16   A    
C65   C169  A    
C16   Cl40  S    
O44   Zn11  S    
C52   C80   A    
C175  Cl31  S    
C54   C78   A    
C153  N14   A    
C102  O26   A    
C8    O12   A    
C23   Cl47  S    
C116  C150  A    
O28   Zn8   S    
C167  Cl23  S    
C115  C131  A    
C125  C139  A    
C126  C140  A    
C49   C65   A    
C63   C81   A    
C74   C89   S    
C93   O45   A    
C53   C79   A    
C172  C188  A    
C175  C191  A    
C107  C145  A    
C176  C192  A    
C78   C93   S    
C121  C137  A    
C119  Cl15  S    
C96   O44   A    
C101  C149  S    
C144  C153  S    
C113  Cl9   S    
O2    Zn2   S    
C71   C85   A    
C115  Cl11  S    
C138  C159  S    
C167  C183  A    
C139  C158  S    
C168  C184  A    
N4    N15   A    
C54   C70   A    
C142  C155  S    
C52   C68   A    
N8    N11   A    
O43   Zn11  S    
C10   C26   A    
C125  H5    S    
C172  Cl28  S    
C100  O24   A    
C179  H21   S    
C127  C139  A    
C14   C30   A    
C130  C142  A    
O26   Zn6   S    
O32   Zn6   S    
C72   C88   A    
C155  N10   A    
C184  H20   S    
O13   Zn5   S    
C132  C142  A    
C5    O15   A    
C10   C178  A    
C113  C149  A    
C23   C191  A    
C7    O13   A    
O36   Zn9   S    
O17   Zn1   S    
C98   C146  S    
C90   O40   A    
C134  C144  A    
C18   C186  A    
O38   Zn10  S    
C112  C148  A    
C133  C143  A    
C109  Cl5   S    
C140  C157  S    
O7    Zn3   S    
C37   H45   S    
C91   O39   A    
C105  C121  A    
C18   C34   A    
C46   C74   A    
C165  Cl21  S    
C118  Cl14  S    
C133  H13   S    
C188  H32   S    
C109  C125  A    
C2    O2    A    
C153  N16   A    
C102  C150  S    
C120  C152  A    
C111  C127  A    
C160  N1    A    
C57   C81   A    
C192  H28   S    
C70   C86   A    
C105  Cl1   S    
C50   C78   A    
C164  Cl20  S    
C107  Cl3   S    
C108  Cl4   S    
C95   O43   A    
C66   C170  A    
C94   O48   A    
C36   C52   A    
O42   Zn11  S    
C65   C85   A    
C24   Cl48  S    
C183  H17   S    
C67   C87   A    
C106  C146  A    
C171  C187  A    
C45   C75   A    
C165  C181  A    
C30   H38   S    
C129  H9    S    
C35   C51   A    
C60   C84   A    
C166  Cl22  S    
C100  C148  S    
C23   C39   A    
C173  C189  A    
C135  C143  A    
C24   C40   A    
C14   Cl38  S    
C160  N3    A    
C131  C141  A    
O9    Zn5   S    
N1    N14   A    
O31   Zn7   S    
C97   O17   A    
