data_mof_unit_63976.cif
_audit_creation_date              2012-12-10T17:56:22-0500
_audit_creation_method            fapswitch 2.2
_symmetry_space_group_name_H-M    P1
_symmetry_Int_Tables_number       1
_space_group_crystal_system       triclinic
_cell_length_a                    21.667401
_cell_length_b                    21.667401
_cell_length_c                    29.133101
_cell_angle_alpha                 90.000022
_cell_angle_beta                  89.999966
_cell_angle_gamma                 90.0
_cell_volume                      13677.2994772

loop_
_atom_site_label
_atom_site_type_symbol
_atom_type_description
_atom_site_fract_x
_atom_site_fract_y
_atom_site_fract_z
_atom_type_partial_charge
C1    C     C_R   0.380270 1.000000 1.000000 0.874930
C2    C     C_R   0.121708 0.000000 1.000000 0.919634
C3    C     C_1   0.033807 0.684967 0.918109 0.157354
C4    C     C_1   0.684967 0.033813 0.081890 0.157355
C5    C     C_1   0.033808 0.315033 0.081891 0.157354
C6    C     C_1   0.315033 0.966196 0.081892 0.157354
C7    C     C_1   0.966193 0.684967 0.081891 0.157354
C8    C     C_1   0.815033 0.533805 0.418109 0.157353
C9    C     C_1   0.466192 0.815033 0.418109 0.157355
C10   C     C_1   0.184967 0.466191 0.418110 0.157355
C11   C     C_1   0.533810 0.184967 0.418110 0.157355
C12   C     C_1   0.184967 0.533809 0.581890 0.157355
C13   C     C_R   0.000000 0.121708 0.000000 0.919634
C14   C     C_1   0.533808 0.815033 0.581891 0.157355
C15   C     C_1   0.815033 0.466195 0.581891 0.157354
C16   C     C_1   0.466190 0.184967 0.581890 0.157355
C17   C     C_R   0.878292 1.000000 0.000000 0.919633
C18   C     C_R   0.500000 0.378292 0.500000 0.919634
C19   C     C_R   0.621708 0.500000 0.500000 0.919634
C20   C     C_R   0.500000 0.621708 0.500000 0.919634
C21   C     C_R   0.378292 0.500000 0.500000 0.919634
C22   C     C_R   0.500000 0.000000 0.085756 0.889177
C23   C     C_R   1.000000 0.500000 0.085756 0.889177
C24   C     C_R   0.500000 0.000000 0.914244 0.889175
C25   C     C_R   0.000000 0.380270 0.000000 0.874930
C26   C     C_R   0.000000 0.500000 0.914244 0.889176
C27   C     C_R   1.000000 0.500000 0.585756 0.889177
C28   C     C_R   0.500000 1.000000 0.585756 0.889177
C29   C     C_R   1.000000 0.500000 0.414244 0.889176
C30   C     C_R   0.500000 0.000000 0.414244 0.889176
C31   C     C_1   0.500000 0.000000 0.136570 -0.161811
C32   C     C_1   1.000000 0.500000 0.136570 -0.161810
C33   C     C_1   0.500000 0.000000 0.863430 -0.161811
C34   C     C_1   0.000000 0.500000 0.863430 -0.161811
C35   C     C_1   1.000000 0.500000 0.636570 -0.161810
C36   C     C_R   0.619730 0.000000 0.000000 0.874928
C37   C     C_1   0.500000 0.000000 0.636570 -0.161811
C38   C     C_1   0.000000 0.500000 0.363430 -0.161810
C39   C     C_1   0.500000 0.000000 0.363430 -0.161811
C40   C     C_1   0.500000 0.000000 0.178878 0.023437
C41   C     C_1   1.000000 0.500000 0.178878 0.023437
C42   C     C_1   0.500000 0.000000 0.821122 0.023437
C43   C     C_1   1.000000 0.500000 0.821122 0.023437
C44   C     C_1   0.000000 0.500000 0.678878 0.023437
C45   C     C_1   0.500000 0.000000 0.678878 0.023437
C46   C     C_1   0.000000 0.500000 0.321122 0.023437
C47   C     C_R   0.000000 0.619730 0.000000 0.874929
C48   C     C_1   0.500000 0.000000 0.321122 0.023437
C49   C     C_1   0.500000 1.000000 0.228845 0.020076
C50   C     C_1   1.000000 0.500000 0.228845 0.020076
C51   C     C_1   0.500000 0.000000 0.771155 0.020076
C52   C     C_1   0.000000 0.500000 0.771155 0.020076
C53   C     C_1   1.000000 0.500000 0.728845 0.020076
C54   C     C_1   0.500000 0.000000 0.728845 0.020076
C55   C     C_1   1.000000 0.500000 0.271155 0.020076
C56   C     C_1   0.500000 0.000000 0.271155 0.020076
C57   C     C_R   0.283012 0.016872 0.959823 -0.010189
C58   C     C_R   0.880270 0.500000 0.500000 0.874930
C59   C     C_R   0.983126 0.283012 0.959823 -0.010189
C60   C     C_R   0.716988 0.983123 0.959824 -0.010189
C61   C     C_R   0.016874 0.716988 0.959823 -0.010188
C62   C     C_R   0.716988 0.016877 0.040176 -0.010189
C63   C     C_R   0.016874 0.283012 0.040177 -0.010188
C64   C     C_R   0.283012 0.983128 0.040177 -0.010188
C65   C     C_R   0.983126 0.716988 0.040177 -0.010188
C66   C     C_R   0.783012 0.516873 0.459823 -0.010189
C67   C     C_R   0.483126 0.783012 0.459823 -0.010189
C68   C     C_R   0.216988 0.483125 0.459824 -0.010188
C69   C     C_R   0.500000 0.880270 0.500000 0.874930
C70   C     C_R   0.516875 0.216988 0.459824 -0.010188
C71   C     C_R   0.216988 0.516875 0.540176 -0.010188
C72   C     C_R   0.516874 0.783012 0.540177 -0.010188
C73   C     C_R   0.783012 0.483127 0.540177 -0.010188
C74   C     C_R   0.483125 0.216988 0.540176 -0.010188
C75   C     C_R   0.219279 0.016394 0.959990 -0.212369
C76   C     C_R   0.983604 0.219279 0.959990 -0.212369
C77   C     C_R   0.780721 0.983602 0.959991 -0.212370
C78   C     C_R   0.016395 0.780721 0.959990 -0.212369
C79   C     C_R   0.780720 0.016398 0.040009 -0.212369
C80   C     C_R   0.119730 0.500000 0.500000 0.874929
C81   C     C_R   0.016396 0.219279 0.040010 -0.212370
C82   C     C_R   0.219279 0.983606 0.040010 -0.212369
C83   C     C_R   0.983605 0.780720 0.040010 -0.212369
C84   C     C_R   0.719280 0.516394 0.459990 -0.212368
C85   C     C_R   0.483604 0.719279 0.459990 -0.212369
C86   C     C_R   0.280720 0.483604 0.459991 -0.212369
C87   C     C_R   0.516397 0.280720 0.459991 -0.212369
C88   C     C_R   0.280720 0.516396 0.540009 -0.212369
C89   C     C_R   0.516396 0.719279 0.540010 -0.212369
C90   C     C_R   0.719279 0.483606 0.540010 -0.212369
C91   C     C_R   0.500000 0.119730 0.500000 0.874929
C92   C     C_R   0.483603 0.280720 0.540009 -0.212369
C93   C     C_R   0.187749 1.000000 1.000000 -0.075472
C94   C     C_R   0.000000 0.187749 0.000000 -0.075471
C95   C     C_R   0.812251 1.000000 0.000000 -0.075469
C96   C     C_R   0.000000 0.812251 0.000000 -0.075471
C97   C     C_R   0.687749 0.500000 0.500000 -0.075472
C98   C     C_R   0.500000 0.687749 0.500000 -0.075471
C99   C     C_R   0.312251 0.500000 0.500000 -0.075471
C100  C     C_R   0.500000 0.312251 0.500000 -0.075471
C101  C     C_R   0.314599 1.000000 1.000000 -0.095568
C102  C     C_R   1.000000 0.878292 0.000000 0.919634
C103  C     C_R   0.000000 0.314599 0.000000 -0.095568
C104  C     C_R   0.685401 0.000000 0.000000 -0.095569
C105  C     C_R   0.000000 0.685401 0.000000 -0.095568
C106  C     C_R   0.814599 0.500000 0.500000 -0.095567
C107  C     C_R   0.500000 0.814599 0.500000 -0.095568
C108  C     C_R   0.185401 0.500000 0.500000 -0.095569
C109  C     C_R   0.500000 0.185401 0.500000 -0.095569
C110  C     C_1   0.315033 0.033804 0.918108 0.157353
C111  C     C_1   0.966192 0.315033 0.918109 0.157355
C112  C     C_1   0.684967 0.966187 0.918110 0.157356
H1    H     H_    0.194285 0.029225 0.929163 0.161705
H2    H     H_    0.470772 0.694285 0.429163 0.161705
H3    H     H_    0.305715 0.470771 0.429164 0.161704
H4    H     H_    0.529230 0.305715 0.429164 0.161704
H5    H     H_    0.305715 0.529229 0.570836 0.161704
H6    H     H_    0.529228 0.694285 0.570836 0.161704
H7    H     H_    0.694285 0.470775 0.570837 0.161705
H8    H     H_    0.470770 0.305715 0.570836 0.161704
H9    H     H_    0.970772 0.194285 0.929164 0.161705
H10   H     H_    0.805715 0.970767 0.929164 0.161704
H11   H     H_    0.029227 0.805715 0.929163 0.161705
H12   H     H_    0.805715 0.029233 0.070836 0.161703
H13   H     H_    0.029228 0.194285 0.070836 0.161705
H14   H     H_    0.194285 0.970775 0.070837 0.161705
H15   H     H_    0.970773 0.805715 0.070837 0.161705
H16   H     H_    0.694285 0.529225 0.429163 0.161705
N1    N     N_1   0.340675 0.047337 0.884746 -0.197324
N2    N     N_1   0.452658 0.840675 0.384748 -0.197323
N3    N     N_1   0.159325 0.452656 0.384748 -0.197323
N4    N     N_1   0.547345 0.159325 0.384748 -0.197323
N5    N     N_1   0.159325 0.547344 0.615252 -0.197323
N6    N     N_1   0.547342 0.840675 0.615252 -0.197323
N7    N     N_1   0.840675 0.452662 0.615253 -0.197324
N8    N     N_1   0.452655 0.159325 0.615252 -0.197323
N9    N     N_1   0.952658 0.340675 0.884748 -0.197323
N10   N     N_1   0.659325 0.952650 0.884749 -0.197322
N11   N     N_1   0.047341 0.659325 0.884747 -0.197323
N12   N     N_1   0.659325 0.047350 0.115251 -0.197322
N13   N     N_1   0.047342 0.340675 0.115252 -0.197323
N14   N     N_1   0.340675 0.952663 0.115253 -0.197324
N15   N     N_1   0.952659 0.659325 0.115253 -0.197324
N16   N     N_1   0.840675 0.547337 0.384747 -0.197324
O1    O     O_R   0.408380 0.948270 0.000000 -0.610773
O2    O     O_R   0.551730 0.908380 0.500000 -0.610773
O3    O     O_R   0.091620 0.551730 0.500000 -0.610773
O4    O     O_R   0.448270 0.091620 0.500000 -0.610773
O5    O     O_R   0.091620 0.448270 0.500000 -0.610773
O6    O     O_R   0.448270 0.908380 0.500000 -0.610773
O7    O     O_R   0.908380 0.551730 0.500000 -0.610773
O8    O     O_R   0.551730 0.091620 0.500000 -0.610773
O9    O     O_R   0.499990 0.948270 0.063150 -0.597306
O10   O     O_R   0.051730 0.499990 0.063150 -0.597305
O11   O     O_R   0.500010 0.051730 0.063150 -0.597305
O12   O     O_R   0.051730 0.408380 0.000000 -0.610773
O13   O     O_R   0.948270 0.500010 0.063150 -0.597305
O14   O     O_R   0.500010 0.948270 0.936850 -0.597304
O15   O     O_R   0.948270 0.499990 0.936850 -0.597304
O16   O     O_R   0.499990 0.051730 0.936850 -0.597306
O17   O     O_R   0.051730 0.500010 0.936850 -0.597305
O18   O     O_R   0.999990 0.448270 0.563150 -0.597305
O19   O     O_R   0.551730 0.999990 0.563150 -0.597305
O20   O     O_R   0.000010 0.551730 0.563150 -0.597305
O21   O     O_R   0.448270 0.000010 0.563150 -0.597305
O22   O     O_R   0.000010 0.448270 0.436850 -0.597304
O23   O     O_R   0.591620 0.051730 0.000000 -0.610773
O24   O     O_R   0.448270 0.999990 0.436850 -0.597304
O25   O     O_R   0.999990 0.551730 0.436850 -0.597305
O26   O     O_R   0.551730 0.000010 0.436850 -0.597305
O27   O     O_R   0.000010 0.908280 0.964370 -0.627902
O28   O     O_R   0.091720 0.000010 0.964370 -0.627903
O29   O     O_R   0.999990 0.091720 0.964370 -0.627902
O30   O     O_R   0.908280 0.999990 0.964370 -0.627902
O31   O     O_R   0.999990 0.908280 0.035630 -0.627902
O32   O     O_R   0.908280 0.000010 0.035630 -0.627902
O33   O     O_R   0.000010 0.091720 0.035630 -0.627903
O34   O     O_R   0.948270 0.591620 0.000000 -0.610773
O35   O     O_R   0.091720 0.999990 0.035630 -0.627902
O36   O     O_R   0.500010 0.408280 0.464370 -0.627902
O37   O     O_R   0.591720 0.500010 0.464370 -0.627903
O38   O     O_R   0.499990 0.591720 0.464370 -0.627902
O39   O     O_R   0.408280 0.499990 0.464370 -0.627902
O40   O     O_R   0.499990 0.408280 0.535630 -0.627902
O41   O     O_R   0.408280 0.500010 0.535630 -0.627902
O42   O     O_R   0.500010 0.591720 0.535630 -0.627903
O43   O     O_R   0.591720 0.499990 0.535630 -0.627902
O44   O     O_R   0.591620 0.948270 0.000000 -0.610773
O45   O     O_R   0.948270 0.408380 0.000000 -0.610773
O46   O     O_R   0.408380 0.051730 0.000000 -0.610773
O47   O     O_R   0.051730 0.591620 0.000000 -0.610773
O48   O     O_R   0.908380 0.448270 0.500000 -0.610773
Zn1   Zn    Zn3+2 0.500000 0.930930 0.000000 0.996487
Zn2   Zn    Zn3+2 1.000000 0.000000 0.047590 0.965428
Zn3   Zn    Zn3+2 0.500000 0.500000 0.452410 0.965428
Zn4   Zn    Zn3+2 0.500000 0.500000 0.547590 0.965428
Zn5   Zn    Zn3+2 0.069070 0.500000 0.000000 0.996487
Zn6   Zn    Zn3+2 0.500000 0.069070 0.000000 0.996487
Zn7   Zn    Zn3+2 0.930930 0.500000 0.000000 0.996487
Zn8   Zn    Zn3+2 1.000000 0.430930 0.500000 0.996487
Zn9   Zn    Zn3+2 0.569070 0.000000 0.500000 0.996487
Zn10  Zn    Zn3+2 0.000000 0.569070 0.500000 0.996487
Zn11  Zn    Zn3+2 0.430930 0.000000 0.500000 0.996487
Zn12  Zn    Zn3+2 1.000000 0.000000 0.952410 0.965428

loop_
_geom_bond_atom_site_label_1
_geom_bond_atom_site_label_2
_ccdc_geom_bond_type
C84   H16   S    
O34   Zn7   S    
C8    C66   S    
C81   C94   A    
C96   C102  S    
O43   Zn4   S    
C68   C86   A    
C1    O1    A    
O12   Zn5   S    
C67   C107  A    
C11   N4    T    
C19   O37   A    
C74   C109  A    
C7    N15   T    
C69   C107  S    
C11   C70   S    
C9    N2    T    
C17   O30   A    
C13   O29   A    
C111  N9    T    
C63   C81   A    
O29   Zn12  S    
C16   C74   S    
C33   C42   T    
O42   Zn4   S    
C85   H2    S    
C73   C90   A    
O2    Zn9   S    
C27   O18   A    
C91   O8    A    
C21   C99   S    
C24   O14   A    
C43   C52   S    
C65   C83   A    
C15   N7    T    
C6    C64   S    
C40   C49   S    
O18   Zn8   S    
C31   C40   T    
C5    C63   S    
C110  N1    T    
C21   O39   A    
C74   C92   A    
O27   Zn12  S    
O28   Zn12  S    
C10   N3    T    
C30   O26   A    
O26   Zn9   S    
C85   C98   A    
C76   C94   A    
O25   Zn10  S    
C44   C53   S    
C26   C34   S    
C80   O3    A    
C82   H14   S    
C78   C96   A    
C47   C105  S    
C46   C55   S    
O39   Zn3   S    
C32   C41   T    
C78   H11   S    
C75   H1    S    
C6    N14   T    
C51   C54   T    
C61   C105  A    
C90   C97   A    
O1    Zn1   S    
C2    C93   S    
C17   O32   A    
C42   C51   S    
C19   O43   A    
C1    O46   A    
O45   Zn7   S    
O15   Zn7   S    
C18   O36   A    
C82   C93   A    
C71   C108  A    
C25   O12   A    
C47   O47   A    
C69   O2    A    
C64   C101  A    
C18   C100  S    
O6    Zn11  S    
C66   C106  A    
C70   C87   A    
C65   C105  A    
C91   O4    A    
C24   C33   S    
C62   C104  A    
C22   O11   A    
C3    C61   S    
C19   C97   S    
C80   O5    A    
C60   C77   A    
C67   C85   A    
O14   Zn1   S    
C22   C31   S    
C112  N10   T    
C62   C79   A    
C63   C103  A    
O33   Zn2   S    
O10   Zn5   S    
C25   C103  S    
O16   Zn6   S    
C14   N6    T    
C27   C35   S    
C102  O31   A    
O40   Zn4   S    
C89   C98   A    
C20   O42   A    
C77   C95   A    
C36   O23   A    
C84   C97   A    
C86   H3    S    
C36   O44   A    
C29   O22   A    
C29   C38   S    
C9    C67   S    
C79   C95   A    
C86   C99   A    
C70   C109  A    
C27   O20   A    
C7    C65   S    
C5    N13   T    
C57   C110  S    
C72   C107  A    
C18   O40   A    
C61   C78   A    
O30   Zn12  S    
C20   C98   S    
C26   O15   A    
C8    N16   T    
C35   C44   T    
O11   Zn6   S    
C64   C82   A    
C87   H4    S    
O36   Zn3   S    
O20   Zn10  S    
C28   O21   A    
C17   C95   S    
C58   O7    A    
C15   C73   S    
C12   C71   S    
C45   C54   S    
C12   N5    T    
C58   O48   A    
O8    Zn9   S    
C3    N11   T    
C2    O35   A    
C76   H9    S    
O41   Zn4   S    
C37   C45   T    
C16   N8    T    
C1    C101  S    
C41   C50   S    
C52   C53   T    
C92   C100  A    
C20   O38   A    
C87   C100  A    
O13   Zn7   S    
C102  O27   A    
C48   C56   S    
C69   O6    A    
O19   Zn9   S    
C60   C112  S    
O31   Zn2   S    
C81   H13   S    
C77   H10   S    
C14   C72   S    
O3    Zn10  S    
C34   C43   T    
O47   Zn5   S    
C23   C32   S    
C83   H15   S    
O44   Zn1   S    
C24   O16   A    
C21   O41   A    
C10   C68   S    
C59   C103  A    
C47   O34   A    
C49   C56   T    
C57   C101  A    
C79   H12   S    
C80   C108  S    
C26   O17   A    
C50   C55   T    
O24   Zn11  S    
O17   Zn5   S    
C13   C94   S    
C36   C104  S    
C4    C62   S    
C29   O25   A    
O46   Zn6   S    
C57   C75   A    
O21   Zn11  S    
C30   O24   A    
C25   O45   A    
C90   H7    S    
C72   C89   A    
C91   C109  S    
C73   C106  A    
C28   C37   S    
C75   C93   A    
C13   O33   A    
C83   C96   A    
C23   O13   A    
O23   Zn6   S    
C30   C39   S    
O48   Zn8   S    
C92   H8    S    
C4    N12   T    
O37   Zn3   S    
O22   Zn8   S    
O7    Zn10  S    
C38   C46   T    
C88   C99   A    
O5    Zn8   S    
C66   C84   A    
C71   C88   A    
O9    Zn1   S    
C89   H6    S    
C28   O19   A    
C23   O10   A    
C58   C106  S    
C59   C111  S    
O38   Zn3   S    
C68   C108  A    
O32   Zn2   S    
C88   H5    S    
C60   C104  A    
C59   C76   A    
C22   O9    A    
O4    Zn11  S    
C2    O28   A    
C39   C48   T    
O35   Zn2   S    
