data_mof_unit_53635.cif
_audit_creation_date              2013-03-05T16:15:21-0500
_audit_creation_method            fapswitch 2.2
_symmetry_space_group_name_H-M    P1
_symmetry_Int_Tables_number       1
_space_group_crystal_system       triclinic
_cell_length_a                    27.806201
_cell_length_b                    10.638244
_cell_length_c                    9.41172
_cell_angle_alpha                 89.541983
_cell_angle_beta                  90.3859
_cell_angle_gamma                 89.956002
_cell_volume                      2783.91986292

loop_
_atom_site_label
_atom_site_type_symbol
_atom_site_description
_atom_site_fract_x
_atom_site_fract_y
_atom_site_fract_z
_atom_type_partial_charge
O1    O     O_R   0.500020 0.316850 0.620870 -0.560906
O2    O     O_R   0.499980 0.683150 0.379130 -0.560880
O3    O     O_R   0.500000 0.316860 0.379090 -0.561877
O4    O     O_R   0.500000 0.683140 0.620910 -0.561847
C1    C     C_R   0.500645 0.259654 0.500764 0.865711
C2    C     C_R   0.499356 0.740347 0.499236 0.865756
O5    O     O_R   0.430270 0.500020 0.620880 -0.539948
O6    O     O_R   0.569730 0.499980 0.379120 -0.539982
O7    O     O_R   0.430250 0.500030 0.379090 -0.605199
O8    O     O_R   0.569750 0.499970 0.620910 -0.605049
C3    C     C_R   0.407496 0.500007 0.499497 0.811266
C4    C     C_R   0.592502 0.499941 0.500502 0.811164
Cu1   Cu    Cu3+1 0.500010 0.499990 0.643150 1.007356
Cu2   Cu    Cu3+1 0.499990 0.500010 0.356850 1.007279
C5    C     C_R   0.178103 0.388063 0.495509 0.524463
C6    C     C_R   0.821913 0.611580 0.515303 0.523926
O9    O     O_2   0.203048 0.279226 0.492754 -0.525860
O10   O     O_2   0.796986 0.719743 0.528435 -0.527113
N1    N     N_R   0.202116 0.500069 0.496943 -0.473162
N2    N     N_R   0.797881 0.500154 0.503065 -0.472993
C7    C     C_R   0.178096 0.612071 0.501115 0.523781
C8    C     C_R   0.821883 0.388975 0.488014 0.524230
C9    C     C_R   0.278596 0.502726 0.364258 0.186056
C10   C     C_R   0.721395 0.492048 0.635539 0.186301
C11   C     C_R   0.329233 0.502539 0.367896 -0.196446
C12   C     C_R   0.670758 0.492434 0.631899 -0.195527
C13   C     C_R   0.328858 0.497528 0.625600 -0.173357
C14   C     C_R   0.671131 0.506960 0.374573 -0.174763
C15   C     C_R   0.278856 0.497494 0.623660 -0.121067
C16   C     C_R   0.721133 0.507156 0.376517 -0.121757
C17   C     C_R   0.253662 0.500070 0.494532 0.310057
C18   C     C_R   0.746331 0.499903 0.505473 0.309989
C19   C     C_R   0.101971 0.500149 0.499440 -0.043448
C20   C     C_R   0.898027 0.500325 0.500515 -0.043259
C21   C     C_R   0.127630 0.385993 0.496303 -0.020474
C22   C     C_R   0.872386 0.613732 0.514636 -0.020111
C23   C     C_R   0.102533 0.272506 0.494466 -0.144314
C24   C     C_R   0.897505 0.726461 0.528763 -0.144720
C25   C     C_R   0.127624 0.614235 0.502247 -0.020407
C26   C     C_R   0.872356 0.386930 0.486726 -0.020758
C27   C     C_R   0.354493 0.500022 0.497839 -0.083949
C28   C     C_R   0.645501 0.499796 0.502151 -0.083878
H1    H     H_    0.347386 0.495484 0.727205 0.187367
H2    H     H_    0.652596 0.512773 0.273132 0.188592
H3    H     H_    0.259428 0.495451 0.722954 0.142018
H4    H     H_    0.740552 0.513026 0.277348 0.143055
H5    H     H_    0.121434 0.183388 0.493796 0.188190
H6    H     H_    0.878627 0.814784 0.541396 0.188501
C29   C     C_R   0.974428 0.384584 0.488905 0.043506
C30   C     C_R   0.025562 0.616283 0.506177 0.043729
C31   C     C_R   0.974449 0.616020 0.511101 0.043589
C32   C     C_R   0.025558 0.384206 0.493688 0.043606
C33   C     C_R   0.949188 0.500314 0.500151 0.066480
C34   C     C_R   0.050810 0.500214 0.499792 0.066340
C35   C     C_R   0.947369 0.272839 0.472266 -0.204889
C36   C     C_R   0.052596 0.729094 0.506624 -0.204183
C37   C     C_R   0.897440 0.274255 0.471612 -0.144857
C38   C     C_R   0.102518 0.727769 0.505036 -0.144570
O11   O     O_2   0.796932 0.280851 0.474976 -0.525363
O12   O     O_2   0.203035 0.720842 0.503705 -0.525560
C39   C     C_R   0.052605 0.271312 0.493532 -0.204343
C40   C     C_R   0.947427 0.727854 0.527438 -0.204650
H7    H     H_    0.650586 0.486735 0.729372 0.165947
H8    H     H_    0.349399 0.504426 0.270251 0.166655
H9    H     H_    0.878529 0.185965 0.459038 0.188744
H10   H     H_    0.121405 0.816837 0.505643 0.188171
H11   H     H_    0.963514 0.182001 0.457235 0.136045
H12   H     H_    0.036437 0.821026 0.506007 0.134886
H13   H     H_    0.036450 0.179437 0.494866 0.134940
H14   H     H_    0.963597 0.818767 0.541740 0.135878
C41   C     C_3   0.514684 0.037154 0.628578 0.044723
C42   C     C_3   0.485320 0.962849 0.371423 0.044547
C43   C     C_3   0.544880 0.955467 0.527111 -0.326061
C44   C     C_3   0.455123 0.044535 0.472890 -0.325876
H15   H     H_    0.581453 0.917181 0.547541 0.184367
H16   H     H_    0.418551 0.082823 0.452460 0.184346
C45   C     C_3   0.499412 0.876792 0.497082 -0.236264
C46   C     C_3   0.500592 0.123210 0.502918 -0.236257
C47   C     C_3   0.469799 0.957608 0.598154 0.670135
C48   C     C_3   0.530204 0.042395 0.401848 0.670032
C49   C     C_3   0.528368 0.584116 0.049385 0.746237
C50   C     C_3   0.471631 0.415884 0.950616 0.746013
C51   C     C_3   0.486062 0.608110 0.947996 -0.213469
C52   C     C_3   0.513937 0.391890 0.052005 -0.213603
H17   H     H_    0.474325 0.698694 0.899882 0.184993
H18   H     H_    0.525675 0.301306 0.100118 0.185097
N3    N     N_3   0.500040 0.499970 0.858290 -0.213968
N4    N     N_3   0.499960 0.500030 0.141710 -0.213909
C53   C     C_3   0.542782 0.477284 0.950506 -0.202871
C54   C     C_3   0.457217 0.522716 0.049496 -0.203368
H19   H     H_    0.578766 0.458978 0.904743 0.147749
H20   H     H_    0.421233 0.541018 0.095269 0.147903
C55   C     C_3   0.531195 0.080343 0.775677 -0.354553
C56   C     C_3   0.546194 0.969425 0.869749 -0.734277
H21   H     H_    0.515614 0.903781 0.884303 0.271376
H22   H     H_    0.576753 0.918132 0.821686 0.255119
H23   H     H_    0.557656 0.004200 0.975603 0.271125
H24   H     H_    0.562198 0.145261 0.763649 0.205755
H25   H     H_    0.501382 0.131771 0.827377 0.258518
C57   C     C_3   0.468810 0.919671 0.224319 -0.354291
C58   C     C_3   0.453811 0.030597 0.130257 -0.734422
H26   H     H_    0.423252 0.081888 0.178324 0.254902
H27   H     H_    0.484390 0.096241 0.115708 0.271352
H28   H     H_    0.442348 0.995831 0.024400 0.271191
H29   H     H_    0.498623 0.868249 0.172615 0.258457
H30   H     H_    0.437807 0.854753 0.236339 0.206124
F1    F     F_    0.438624 0.911025 0.699592 -0.664649
F2    F     F_    0.561380 0.088979 0.300410 -0.664504
F3    F     F_    0.558771 0.673332 0.106795 -0.668857
F4    F     F_    0.441227 0.326669 0.893208 -0.668339
C59   C     C_3   0.750048 0.483145 0.773757 -0.380646
C60   C     C_3   0.720499 0.472357 0.909901 -0.832810
H31   H     H_    0.697595 0.556978 0.923371 0.260615
H32   H     H_    0.697851 0.386399 0.908049 0.257332
H33   H     H_    0.745204 0.465416 0.002826 0.249583
H34   H     H_    0.773994 0.399618 0.768898 0.220642
H35   H     H_    0.773215 0.567790 0.782830 0.224121
C61   C     C_3   0.249927 0.505734 0.225817 -0.380715
C62   C     C_3   0.279461 0.509321 0.089238 -0.832140
H36   H     H_    0.302202 0.595078 0.085436 0.255651
H37   H     H_    0.302266 0.423915 0.081263 0.262983
H38   H     H_    0.254729 0.511746 0.996147 0.248137
H39   H     H_    0.226498 0.421237 0.221992 0.222600
H40   H     H_    0.226239 0.589917 0.225595 0.222021

loop_
_geom_bond_atom_site_label_1
_geom_bond_atom_site_label_2
_geom_bond_distance
_ccdc_geom_bond_type
C51   N3    1.485464 S    
C58   H26   1.110336 S    
C13   C15   1.390369 A    
C59   C60   1.530400 S    
C12   H7    1.079811 S    
N1    C17   1.433645 S    
C9    C61   1.523001 S    
C60   H32   1.110879 S    
O5    C3    1.302464 A    
C10   C59   1.523149 S    
C57   H29   1.110092 S    
C19   C25   1.408595 A    
C44   H16   1.110190 S    
C20   C26   1.408609 A    
C50   F4    1.382284 S    
N1    C7    1.366447 A    
C52   H18   1.109404 S    
C32   C39   1.416565 A    
N2    C18   1.433740 S    
C46   C48   1.531192 S    
C50   N3    1.475520 S    
C35   H11   1.076002 S    
C40   H14   1.075916 S    
C14   C28   1.401988 A    
O4    Cu1   1.957941 S    
C61   C62   1.530259 S    
C4    C28   1.473694 S    
C38   H10   1.083712 S    
C59   H34   1.111389 S    
C23   H5    1.083708 S    
C55   H25   1.110094 S    
C24   H6    1.083702 S    
O6    C4    1.302419 A    
C49   C53   1.529570 S    
C45   C47   1.531202 S    
C58   H27   1.109227 S    
Cu1   Cu2   2.694569 S    
C43   H15   1.110189 S    
O2    C2    1.288258 A    
C31   C40   1.416602 A    
C5    C21   1.403710 A    
C60   H31   1.110901 S    
C49   C51   1.529742 S    
C32   C34   1.421737 A    
C62   H37   1.110896 S    
C60   H33   1.110421 S    
C7    O12   1.349769 S    
C42   C44   1.547617 S    
C37   H9    1.083698 S    
C8    O11   1.349762 S    
C41   C43   1.547619 S    
C2    C45   1.451515 S    
C56   H23   1.110304 S    
C29   C35   1.416545 A    
C25   C38   1.395096 A    
C14   H2    1.083208 S    
C30   C36   1.416622 A    
C41   C47   1.535068 S    
C15   H3    1.082663 S    
C31   C33   1.421805 A    
C11   H8    1.079847 S    
C9    C17   1.412703 A    
C5    N1    1.366443 A    
O7    Cu2   1.951870 S    
C10   C18   1.412860 A    
C42   C45   1.538267 S    
C13   C27   1.402043 A    
C54   H20   1.109737 S    
C7    C25   1.403714 A    
C6    N2    1.366494 A    
C29   C32   1.422131 A    
C8    C26   1.403739 A    
Cu1   N3    2.024831 S    
C30   C31   1.422313 A    
C47   F1    1.383022 S    
C55   C56   1.525697 S    
C61   H40   1.111283 S    
C56   H22   1.110334 S    
O7    C3    1.301608 A    
O3    Cu2   1.957940 S    
O8    C4    1.301596 A    
O4    C2    1.292535 A    
C51   H17   1.109404 S    
C49   F3    1.382283 S    
C58   H28   1.110303 S    
C50   C52   1.529739 S    
C44   C47   1.545030 S    
C35   C37   1.388364 A    
O1    C1    1.288253 A    
C53   H19   1.109706 S    
C52   C53   1.542304 S    
N2    C8    1.366426 A    
C11   C27   1.406283 A    
C30   C34   1.421820 A    
C12   C28   1.406203 A    
C42   C57   1.529885 S    
C62   H38   1.110281 S    
C39   H13   1.076004 S    
C19   C34   1.422608 A    
C5    O9    1.349769 S    
C51   C54   1.542314 S    
O6    Cu2   1.949094 S    
C26   C37   1.395106 A    
C21   C23   1.395114 A    
C16   H4    1.082833 S    
C6    O10   1.349776 S    
C52   N4    1.485457 S    
N4    C54   1.485385 S    
O3    C1    1.292532 A    
O8    Cu1   1.951870 S    
C23   C39   1.388365 A    
C62   H36   1.110895 S    
C41   C55   1.529889 S    
C48   F2    1.383023 S    
C57   H30   1.110804 S    
C50   C54   1.529574 S    
C59   H35   1.111076 S    
N3    C53   1.485380 S    
Cu2   N4    2.024831 S    
C14   C16   1.390375 A    
C15   C17   1.398743 A    
C36   H12   1.075921 S    
C6    C22   1.403730 A    
C16   C18   1.398891 A    
C10   C12   1.408197 A    
C29   C33   1.421721 A    
C22   C24   1.395082 A    
C57   C58   1.525706 S    
C19   C21   1.408639 A    
C43   C48   1.545031 S    
C36   C38   1.388379 A    
C3    C27   1.473801 S    
C20   C22   1.408556 A    
C61   H39   1.111240 S    
C9    C11   1.408202 A    
C56   H21   1.109230 S    
O2    Cu2   1.961206 S    
C49   N4    1.475509 S    
C13   H1    1.083220 S    
O5    Cu1   1.949094 S    
O1    Cu1   1.961207 S    
C20   C33   1.422628 A    
C42   C48   1.535064 S    
C44   C46   1.542547 S    
C43   C45   1.542556 S    
C1    C46   1.451501 S    
C55   H24   1.110809 S    
C41   C46   1.538262 S    
C24   C40   1.388382 A    
