data_mof_unit_24314.cif
_audit_creation_date              2013-03-05T16:46:59-0500
_audit_creation_method            fapswitch 2.2
_symmetry_space_group_name_H-M    P1
_symmetry_Int_Tables_number       1
_space_group_crystal_system       triclinic
_cell_length_a                    14.88992
_cell_length_b                    8.918653
_cell_length_c                    8.117249
_cell_angle_alpha                 90.05749
_cell_angle_beta                  89.972202
_cell_angle_gamma                 90.013593
_cell_volume                      1077.95397389

loop_
_atom_site_label
_atom_site_type_symbol
_atom_site_description
_atom_site_fract_x
_atom_site_fract_y
_atom_site_fract_z
_atom_type_partial_charge
O1    O     O_R   0.500000 0.285350 0.636850 -0.601631
O2    O     O_R   0.500000 0.714650 0.363150 -0.595053
O3    O     O_R   0.500000 0.714650 0.636850 -0.622890
O4    O     O_R   0.500000 0.285350 0.363150 -0.618624
C1    C     C_R   0.500017 0.218061 0.499947 0.986258
C2    C     C_R   0.499867 0.781939 0.500054 0.978704
O5    O     O_R   0.367850 0.500000 0.636890 -0.608074
O6    O     O_R   0.632150 0.500000 0.363110 -0.594989
O7    O     O_R   0.632150 0.500000 0.636890 -0.613122
O8    O     O_R   0.367850 0.500000 0.363110 -0.584344
C3    C     C_R   0.326407 0.500118 0.500353 1.004426
C4    C     C_R   0.673534 0.500610 0.500262 1.009844
Zn1   Zn    Zn3+2 0.500000 0.500000 0.682780 1.077983
Zn2   Zn    Zn3+2 0.500000 0.500000 0.317220 1.093219
N1    N     N_1   0.500000 0.500000 0.073640 -0.002157
N2    N     N_1   0.500000 0.500000 0.926360 -0.004081
C5    C     C_R   0.812650 0.642415 0.472966 0.356894
C6    C     C_R   0.186001 0.380065 0.574768 0.375721
C7    C     C_R   0.814344 0.381611 0.567098 0.305569
C8    C     C_R   0.186406 0.636071 0.465878 0.302055
C9    C     C_R   0.769378 0.506241 0.504918 -0.262114
C10   C     C_R   0.230434 0.502807 0.505448 -0.254506
C11   C     C_R   0.905604 0.393429 0.604881 -0.094912
C12   C     C_R   0.094533 0.649716 0.500905 -0.086190
C13   C     C_R   0.906152 0.652929 0.498012 -0.055262
C14   C     C_R   0.093201 0.389339 0.604409 -0.052687
C15   C     C_R   0.952811 0.523695 0.555294 -0.120719
C16   C     C_R   0.046936 0.521692 0.555904 -0.124086
C17   C     C_R   0.951526 0.278133 0.689396 0.354434
C18   C     C_R   0.048359 0.787123 0.481590 0.340888
C19   C     C_R   0.954233 0.788061 0.472124 0.476528
C20   C     C_R   0.045579 0.272786 0.684060 0.482546
C21   C     C_1   0.499950 0.065229 0.499924 -0.065965
C22   C     C_1   0.499890 0.934769 0.500077 -0.068264
O9    O     O_3   0.906965 0.175549 0.787001 -0.694114
H1    H     H_    0.856571 0.228732 0.841654 0.376278
O10   O     O_3   0.092655 0.922903 0.482683 -0.694229
H2    H     H_    0.141274 0.915977 0.565775 0.404114
O11   O     O_3   0.908414 0.921183 0.447801 -0.624769
H3    H     H_    0.950095 0.002359 0.415113 0.391251
O12   O     O_3   0.092006 0.161537 0.766707 -0.670773
H4    H     H_    0.050856 0.080376 0.801610 0.392440
Cl1   Cl    Cl    0.746605 0.792687 0.394366 -0.474286
Cl2   Cl    Cl    0.248358 0.211673 0.603434 -0.501042
Cl3   Cl    Cl    0.756775 0.206584 0.572717 -0.500004
Cl4   Cl    Cl    0.246534 0.776292 0.355425 -0.520261

loop_
_geom_bond_atom_site_label_1
_geom_bond_atom_site_label_2
_geom_bond_distance
_ccdc_geom_bond_type
O3    Zn1   1.950721 S    
C13   C19   1.417443 A    
C7    C11   1.397114 A    
C20   O12   1.383664 S    
C7    Cl3   1.781307 S    
C14   C20   1.414894 A    
O10   H2    0.991658 S    
C6    Cl2   1.781380 S    
C13   C15   1.424465 A    
O12   H4    0.989789 S    
C17   O9    1.380460 S    
C3    C10   1.429821 S    
C14   C16   1.422861 A    
O9    H1    0.992091 S    
C6    C14   1.404904 A    
O6    C4    1.272722 A    
O3    C2    1.262731 A    
C5    C13   1.410194 A    
C5    Cl1   1.781375 S    
C21   C22   1.163532 T    
O5    C3    1.268773 A    
O2    C2    1.262449 A    
C2    C22   1.363038 S    
O1    C1    1.262440 A    
C11   C17   1.413426 A    
C7    C9    1.392967 A    
C8    C10   1.395314 A    
C17   C20   1.401907 A    
C11   C15   1.416382 A    
O4    Zn2   1.950722 S    
C18   C19   1.403699 A    
O2    Zn2   1.949987 S    
O7    C4    1.268491 A    
C12   C18   1.414202 A    
O1    Zn1   1.949988 S    
O8    C3    1.273263 A    
N1    N2    1.195508 T    
C8    C12   1.402379 A    
O5    Zn1   2.002829 S    
O8    Zn2   2.002474 S    
Zn1   N2    1.977200 S    
O11   H3    0.989812 S    
O7    Zn1   2.002472 S    
Zn2   N1    1.977200 S    
O6    Zn2   2.002827 S    
C6    C10   1.397576 A    
C4    C9    1.428495 S    
C5    C9    1.399102 A    
C12   C16   1.416194 A    
C18   O10   1.378836 S    
C19   O11   1.383845 S    
O4    C1    1.262738 A    
C15   C16   1.401649 A    
C8    Cl4   1.780537 S    
C1    C21   1.363051 S    
