data_mof_unit_60416.cif
_audit_creation_date              2012-12-10T18:00:40-0500
_audit_creation_method            fapswitch 2.2
_symmetry_space_group_name_H-M    P1
_symmetry_Int_Tables_number       1
_space_group_crystal_system       triclinic
_cell_length_a                    30.688089
_cell_length_b                    30.761303
_cell_length_c                    24.729515
_cell_angle_alpha                 89.995592
_cell_angle_beta                  128.240705
_cell_angle_gamma                 90.00641
_cell_volume                      18335.4115454

loop_
_atom_site_label
_atom_site_type_symbol
_atom_type_description
_atom_site_fract_x
_atom_site_fract_y
_atom_site_fract_z
_atom_type_partial_charge
C1    C     C_R   0.809130 0.809414 0.499549 0.799211
C2    C     C_R   0.190390 0.809300 0.499639 0.801298
C3    C     C_R   0.309130 0.309414 0.499549 0.799204
C4    C     C_R   0.690391 0.309300 0.499640 0.801300
C5    C     C_R   0.645653 0.749897 0.291411 -0.027570
C6    C     C_R   0.354132 0.750039 0.708620 -0.033761
C7    C     C_R   0.145654 0.249898 0.291412 -0.027550
C8    C     C_R   0.854132 0.250039 0.708620 -0.033766
C9    C     C_R   0.464738 0.749956 0.930051 0.408433
C10   C     C_R   0.534796 0.749873 0.069994 0.407315
C11   C     C_R   0.964739 0.249957 0.930052 0.408440
C12   C     C_R   0.034797 0.249874 0.069995 0.407320
C13   C     C_R   0.900159 0.841507 0.546917 0.018419
C14   C     C_R   0.136149 0.836817 0.535001 0.070468
C15   C     C_R   0.400157 0.341517 0.546936 0.018399
C16   C     C_R   0.636165 0.336823 0.535021 0.070457
C17   C     C_R   0.842389 0.843312 0.500612 -0.042805
C18   C     C_R   0.155144 0.842027 0.496725 -0.057958
C19   C     C_R   0.342388 0.343311 0.500610 -0.042776
C20   C     C_R   0.655146 0.342027 0.496729 -0.057946
C21   C     C_R   0.816875 0.880736 0.459753 -0.186399
C22   C     C_R   0.137024 0.878110 0.452766 -0.189279
C23   C     C_R   0.316871 0.380727 0.459728 -0.186407
C24   C     C_R   0.637012 0.378103 0.452754 -0.189284
C25   C     C_R   0.849012 0.912812 0.459233 -0.204645
C26   C     C_R   0.104698 0.910281 0.452783 -0.197368
C27   C     C_R   0.349008 0.412802 0.459208 -0.204641
C28   C     C_R   0.604686 0.410273 0.452771 -0.197339
C29   C     C_R   0.906905 0.908183 0.501123 -0.022768
C30   C     C_R   0.092579 0.907458 0.499000 -0.033708
C31   C     C_R   0.406904 0.408183 0.501123 -0.022793
C32   C     C_R   0.592578 0.407457 0.499000 -0.033729
C33   C     C_R   0.931909 0.873517 0.547432 0.053934
C34   C     C_R   0.107144 0.869653 0.537995 0.113694
C35   C     C_R   0.431908 0.373527 0.547451 0.053941
C36   C     C_R   0.607159 0.369658 0.538012 0.113715
C37   C     C_3   0.974628 0.841426 0.561814 0.182929
C38   C     C_3   0.136174 0.862093 0.613027 0.222842
C39   C     C_3   0.474641 0.341439 0.561870 0.182965
C40   C     C_3   0.636203 0.362111 0.613050 0.222857
C41   C     C_3   0.939423 0.806232 0.561242 -0.444275
C42   C     C_3   0.167332 0.825306 0.609080 -0.499616
C43   C     C_3   0.439436 0.306245 0.561297 -0.444303
C44   C     C_3   0.667364 0.325325 0.609107 -0.499641
C45   C     C_R   0.683688 0.749955 0.367420 0.779969
C46   C     C_R   0.316241 0.750022 0.632592 0.780107
C47   C     C_R   0.183688 0.249955 0.367420 0.779972
C48   C     C_R   0.816241 0.250022 0.632592 0.780105
C49   C     C_R   0.836372 0.765396 0.745373 -0.179888
C50   C     C_R   0.163580 0.765805 0.254654 -0.181664
C51   C     C_R   0.336366 0.265384 0.745372 -0.179874
C52   C     C_R   0.663572 0.265821 0.254654 -0.181664
C53   C     C_R   0.872220 0.765050 0.817327 -0.151117
C54   C     C_R   0.127797 0.765445 0.182699 -0.153182
C55   C     C_R   0.372215 0.265037 0.817326 -0.151114
C56   C     C_R   0.627790 0.265461 0.182698 -0.153188
C57   C     C_R   0.927065 0.750228 0.853894 0.055277
C58   C     C_R   0.073182 0.750053 0.146066 0.053827
C59   C     C_R   0.427065 0.250228 0.853893 0.055278
C60   C     C_R   0.573182 0.250052 0.146065 0.053829
C61   C     C_R   0.945183 0.735384 0.817063 -0.151144
C62   C     C_R   0.055252 0.734610 0.182830 -0.151069
C63   C     C_R   0.445189 0.235398 0.817062 -0.151143
C64   C     C_R   0.555260 0.234592 0.182829 -0.151073
C65   C     C_R   0.909004 0.734939 0.745114 -0.178952
C66   C     C_R   0.091375 0.734189 0.254777 -0.177560
C67   C     C_R   0.409009 0.234953 0.745113 -0.178959
C68   C     C_R   0.591382 0.234172 0.254776 -0.177563
C69   C     C_R   0.854342 0.750124 0.708608 -0.028215
C70   C     C_R   0.145783 0.749993 0.291364 -0.033068
C71   C     C_R   0.354342 0.250125 0.708607 -0.028206
C72   C     C_R   0.645783 0.249993 0.291363 -0.033077
C73   C     C_R   0.035122 0.750117 0.069948 0.407047
C74   C     C_R   0.965139 0.750215 0.930013 0.407377
C75   C     C_R   0.535122 0.250116 0.069947 0.407047
C76   C     C_R   0.465139 0.250216 0.930011 0.407374
C77   C     C_R   0.640204 0.621149 0.460254 0.126118
C78   C     C_R   0.320228 0.620886 0.460893 0.123634
C79   C     C_R   0.140303 0.121101 0.460365 0.126199
C80   C     C_R   0.820228 0.120890 0.460887 0.123615
C81   C     C_R   0.657875 0.657886 0.501289 -0.089126
C82   C     C_R   0.343438 0.657872 0.501332 -0.091578
C83   C     C_R   0.157874 0.157884 0.501290 -0.089241
C84   C     C_R   0.843439 0.157872 0.501333 -0.091567
C85   C     C_R   0.641940 0.662243 0.543707 -0.201843
C86   C     C_R   0.401642 0.662453 0.543180 -0.203956
C87   C     C_R   0.141835 0.162286 0.543595 -0.201814
C88   C     C_R   0.901644 0.162451 0.543188 -0.203950
C89   C     C_R   0.690693 0.690731 0.500123 0.802852
C90   C     C_R   0.309442 0.690726 0.500139 0.801390
C91   C     C_R   0.190693 0.190730 0.500125 0.802859
C92   C     C_R   0.809442 0.190726 0.500139 0.801391
C93   C     C_R   0.609944 0.629582 0.544180 -0.201346
C94   C     C_R   0.434112 0.629791 0.543664 -0.205959
C95   C     C_R   0.109839 0.129626 0.544067 -0.201397
C96   C     C_R   0.934113 0.129789 0.543673 -0.205959
C97   C     C_R   0.592108 0.593160 0.500474 -0.079588
C98   C     C_R   0.408379 0.593131 0.500527 -0.080817
C99   C     C_R   0.092107 0.093158 0.500473 -0.079468
C100  C     C_R   0.908380 0.093132 0.500527 -0.080818
C101  C     C_R   0.607832 0.590749 0.458773 0.126466
C102  C     C_R   0.351103 0.590475 0.459410 0.122899
C103  C     C_R   0.107932 0.090699 0.458882 0.126420
C104  C     C_R   0.851104 0.090479 0.459404 0.122891
C105  C     C_3   0.604755 0.563493 0.406768 -0.474955
C106  C     C_3   0.302372 0.562934 0.408082 -0.479309
C107  C     C_3   0.104975 0.063387 0.407010 -0.475182
C108  C     C_3   0.802372 0.062942 0.408066 -0.479272
C109  C     C_3   0.641279 0.598499 0.407887 -0.466497
C110  C     C_3   0.266973 0.597943 0.409193 -0.460576
C111  C     C_3   0.141499 0.098393 0.408130 -0.466299
C112  C     C_3   0.766973 0.097952 0.409176 -0.460579
C113  C     C_R   0.440599 0.559442 0.500033 0.787463
C114  C     C_R   0.559448 0.559447 0.500061 0.792248
C115  C     C_R   0.940599 0.059443 0.500033 0.787449
C116  C     C_R   0.059449 0.059446 0.500061 0.792231
C117  C     C_R   0.940633 0.940473 0.500120 0.831516
C118  C     C_R   0.059886 0.940909 0.499952 0.836032
C119  C     C_R   0.440633 0.440473 0.500120 0.831528
C120  C     C_R   0.559886 0.440909 0.499952 0.836064
C121  C     C_R   0.816293 0.750027 0.632597 0.781553
C122  C     C_R   0.183749 0.749981 0.367392 0.778755
C123  C     C_R   0.316293 0.250028 0.632597 0.781561
C124  C     C_R   0.683749 0.249981 0.367392 0.778756
C125  C     C_R   0.612264 0.786259 0.254814 -0.178583
C126  C     C_R   0.388129 0.786139 0.745269 -0.172960
C127  C     C_R   0.112285 0.286268 0.254815 -0.178587
C128  C     C_R   0.888138 0.286136 0.745269 -0.172964
C129  C     C_R   0.576631 0.786400 0.182869 -0.150339
C130  C     C_R   0.423659 0.786291 0.817223 -0.144625
C131  C     C_R   0.076652 0.286408 0.182870 -0.150332
C132  C     C_R   0.923669 0.286287 0.817224 -0.144629
C133  C     C_R   0.572891 0.749849 0.146121 0.055009
C134  C     C_R   0.426660 0.750006 0.853924 0.053490
C135  C     C_R   0.072893 0.249850 0.146122 0.055006
C136  C     C_R   0.926660 0.250007 0.853925 0.053487
C137  C     C_R   0.605893 0.713305 0.182781 -0.151210
C138  C     C_R   0.392970 0.713760 0.817217 -0.150809
C139  C     C_R   0.105875 0.213298 0.182782 -0.151206
C140  C     C_R   0.892961 0.213764 0.817218 -0.150811
C141  C     C_R   0.642323 0.713491 0.254742 -0.181089
C142  C     C_R   0.356664 0.713947 0.745266 -0.178111
C143  C     C_R   0.142306 0.213484 0.254743 -0.181072
C144  C     C_R   0.856655 0.213951 0.745267 -0.178111
Cu1   Cu    Cu3+1 0.780910 0.719090 0.500000 0.959203
Cu2   Cu    Cu3+1 0.219090 0.719090 0.500000 0.960751
Cu3   Cu    Cu3+1 0.280910 0.219090 0.500000 0.959193
Cu4   Cu    Cu3+1 0.719090 0.219090 0.500000 0.960754
Cu5   Cu    Cu3+1 0.719070 0.780890 0.500010 0.953030
Cu6   Cu    Cu3+1 0.280930 0.780890 0.499990 0.957252
Cu7   Cu    Cu3+1 0.219070 0.280890 0.500010 0.953025
Cu8   Cu    Cu3+1 0.780930 0.280890 0.499990 0.957253
Cu9   Cu    Cu3+1 0.465760 0.500000 0.431570 0.977987
Cu10  Cu    Cu3+1 0.534240 0.500000 0.568430 1.016873
Cu11  Cu    Cu3+1 0.965760 0.000000 0.431570 0.978024
Cu12  Cu    Cu3+1 0.034240 0.000000 0.568430 1.016886
H1    H     H_    0.614166 0.814820 0.281817 0.150520
H2    H     H_    0.386828 0.814477 0.718308 0.156326
H3    H     H_    0.114202 0.314834 0.281819 0.150506
H4    H     H_    0.886844 0.314471 0.718308 0.156331
H5    H     H_    0.959765 0.791253 0.612641 0.161971
H6    H     H_    0.155570 0.792640 0.615464 0.187810
H7    H     H_    0.459769 0.291277 0.612702 0.161966
H8    H     H_    0.655615 0.292659 0.615514 0.187814
H9    H     H_    0.794371 0.777135 0.718497 0.150235
H10   H     H_    0.205387 0.778016 0.281568 0.153204
H11   H     H_    0.294361 0.277112 0.718497 0.150228
H12   H     H_    0.705374 0.278046 0.281567 0.153213
H13   H     H_    0.857179 0.776855 0.844335 0.152003
H14   H     H_    0.142691 0.777707 0.155741 0.152650
H15   H     H_    0.357170 0.276832 0.844335 0.152000
H16   H     H_    0.642679 0.277737 0.155741 0.152652
H17   H     H_    0.987155 0.723608 0.843862 0.152318
H18   H     H_    0.013468 0.722371 0.155978 0.154163
H19   H     H_    0.487165 0.223633 0.843862 0.152315
H20   H     H_    0.513481 0.222340 0.155976 0.154164
H21   H     H_    0.924004 0.723170 0.718035 0.150731
H22   H     H_    0.076508 0.721953 0.281784 0.156234
H23   H     H_    0.424014 0.223194 0.718034 0.150720
H24   H     H_    0.576519 0.221923 0.281782 0.156240
H25   H     H_    0.654822 0.690281 0.576939 0.155811
H26   H     H_    0.421885 0.690677 0.575955 0.158502
H27   H     H_    0.154635 0.190360 0.576738 0.155880
H28   H     H_    0.921887 0.190673 0.575969 0.158493
H29   H     H_    0.598593 0.633044 0.577626 0.152159
H30   H     H_    0.478793 0.633440 0.576650 0.152237
H31   H     H_    0.098405 0.133124 0.577425 0.152069
H32   H     H_    0.978796 0.133436 0.576664 0.152231
H33   H     H_    0.626039 0.531700 0.428272 0.195696
H34   H     H_    0.295334 0.561012 0.358324 0.210723
H35   H     H_    0.126292 0.031616 0.428625 0.195732
H36   H     H_    0.795343 0.061024 0.358313 0.210725
H37   H     H_    0.562000 0.561840 0.357217 0.208915
H38   H     H_    0.302931 0.531260 0.430157 0.190994
H39   H     H_    0.062251 0.061682 0.357417 0.208911
H40   H     H_    0.802926 0.031266 0.430132 0.190984
H41   H     H_    0.683498 0.586814 0.429571 0.210217
H42   H     H_    0.239770 0.616433 0.360214 0.198557
H43   H     H_    0.183752 0.086731 0.429928 0.210218
H44   H     H_    0.739777 0.116448 0.360202 0.198556
H45   H     H_    0.551528 0.814954 0.156012 0.153177
H46   H     H_    0.449283 0.814622 0.844126 0.154598
H47   H     H_    0.051564 0.314969 0.156013 0.153176
H48   H     H_    0.949299 0.314615 0.844125 0.154601
H49   H     H_    0.619490 0.617261 0.359132 0.195270
H50   H     H_    0.246777 0.586376 0.431439 0.208240
H51   H     H_    0.119739 0.117103 0.359331 0.195249
H52   H     H_    0.746771 0.086384 0.431413 0.208240
H53   H     H_    0.604046 0.684736 0.155841 0.152165
H54   H     H_    0.394207 0.685415 0.844114 0.152437
H55   H     H_    0.104012 0.184722 0.155842 0.152162
H56   H     H_    0.894191 0.185423 0.844114 0.152442
H57   H     H_    0.667415 0.684944 0.281703 0.150093
H58   H     H_    0.331042 0.685621 0.718303 0.153021
H59   H     H_    0.167382 0.184931 0.281704 0.150070
H60   H     H_    0.831026 0.185628 0.718305 0.153027
H61   H     H_    0.772147 0.884158 0.426040 0.149741
H62   H     H_    0.148520 0.881695 0.419485 0.152893
H63   H     H_    0.272141 0.384141 0.425997 0.149722
H64   H     H_    0.648498 0.381683 0.419463 0.152883
H65   H     H_    0.828765 0.940658 0.425513 0.142266
H66   H     H_    0.091520 0.938238 0.419310 0.145096
H67   H     H_    0.328760 0.440642 0.425470 0.142287
H68   H     H_    0.591497 0.438225 0.419286 0.145102
H69   H     H_    0.015491 0.846362 0.613098 0.114164
H70   H     H_    0.107692 0.850851 0.623598 0.135314
H71   H     H_    0.515496 0.346386 0.613159 0.114182
H72   H     H_    0.607731 0.350869 0.623639 0.135349
H73   H     H_    0.920668 0.782683 0.518018 0.244451
H74   H     H_    0.212784 0.830621 0.639755 0.224804
H75   H     H_    0.420698 0.282687 0.518088 0.244457
H76   H     H_    0.712813 0.330647 0.639768 0.224806
N1    N     N_R   0.516641 0.711922 0.034262 -0.236629
N2    N     N_R   0.482129 0.711965 0.965683 -0.236555
N3    N     N_R   0.016619 0.211923 0.034263 -0.236626
N4    N     N_R   0.982108 0.211966 0.965685 -0.236558
N5    N     N_R   0.483077 0.787903 0.965785 -0.230800
N6    N     N_R   0.517225 0.787863 0.034360 -0.233094
N7    N     N_R   0.983100 0.287903 0.965786 -0.230807
N8    N     N_R   0.017249 0.287863 0.034361 -0.233095
N9    N     N_R   0.020982 0.750398 0.965567 -0.235964
N10   N     N_R   0.979280 0.749756 0.034392 -0.234387
N11   N     N_R   0.520982 0.250421 0.965565 -0.235962
N12   N     N_R   0.479281 0.249733 0.034391 -0.234390
N13   N     N_R   0.055278 0.750534 0.034144 -0.236093
N14   N     N_R   0.944983 0.749986 0.965818 -0.234713
N15   N     N_R   0.555278 0.250557 0.034143 -0.236094
N16   N     N_R   0.444984 0.249963 0.965816 -0.234709
O1    O     O_R   0.821190 0.768980 0.500000 -0.580195
O2    O     O_R   0.178810 0.768980 0.500000 -0.574420
O3    O     O_R   0.321190 0.268980 0.500000 -0.580193
O4    O     O_R   0.678810 0.268980 0.500000 -0.574416
O5    O     O_R   0.483700 0.545120 0.557760 -0.589848
O6    O     O_R   0.516300 0.545120 0.442240 -0.592479
O7    O     O_R   0.983700 0.045120 0.557760 -0.589845
O8    O     O_R   0.016300 0.045120 0.442240 -0.592470
O9    O     O_R   0.925990 0.954920 0.442210 -0.570082
O10   O     O_R   0.074010 0.954920 0.557790 -0.536025
O11   O     O_R   0.425990 0.454920 0.442210 -0.570106
O12   O     O_R   0.574010 0.454920 0.557790 -0.536016
O13   O     O_R   0.983760 0.954940 0.557800 -0.593235
O14   O     O_R   0.016240 0.954940 0.442200 -0.585107
O15   O     O_R   0.483760 0.454940 0.557800 -0.593233
O16   O     O_R   0.516240 0.454940 0.442200 -0.585127
O17   O     O_R   0.768960 0.821170 0.500020 -0.587800
O18   O     O_R   0.231040 0.821170 0.499980 -0.582608
O19   O     O_R   0.268960 0.321170 0.500020 -0.587798
O20   O     O_R   0.731040 0.321170 0.499980 -0.582604
O21   O     O_R   0.726180 0.723900 0.400140 -0.583880
O22   O     O_R   0.273820 0.723900 0.599860 -0.585398
O23   O     O_R   0.226180 0.223900 0.400140 -0.583877
O24   O     O_R   0.773820 0.223900 0.599860 -0.585398
O25   O     O_R   0.673950 0.776090 0.400160 -0.586646
O26   O     O_R   0.326050 0.776090 0.599840 -0.585423
O27   O     O_R   0.173950 0.276090 0.400160 -0.586638
O28   O     O_R   0.826050 0.276090 0.599840 -0.585426
O29   O     O_R   0.731010 0.678810 0.499990 -0.581682
O30   O     O_R   0.268990 0.678810 0.500010 -0.583675
O31   O     O_R   0.231010 0.178810 0.499990 -0.581697
O32   O     O_R   0.768990 0.178810 0.500010 -0.583674
O33   O     O_R   0.678790 0.731000 0.500010 -0.585132
O34   O     O_R   0.321210 0.731000 0.499990 -0.585039
O35   O     O_R   0.178790 0.231000 0.500010 -0.585149
O36   O     O_R   0.821210 0.231000 0.499990 -0.585039
O37   O     O_R   0.826030 0.723890 0.599860 -0.584480
O38   O     O_R   0.173970 0.723890 0.400140 -0.585486
O39   O     O_R   0.326030 0.223890 0.599860 -0.584479
O40   O     O_R   0.673970 0.223890 0.400140 -0.585489
O41   O     O_R   0.773800 0.776080 0.599870 -0.586329
O42   O     O_R   0.226200 0.776080 0.400130 -0.586620
O43   O     O_R   0.273800 0.276080 0.599870 -0.586327
O44   O     O_R   0.726200 0.276080 0.400130 -0.586624
O45   O     O_R   0.425940 0.545090 0.442170 -0.589850
O46   O     O_R   0.574060 0.545090 0.557830 -0.577575
O47   O     O_R   0.925940 0.045090 0.442170 -0.589852
O48   O     O_R   0.074060 0.045090 0.557830 -0.577561
Cl1   Cl    Cl    0.978017 0.835976 0.492465 -0.641641
Cl2   Cl    Cl    0.181441 0.905489 0.667118 -0.578227
Cl3   Cl    Cl    0.478058 0.335974 0.492545 -0.641673
Cl4   Cl    Cl    0.681463 0.405517 0.667116 -0.578225

loop_
_geom_bond_atom_site_label_1
_geom_bond_atom_site_label_2
_ccdc_geom_bond_type
C99   C103  A    
C133  C137  A    
C55   C59   A    
C90   O34   A    
Cu4   O24   S    
C77   C101  A    
Cu5   O17   S    
C136  C140  A    
C135  C139  A    
C46   O26   A    
N9    N13   A    
C95   C99   A    
C73   N13   A    
C29   C33   A    
C100  C104  A    
Cu9   O16   S    
Cu10  O15   S    
Cu2   Cu6   S    
C109  H41   S    
Cu10  O46   S    
C12   C135  S    
C3    C19   S    
C16   C44   S    
C130  H46   S    
C38   H70   S    
C49   C69   A    
C72   C124  S    
C76   N16   A    
C100  C115  S    
C51   C71   A    
C25   C29   A    
C114  O6    A    
C23   H63   S    
Cu4   O4    S    
C142  H58   S    
C27   C31   A    
C105  H33   S    
Cu2   O22   S    
C4    O4    A    
Cu8   O28   S    
C99   C116  S    
C30   C34   A    
C120  O12   A    
C17   C21   A    
C19   C23   A    
C13   C33   A    
C52   C72   A    
C78   C82   A    
C68   C72   A    
C80   C112  S    
C50   C54   A    
C129  C133  A    
C24   H64   S    
Cu9   O11   S    
Cu10  O12   S    
C143  H59   S    
C116  O8    A    
C77   C109  S    
C10   N1    A    
C27   H67   S    
Cu1   O29   S    
C84   C88   A    
C124  O44   A    
C119  O11   A    
C57   C61   A    
C118  O10   A    
C83   C91   S    
C59   C63   A    
C60   C64   A    
Cu9   O45   S    
C50   C70   A    
C11   C136  S    
C66   C70   A    
C49   C53   A    
C125  H1    S    
C127  C131  A    
C4    C20   S    
C61   C65   A    
C12   N8    A    
Cu4   O40   S    
Cu11  Cu12  S    
C126  C130  A    
C103  C107  S    
C112  H44   S    
Cu11  O9    S    
Cu10  O5    S    
C92   O32   A    
C51   H11   S    
C122  O42   A    
C7    C143  A    
C106  H38   S    
Cu8   O20   S    
C21   C25   A    
C64   C68   A    
C71   C123  S    
C3    O3    A    
C87   H27   S    
C1    O1    A    
C88   H28   S    
C2    O18   A    
C85   C93   A    
C8    C128  A    
C73   N10   A    
C87   C95   A    
C26   H66   S    
C91   O35   A    
C64   H20   S    
C24   C28   A    
N1    N2    A    
C67   C71   A    
C132  C136  A    
Cu3   O39   S    
C46   O22   A    
C21   H61   S    
N5    N6    A    
C79   C103  A    
Cu8   O44   S    
C28   C32   A    
C113  O45   A    
C62   C66   A    
C115  O47   A    
C76   N11   A    
Cu4   O32   S    
C78   C110  S    
C144  H60   S    
C30   C118  S    
C138  H54   S    
C40   H72   S    
C91   O31   A    
C125  C129  A    
Cu11  O8    S    
C70   C122  S    
C28   H68   S    
C89   O29   A    
C109  H49   S    
C48   O28   A    
C26   C30   A    
C9    N5    A    
Cu6   O42   S    
C108  H40   S    
C106  H34   S    
C111  H51   S    
Cu1   O37   S    
C105  C109  S    
C85   H25   S    
C18   C22   A    
C107  C111  S    
C94   H30   S    
C40   Cl4   S    
C14   C34   A    
C42   H6    S    
C38   Cl2   S    
C1    C17   S    
C13   C17   A    
C117  O13   A    
C92   O36   A    
C16   C36   A    
C65   H21   S    
C45   O25   A    
Cu3   Cu7   S    
C96   C100  A    
C37   C41   S    
C47   O23   A    
C40   C44   S    
C56   C60   A    
C48   O24   A    
C107  H35   S    
C108  H36   S    
C39   Cl3   S    
C84   C92   S    
C7    C127  A    
C97   C114  S    
Cu2   O30   S    
Cu7   O27   S    
C59   C76   S    
C81   C85   A    
Cu8   O36   S    
C43   H7    S    
C58   C62   A    
C12   N3    A    
C83   C87   A    
C88   C96   A    
C41   H5    S    
C110  H42   S    
C54   H14   S    
N7    N8    A    
C10   C133  S    
C80   C84   A    
C13   C41   S    
C95   H31   S    
C130  C134  A    
C15   C19   A    
Cu3   O3    S    
N10   N14   A    
C80   C104  A    
C106  C110  S    
C74   N14   A    
C43   H75   S    
C94   C98   A    
C14   C18   A    
Cu3   O23   S    
C75   N12   A    
C50   H10   S    
N3    N4    A    
C6    C142  A    
C131  H47   S    
Cu6   O18   S    
C39   H71   S    
Cu12  O7    S    
C53   H13   S    
C81   C89   S    
C37   H69   S    
Cu5   O33   S    
C56   H16   S    
C37   Cl1   S    
C55   H15   S    
C132  H48   S    
C113  O5    A    
Cu4   Cu8   S    
C3    O19   A    
C6    C126  A    
C138  C142  A    
C53   C57   A    
C98   C113  S    
C51   C55   A    
C82   C86   A    
C5    C45   S    
C33   C37   S    
C108  C112  S    
Cu11  O47   S    
C7    C47   S    
C35   C39   S    
C8    C48   S    
C49   H9    S    
C98   C102  A    
C93   C97   A    
C77   C81   A    
C121  O37   A    
C31   C119  S    
C123  O39   A    
C124  O40   A    
Cu7   O19   S    
C114  O46   A    
N11   N15   A    
C31   C35   A    
C32   C36   A    
C104  C108  S    
C75   N15   A    
C140  H56   S    
Cu1   O1    S    
C11   N4    A    
C137  C141  A    
C116  O48   A    
C9    N2    A    
C140  C144  A    
C4    O20   A    
C60   C75   S    
C89   O33   A    
C82   C90   S    
C90   O30   A    
C67   H23   S    
C79   C83   A    
C65   C69   A    
Cu6   O26   S    
Cu7   O43   S    
C122  O38   A    
C15   C43   S    
Cu12  O13   S    
N12   N16   A    
C22   C26   A    
C137  H53   S    
C86   H26   S    
C44   H8    S    
Cu1   Cu5   S    
Cu5   O25   S    
C93   H29   S    
Cu9   O6    S    
C2    C18   S    
C96   H32   S    
C107  H39   S    
C105  H37   S    
C66   H22   S    
Cu2   O2    S    
C38   C42   S    
C131  C135  A    
C2    O2    A    
C47   O27   A    
C11   N7    A    
C62   H18   S    
Cu1   O21   S    
Cu6   O34   S    
C86   C94   A    
C111  H43   S    
Cu11  O14   S    
C119  O15   A    
C20   C24   A    
C120  O16   A    
C25   H65   S    
C23   C27   A    
C16   C20   A    
C14   C42   S    
C9    C134  S    
C22   H62   S    
C123  O43   A    
C74   N9    A    
C139  C143  A    
C32   C120  S    
C128  C132  A    
C15   C35   A    
Cu12  O10   S    
C126  H2    S    
C101  C105  S    
C63   C67   A    
Cu5   O41   S    
Cu12  O48   S    
C36   C40   S    
C61   H17   S    
C112  H52   S    
C141  H57   S    
C39   C43   S    
C139  H55   S    
C29   C117  S    
C68   H24   S    
C57   C74   S    
Cu2   O38   S    
Cu7   O35   S    
C117  O9    A    
C5    C141  A    
C118  O14   A    
C69   C121  S    
C115  O7    A    
C110  H50   S    
C41   H73   S    
C10   N6    A    
C5    C125  A    
C127  H3    S    
C128  H4    S    
C54   C58   A    
C6    C46   S    
C34   C38   S    
C134  C138  A    
Cu3   O31   S    
C63   H19   S    
C79   C111  S    
C121  O41   A    
C44   H76   S    
C129  H45   S    
C52   H12   S    
C42   H74   S    
C45   O21   A    
C8    C144  A    
C1    O17   A    
C102  C106  S    
C78   C102  A    
Cu9   Cu10  S    
C97   C101  A    
C52   C56   A    
C58   C73   S    
