data_mof_unit_19690.cif
_audit_creation_date              2012-10-26T21:08:05-0400
_audit_creation_method            fapswitch 2.2
_symmetry_space_group_name_H-M    P1
_symmetry_Int_Tables_number       1
_space_group_crystal_system       triclinic
_cell_length_a                    15.851861
_cell_length_b                    10.808307
_cell_length_c                    9.610321
_cell_angle_alpha                 90.323518
_cell_angle_beta                  89.826138
_cell_angle_gamma                 92.197202
_cell_volume                      1645.31007126

loop_
_atom_site_label
_atom_site_type_symbol
_atom_type_description
_atom_site_fract_x
_atom_site_fract_y
_atom_site_fract_z
_atom_type_partial_charge
C1    C     C_R   0.500359 0.262549 0.499279 0.536442
C2    C     C_R   0.300288 0.058350 0.707747 -0.127808
C3    C     C_R   0.300025 0.929832 0.711359 -0.121739
C4    C     C_R   0.339959 0.500004 0.500203 0.536668
C5    C     C_R   0.363473 0.866710 0.643952 -0.098411
C6    C     C_R   0.429660 0.931957 0.573385 0.024115
C7    C     C_R   0.430709 0.062796 0.570670 0.015523
C8    C     C_R   0.496307 0.127973 0.497152 0.010498
C9    C     C_R   0.556848 0.063046 0.419499 -0.024962
C10   C     C_R   0.554049 0.934755 0.423313 -0.128287
C11   C     C_R   0.493095 0.869954 0.500861 -0.000023
C12   C     C_3   0.082927 0.505670 0.502768 0.051698
C13   C     C_R   0.611505 0.664559 0.144179 -0.122969
C14   C     C_R   0.665377 0.746146 0.072748 -0.172679
C15   C     C_R   0.665526 0.747144 0.928238 0.212160
C16   C     C_R   0.497085 0.736781 0.500416 0.530786
C17   C     C_R   0.611116 0.665458 0.856750 -0.023127
C18   C     C_R   0.554601 0.581307 0.925555 0.105366
C19   C     C_R   0.554692 0.581054 0.074929 0.144383
C20   C     C_R   0.448111 0.422666 0.073608 -0.000968
C21   C     C_R   0.448134 0.422685 0.925799 0.004906
C22   C     C_R   0.660072 0.502033 0.499972 0.535840
C23   C     C_3   0.974284 0.593248 0.593452 -0.088424
C24   C     C_3   0.968390 0.394198 0.540946 -0.095888
C25   C     C_3   0.025644 0.420150 0.412526 -0.115516
C26   C     C_1   0.250228 0.501926 0.500915 -0.044208
C27   C     C_1   0.749924 0.505268 0.500427 -0.032123
C28   C     C_3   0.026586 0.480381 0.629828 0.033261
C29   C     C_3   0.059137 0.450100 0.774702 -0.257204
C30   C     C_3   0.986077 0.426630 0.877151 -0.296969
C31   C     C_3   0.018558 0.394684 0.021306 -0.459373
C32   C     C_3   0.627484 0.125229 0.334964 -0.247525
C33   C     C_3   0.701796 0.166342 0.427786 -0.290508
C34   C     C_3   0.917323 0.507330 0.502972 0.043533
C35   C     C_3   0.775209 0.219086 0.340610 -0.453172
C36   C     C_3   0.031672 0.618546 0.464817 -0.110275
C37   C     C_3   0.973010 0.533003 0.374475 -0.110772
C38   C     C_1   0.174668 0.503821 0.501767 -0.072126
C39   C     C_1   0.825583 0.507083 0.501690 -0.062618
C40   C     C_R   0.364224 0.124510 0.637303 -0.108808
Cu1   Cu    Cu3+1 0.499990 0.499990 0.640660 0.917273
Cu2   Cu    Cu3+1 0.500010 0.500010 0.359340 0.917150
H1    H     H_    0.047911 0.349310 0.338346 0.103176
H2    H     H_    0.941889 0.302313 0.573553 0.093682
H3    H     H_    0.949258 0.555277 0.269377 0.106510
H4    H     H_    0.058912 0.710306 0.433188 0.105306
H5    H     H_    0.952042 0.663829 0.668003 0.109864
H6    H     H_    0.359416 0.223851 0.633472 0.128972
H7    H     H_    0.250079 0.107050 0.758157 0.103142
H8    H     H_    0.752711 0.878338 0.918824 0.320736
H9    H     H_    0.056725 0.310703 0.016079 0.149121
H10   H     H_    0.057880 0.473083 0.064283 0.154304
H11   H     H_    0.964215 0.375933 0.092278 0.140391
H12   H     H_    0.249715 0.878683 0.764766 0.109425
H13   H     H_    0.947912 0.510543 0.885473 0.165838
H14   H     H_    0.944534 0.348530 0.839057 0.163018
H15   H     H_    0.097558 0.366434 0.767033 0.140338
H16   H     H_    0.100287 0.528901 0.812049 0.142879
H17   H     H_    0.796934 0.148502 0.265508 0.144613
H18   H     H_    0.755815 0.301928 0.282673 0.168476
H19   H     H_    0.828693 0.246189 0.409678 0.144644
H20   H     H_    0.681732 0.237625 0.503294 0.177158
H21   H     H_    0.723699 0.085697 0.487231 0.172372
H22   H     H_    0.650685 0.059215 0.255520 0.130942
H23   H     H_    0.358942 0.766719 0.645723 0.141320
H24   H     H_    0.605033 0.203879 0.273830 0.184020
H25   H     H_    0.601565 0.884160 0.367734 0.107253
H26   H     H_    0.405553 0.359195 0.128469 0.115761
H27   H     H_    0.617529 0.671304 0.253740 0.186203
H28   H     H_    0.707352 0.808603 0.130908 0.094571
H29   H     H_    0.616281 0.672288 0.747100 0.208226
H30   H     H_    0.405580 0.359230 0.870511 0.111493
N1    N     N_R   0.500800 0.501210 0.147910 -0.236452
N2    N     N_R   0.500830 0.501290 0.852040 -0.243845
O1    O     O_R   0.499990 0.319640 0.618810 -0.501713
O2    O     O_R   0.500000 0.319660 0.381240 -0.509929
O3    O     O_R   0.379070 0.499980 0.618770 -0.510937
O4    O     O_R   0.379080 0.500000 0.381190 -0.488611
O5    O     O_R   0.500000 0.680340 0.618760 -0.525402
O6    O     O_R   0.500010 0.680360 0.381190 -0.515106
O7    O     O_R   0.620920 0.500000 0.618810 -0.512015
O8    O     O_R   0.620930 0.500020 0.381230 -0.518601
O9    O     O_3   0.718302 0.826545 0.853142 -0.714263

loop_
_geom_bond_atom_site_label_1
_geom_bond_atom_site_label_2
_ccdc_geom_bond_type
Cu2   O6    S    
C34   C37   S    
Cu1   Cu2   S    
Cu2   O8    S    
C31   H10   S    
C25   H1    S    
C7    C8    A    
C10   H25   S    
C12   C28   S    
C22   O8    A    
C36   C37   S    
C33   H20   S    
Cu1   O3    S    
C5    C6    A    
C3    H12   S    
C1    C8    S    
C35   H17   S    
C18   C19   A    
C40   H6    S    
C9    C32   S    
C25   C37   S    
Cu1   N2    S    
C27   C39   T    
C8    C9    A    
C7    C40   A    
C36   H4    S    
C12   C36   S    
C9    C10   A    
C18   N2    A    
C13   C14   A    
C14   H28   S    
H8    O9    S    
C23   H5    S    
C13   C19   A    
C21   H30   S    
C34   C39   S    
C1    O1    A    
C22   O7    A    
C19   N1    A    
C24   C25   S    
C32   H22   S    
C5    H23   S    
C6    C11   A    
C26   C38   T    
C15   O9    S    
C30   H14   S    
C21   N2    A    
C24   C34   S    
C35   H18   S    
C16   O6    A    
C4    O4    A    
C29   C30   S    
C2    H7    S    
Cu1   O1    S    
C11   C16   S    
C33   H21   S    
C23   C34   S    
Cu1   O7    S    
C17   C18   A    
C35   H19   S    
C23   C28   S    
C31   H11   S    
C29   H15   S    
C17   H29   S    
C22   C27   S    
C24   H2    S    
C37   H3    S    
C29   H16   S    
C32   H24   S    
C15   C17   A    
C28   C29   S    
Cu2   N1    S    
C1    O2    A    
C20   H26   S    
C24   C28   S    
C31   H9    S    
C3    C5    A    
Cu1   O5    S    
C4    C26   S    
Cu2   O4    S    
C6    C7    A    
C30   H13   S    
Cu2   O2    S    
C12   C25   S    
C16   O5    A    
C32   C33   S    
C2    C3    A    
C4    O3    A    
C30   C31   S    
C13   H27   S    
C33   C35   S    
C20   N1    A    
C12   C38   S    
C10   C11   A    
C2    C40   A    
C20   C21   A    
C23   C36   S    
C14   C15   A    
