data_mof_unit_42157.cif
_audit_creation_date              2012-12-10T20:31:52-0500
_audit_creation_method            fapswitch 2.2
_symmetry_space_group_name_H-M    P1
_symmetry_Int_Tables_number       1
_space_group_crystal_system       triclinic
_cell_length_a                    9.894462
_cell_length_b                    10.658923
_cell_length_c                    15.326311
_cell_angle_alpha                 90.267998
_cell_angle_beta                  67.736183
_cell_angle_gamma                 89.405927
_cell_volume                      1495.73131753

loop_
_atom_site_label
_atom_site_type_symbol
_atom_type_description
_atom_site_fract_x
_atom_site_fract_y
_atom_site_fract_z
_atom_type_partial_charge
C1    C     C_R   0.497289 0.739381 0.503346 0.907407
C2    C     C_R   0.383450 0.428977 0.925154 -0.112231
C3    C     C_R   0.242422 0.478789 0.977982 -0.034686
C4    C     C_R   0.469320 0.381408 0.973638 0.060140
C5    C     C_R   0.437483 0.421431 0.066972 -0.029954
C6    C     C_R   0.291936 0.462049 0.121387 0.412310
C7    C     C_R   0.196993 0.490358 0.076075 -0.129901
C8    C     C_R   0.584876 0.294672 0.932676 -0.194232
C9    C     C_R   0.683685 0.269515 0.975088 -0.119173
C10   C     C_R   0.673505 0.335051 0.056870 -0.001956
C11   C     C_R   0.552618 0.417203 0.101020 -0.138445
C12   C     C_R   0.408502 0.496489 0.676835 0.927271
C13   C     C_R   0.783267 0.321100 0.093754 0.473058
C14   C     C_R   0.768815 0.385132 0.177762 0.256552
C15   C     C_R   0.554825 0.496314 0.174499 0.347787
C16   C     C_R   0.462624 0.934738 0.439464 0.078509
C17   C     C_R   0.493568 0.871308 0.508612 -0.316443
C18   C     C_R   0.540720 0.935695 0.572835 0.321253
C19   C     C_R   0.550040 0.066733 0.567497 0.436343
C20   C     C_R   0.502646 0.128501 0.503122 -0.216991
C21   C     C_R   0.465317 0.062581 0.437530 -0.042464
C22   C     C_3   0.331778 0.072866 0.414454 -0.399904
C23   C     C_R   0.500290 0.260477 0.500901 0.981407
C24   C     C_3   0.327984 0.930748 0.417037 0.281019
C25   C     C_R   0.909467 0.602459 0.531701 0.173645
C26   C     C_R   0.955933 0.405372 0.457461 0.477396
C27   C     C_R   0.097932 0.404966 0.459414 -0.084029
C28   C     C_R   0.051553 0.602218 0.531774 0.201285
C29   C     C_3   0.001216 0.659157 0.627839 -0.519322
C30   C     C_3   0.847776 0.660592 0.627637 -0.458507
C31   C     C_R   0.591986 0.496721 0.323042 0.964780
C32   C     C_R   0.349183 0.483041 0.780125 -0.147308
C33   C     C_R   0.647609 0.467060 0.221298 -0.263276
C34   C     C_R   0.149818 0.517236 0.932097 0.513104
C35   C     C_R   0.203646 0.516679 0.833139 -0.387704
C36   C     C_R   0.439743 0.439458 0.825816 0.408477
N1    N     N_R   0.856900 0.500860 0.500610 -0.165619
N2    N     N_R   0.142540 0.500820 0.500610 -0.141781
O1    O     O_R   0.385310 0.683210 0.499990 -0.631862
O2    O     O_R   0.614650 0.683240 0.500000 -0.598020
O3    O     O_R   0.319830 0.499970 0.632240 -0.630769
O4    O     O_R   0.549170 0.500000 0.632250 -0.548600
O5    O     O_R   0.385350 0.316760 0.500000 -0.650795
O6    O     O_R   0.614690 0.316790 0.500010 -0.563650
O7    O     O_R   0.450830 0.500000 0.367750 -0.570591
O8    O     O_R   0.680170 0.500030 0.367760 -0.651865
Zn1   Zn    Zn3+2 0.346870 0.499980 0.499990 0.952901
Zn2   Zn    Zn3+2 0.653130 0.500020 0.500010 1.009615
H1    H     H_    0.088710 0.525470 0.117992 0.217094
O9    O     O_3   0.901633 0.242860 0.047045 -0.754436
H2    H     H_    0.974311 0.248060 0.076872 0.392570
O10   O     O_3   0.568120 0.875693 0.644386 -0.794658
H3    H     H_    0.520208 0.793004 0.656344 0.333586
O11   O     O_3   0.592033 0.137319 0.628851 -0.718824
H4    H     H_    0.628747 0.081529 0.666667 0.381617
H5    H     H_    0.237635 0.117171 0.472190 0.169136
H6    H     H_    0.356038 0.112911 0.343304 0.229759
H7    H     H_    0.230180 0.891920 0.474091 0.100080
O12   O     O_3   0.356910 0.878104 0.327760 -0.692074
H8    H     H_    0.348564 0.786090 0.337276 0.380237
O13   O     O_3   0.922082 0.308159 0.410768 -0.720947
H9    H     H_    0.847512 0.339978 0.388299 0.392570
H10   H     H_    0.172717 0.328246 0.426921 0.158586
H11   H     H_    0.014586 0.594294 0.680669 0.212309
O14   O     O_3   0.469292 0.603717 0.202193 -0.709324
H12   H     H_    0.453187 0.637404 0.146704 0.357371
H13   H     H_    0.046007 0.754525 0.627132 0.205080
H14   H     H_    0.771737 0.598140 0.681017 0.234319
H15   H     H_    0.805573 0.757080 0.626280 0.251446
O15   O     O_3   0.871252 0.362560 0.216658 -0.757718
H16   H     H_    0.891316 0.443468 0.240960 0.360295
H17   H     H_    0.771973 0.203302 0.940835 0.202299
O16   O     O_3   0.008856 0.557319 0.984909 -0.776490
H18   H     H_    0.958428 0.579021 0.941962 0.335467
H19   H     H_    0.133813 0.548685 0.797593 0.165926
O17   O     O_3   0.585709 0.417765 0.772700 -0.746776
H20   H     H_    0.642680 0.459907 0.805189 0.321302
O18   O     O_3   0.235001 0.466693 0.218637 -0.724549
H21   H     H_    0.291614 0.407654 0.241804 0.351332
H22   H     H_    0.598996 0.245164 0.867948 0.209234

loop_
_geom_bond_atom_site_label_1
_geom_bond_atom_site_label_2
_ccdc_geom_bond_type
C8    C9    A    
C16   C21   A    
O16   H18   S    
C19   C20   A    
C9    H17   S    
C4    C8    A    
C22   H6    S    
C18   O10   S    
C25   C28   A    
C35   H19   S    
C26   C27   A    
C12   O3    A    
C32   C36   A    
C28   C29   S    
C26   O13   S    
C5    C11   A    
C3    C7    A    
C5    C6    A    
C6    O18   S    
C27   N2    A    
C15   O14   S    
C23   O5    A    
C34   C35   A    
C12   O4    A    
C36   O17   S    
C1    O2    A    
C25   N1    A    
C29   H13   S    
C11   C15   A    
C16   C17   A    
C31   O8    A    
C31   C33   S    
O15   H16   S    
C9    C10   A    
C29   H11   S    
O12   H8    S    
C16   C24   S    
C13   C14   A    
C12   C32   S    
C14   O15   S    
C14   C33   A    
O9    H2    S    
O7    Zn1   S    
O8    Zn2   S    
C32   C35   A    
O17   H20   S    
C7    H1    S    
O18   H21   S    
C18   C19   A    
C22   H5    S    
C3    C34   A    
C23   O6    A    
C2    C4    A    
C29   C30   S    
C20   C23   S    
C28   N2    A    
C17   C18   A    
O3    Zn1   S    
O4    Zn2   S    
N1    Zn2   S    
N2    Zn1   S    
C27   H10   S    
C19   O11   S    
C22   C24   S    
C30   H15   S    
O10   H3    S    
O1    Zn1   S    
C2    C36   A    
C25   C30   S    
O2    Zn2   S    
O11   H4    S    
C4    C5    A    
C10   C13   A    
C26   N1    A    
C6    C7    A    
C1    C17   S    
C2    C3    A    
C24   O12   S    
O13   H9    S    
C10   C11   A    
C1    O1    A    
C34   O16   S    
C13   O9    S    
C20   C21   A    
C24   H7    S    
O14   H12   S    
C31   O7    A    
C8    H22   S    
C21   C22   S    
O5    Zn1   S    
C15   C33   A    
C30   H14   S    
O6    Zn2   S    
