data_mof_unit_66504.cif
_audit_creation_date              2012-12-10T18:29:20-0500
_audit_creation_method            fapswitch 2.2
_symmetry_space_group_name_H-M    P1
_symmetry_Int_Tables_number       1
_space_group_crystal_system       triclinic
_cell_length_a                    35.955294
_cell_length_b                    25.800682
_cell_length_c                    22.122537
_cell_angle_alpha                 89.999388
_cell_angle_beta                  144.333545
_cell_angle_gamma                 89.995584
_cell_volume                      11965.9289553

loop_
_atom_site_label
_atom_site_type_symbol
_atom_type_description
_atom_site_fract_x
_atom_site_fract_y
_atom_site_fract_z
_atom_type_partial_charge
C1    C     C_R   0.650298 0.749998 0.000032 0.815287
C2    C     C_R   0.650291 0.250000 0.000020 0.821466
C3    C     C_R   0.150298 0.249998 0.000032 0.815295
C4    C     C_R   0.150295 0.750004 0.000029 0.817463
C5    C     C_3   0.749606 0.550925 0.998579 0.113797
C6    C     C_3   0.749521 0.449041 0.997829 0.115121
C7    C     C_3   0.249829 0.050964 0.999652 0.113165
C8    C     C_3   0.249768 0.949078 0.998878 0.113815
C9    C     C_3   0.498964 0.202715 0.973160 -0.165061
C10   C     C_3   0.500207 0.797624 0.975660 -0.165306
C11   C     C_3   0.999864 0.702496 0.974961 -0.165484
C12   C     C_3   0.000102 0.297591 0.975446 -0.165546
C13   C     C_3   0.940201 0.737072 0.905155 -0.166094
C14   C     C_3   0.940261 0.263207 0.905273 -0.165613
C15   C     C_3   0.439945 0.237930 0.904644 -0.165805
C16   C     C_3   0.440277 0.763331 0.905309 -0.165831
C17   C     C_1   0.889408 0.749994 0.999918 -0.153722
C18   C     C_1   0.889393 0.250014 0.999891 -0.152286
C19   C     C_1   0.389399 0.249986 0.999899 -0.153696
C20   C     C_1   0.389383 0.750019 0.999872 -0.152986
C21   C     C_1   0.610527 0.249984 0.999993 -0.153377
C22   C     C_1   0.610541 0.750014 0.000019 -0.152368
C23   C     C_1   0.110541 0.749997 0.000022 -0.153079
C24   C     C_1   0.110544 0.250013 0.000026 -0.152313
C25   C     C_3   0.022448 0.715423 0.069720 -0.162025
C26   C     C_3   0.022613 0.284405 0.070064 -0.162187
C27   C     C_3   0.521781 0.214765 0.068384 -0.161975
C28   C     C_3   0.522688 0.784317 0.070213 -0.161961
C29   C     C_3   0.963440 0.749998 0.999915 0.207451
C30   C     C_3   0.963427 0.250021 0.999892 0.207253
C31   C     C_3   0.463417 0.249980 0.999869 0.207374
C32   C     C_3   0.463411 0.750024 0.999861 0.207449
C33   C     C_3   0.559926 0.262024 0.095139 -0.165756
C34   C     C_3   0.559596 0.736720 0.094486 -0.165812
C35   C     C_3   0.059718 0.762921 0.094728 -0.165631
C36   C     C_3   0.059643 0.236839 0.094580 -0.165767
C37   C     C_3   0.536455 0.249974 0.999915 0.207382
C38   C     C_3   0.536464 0.750027 0.999935 0.207447
C39   C     C_3   0.036481 0.749995 0.999969 0.207458
C40   C     C_3   0.036478 0.250025 0.999962 0.207286
C41   C     C_3   0.000056 0.797497 0.024922 -0.165663
C42   C     C_3   0.999804 0.202455 0.024408 -0.165539
C43   C     C_3   0.500909 0.297239 0.026624 -0.165937
C44   C     C_3   0.499667 0.702427 0.024135 -0.165915
C45   C     C_R   0.849675 0.749989 0.999952 0.815785
C46   C     C_R   0.849667 0.250015 0.999939 0.815875
C47   C     C_R   0.349673 0.249987 0.999948 0.815973
C48   C     C_R   0.349662 0.750018 0.999931 0.815683
C49   C     C_3   0.478091 0.285189 0.931399 -0.162244
C50   C     C_3   0.477186 0.715734 0.929582 -0.162182
C51   C     C_3   0.977472 0.784571 0.930162 -0.162141
C52   C     C_3   0.977291 0.215641 0.929789 -0.161966
C53   C     C_1   0.922834 0.749997 0.999905 -0.094209
C54   C     C_1   0.922818 0.250017 0.999876 -0.093777
C55   C     C_1   0.422818 0.249984 0.999872 -0.094040
C56   C     C_1   0.422803 0.750022 0.999849 -0.094253
C57   C     C_1   0.577077 0.249977 0.999957 -0.093132
C58   C     C_1   0.577091 0.750023 0.999986 -0.093796
C59   C     C_1   0.077098 0.749994 0.000001 -0.093586
C60   C     C_1   0.077099 0.250021 0.000002 -0.093713
C61   C     C_3   0.489340 0.758679 0.559577 -0.403698
C62   C     C_3   0.499625 0.288262 0.559405 -0.397242
C63   C     C_3   0.989418 0.259056 0.559578 -0.403989
C64   C     C_3   0.989465 0.739933 0.559560 -0.403875
C65   C     C_3   0.429897 0.760782 0.439851 -0.410434
C66   C     C_3   0.440013 0.287945 0.440478 -0.392669
C67   C     C_3   0.929987 0.261146 0.439854 -0.410421
C68   C     C_3   0.930025 0.738085 0.439794 -0.410379
C69   C     C_3   0.544772 0.698923 0.560292 -0.461194
C70   C     C_3   0.568053 0.267313 0.560056 -0.469522
C71   C     C_3   0.044532 0.198711 0.560310 -0.460575
C72   C     C_3   0.043754 0.801512 0.560185 -0.468277
C73   C     C_3   0.554900 0.795687 0.559116 0.086762
C74   C     C_3   0.521608 0.194005 0.559898 0.079483
C75   C     C_3   0.055178 0.295370 0.559111 0.087011
C76   C     C_3   0.055639 0.705118 0.559089 0.087480
C77   C     C_3   0.550544 0.751424 0.601726 0.145140
C78   C     C_3   0.550470 0.249740 0.601824 0.140872
C79   C     C_3   0.050580 0.251379 0.601730 0.144860
C80   C     C_3   0.050518 0.748523 0.601694 0.148924
C81   C     C_3   0.448938 0.750897 0.398168 0.176312
C82   C     C_3   0.448704 0.249785 0.398240 0.175302
C83   C     C_3   0.948974 0.250850 0.398173 0.176875
C84   C     C_3   0.948935 0.749070 0.398136 0.176840
C85   C     C_3   0.484302 0.698274 0.440528 -0.406087
C86   C     C_3   0.508295 0.266527 0.440219 -0.401606
C87   C     C_3   0.984058 0.198077 0.440537 -0.407091
C88   C     C_3   0.983535 0.802050 0.440456 -0.404512
C89   C     C_R   0.891279 0.749722 0.282773 0.759033
C90   C     C_R   0.891299 0.250246 0.282784 0.759239
C91   C     C_R   0.391272 0.249901 0.282809 0.759226
C92   C     C_R   0.391281 0.750270 0.282782 0.759689
C93   C     C_3   0.495402 0.794562 0.439478 -0.431596
C94   C     C_3   0.460081 0.194773 0.439466 -0.450933
C95   C     C_3   0.995677 0.294238 0.439481 -0.431535
C96   C     C_3   0.996035 0.706140 0.439459 -0.431704
C97   C     C_3   0.761177 0.970254 0.080038 -0.385370
C98   C     C_3   0.761167 0.029747 0.080029 -0.385552
C99   C     C_3   0.315178 0.470039 0.107388 -0.400514
C100  C     C_3   0.315179 0.529945 0.107388 -0.400310
C101  C     C_3   0.684813 0.970045 0.891330 -0.396837
C102  C     C_3   0.684798 0.029979 0.891320 -0.400503
C103  C     C_3   0.196914 0.470045 0.972164 -0.398447
C104  C     C_3   0.196916 0.529966 0.972169 -0.398528
C105  C     C_3   0.803491 0.970042 0.029383 -0.398815
C106  C     C_3   0.803488 0.029953 0.029386 -0.399440
C107  C     C_3   0.236901 0.470247 0.917660 -0.386273
C108  C     C_3   0.236898 0.529757 0.917658 -0.386152
C109  C     C_3   0.749827 0.949130 0.000149 0.204349
C110  C     C_3   0.749817 0.050875 0.000141 0.204099
C111  C     C_3   0.249716 0.449128 0.999263 0.206392
C112  C     C_3   0.249716 0.550872 0.999265 0.206026
C113  C     C_R   0.608349 0.750526 0.717224 0.767193
C114  C     C_R   0.608604 0.250058 0.717259 0.790080
C115  C     C_R   0.108365 0.250505 0.717224 0.768048
C116  C     C_R   0.108338 0.749464 0.717212 0.764931
C117  C     C_R   0.749889 0.891410 0.999971 0.746337
C118  C     C_R   0.749880 0.108592 0.999963 0.750399
C119  C     C_R   0.249870 0.391409 0.999783 0.746199
C120  C     C_R   0.249870 0.608591 0.999784 0.746507
C121  C     C_R   0.750024 0.608630 0.000105 0.784932
C122  C     C_R   0.749959 0.391366 0.999617 0.782974
C123  C     C_R   0.250117 0.108646 0.000738 0.788506
C124  C     C_R   0.250043 0.891378 0.000148 0.787071
C125  C     C_3   0.715869 0.530702 0.895545 0.038280
C126  C     C_3   0.719219 0.470018 0.897722 0.015752
C127  C     C_3   0.222386 0.030811 0.902098 0.037012
C128  C     C_3   0.226283 0.970171 0.905200 0.017421
C129  C     C_3   0.715239 0.529788 0.010214 -0.416958
C130  C     C_3   0.712897 0.470142 0.005448 -0.417723
C131  C     C_3   0.209671 0.029802 0.000166 -0.415455
C132  C     C_3   0.207229 0.970182 0.994824 -0.416432
C133  C     C_3   0.819073 0.529671 0.091087 -0.455634
C134  C     C_3   0.818971 0.470167 0.093127 -0.446511
C135  C     C_3   0.318867 0.029708 0.098238 -0.456598
C136  C     C_3   0.318461 0.970154 0.100144 -0.448630
H1    H     H_    0.999608 0.836527 0.045445 0.128106
H2    H     H_    0.999155 0.163369 0.044521 0.128206
H3    H     H_    0.501182 0.336073 0.048586 0.127848
H4    H     H_    0.498919 0.663314 0.044048 0.127837
H5    H     H_    0.609745 0.271922 0.173403 0.128129
H6    H     H_    0.609143 0.725794 0.172215 0.127906
H7    H     H_    0.109346 0.773541 0.172612 0.128094
H8    H     H_    0.109216 0.226007 0.172356 0.128020
H9    H     H_    0.040398 0.687014 0.127054 0.130083
H10   H     H_    0.040708 0.312656 0.127694 0.130077
H11   H     H_    0.539206 0.185833 0.124663 0.130301
H12   H     H_    0.540865 0.812495 0.127998 0.130076
H13   H     H_    0.484241 0.725737 0.584978 0.189335
H14   H     H_    0.519633 0.328219 0.586893 0.179817
H15   H     H_    0.984148 0.226309 0.584999 0.189131
H16   H     H_    0.983906 0.772168 0.585249 0.188405
H17   H     H_    0.492337 0.794430 0.591404 0.147658
H18   H     H_    0.486131 0.278411 0.588805 0.172798
H19   H     H_    0.992606 0.294950 0.591388 0.147306
H20   H     H_    0.993009 0.703669 0.591132 0.147118
H21   H     H_    0.406630 0.799388 0.413360 0.149654
H22   H     H_    0.397882 0.276497 0.412432 0.172986
H23   H     H_    0.906920 0.299852 0.413354 0.149322
H24   H     H_    0.907128 0.699284 0.413026 0.149086
H25   H     H_    0.394845 0.731184 0.408908 0.186519
H26   H     H_    0.431246 0.327884 0.411719 0.180971
H27   H     H_    0.894780 0.231748 0.408911 0.186229
H28   H     H_    0.894690 0.767243 0.409051 0.186044
H29   H     H_    0.542310 0.666466 0.590052 0.193970
H30   H     H_    0.588442 0.307144 0.587981 0.171582
H31   H     H_    0.041919 0.166400 0.590085 0.193791
H32   H     H_    0.040213 0.833292 0.589346 0.193194
H33   H     H_    0.452337 0.666307 0.413278 0.183421
H34   H     H_    0.500621 0.305749 0.410436 0.158630
H35   H     H_    0.951921 0.166303 0.413282 0.183473
H36   H     H_    0.951037 0.833563 0.412803 0.184094
H37   H     H_    0.597495 0.787596 0.586598 0.142355
H38   H     H_    0.557419 0.168992 0.583909 0.152490
H39   H     H_    0.097730 0.286967 0.586604 0.142130
H40   H     H_    0.098009 0.714255 0.586407 0.141876
H41   H     H_    0.743784 0.545971 0.893299 0.100884
H42   H     H_    0.752884 0.460035 0.904851 0.114844
H43   H     H_    0.254118 0.046218 0.907679 0.103962
H44   H     H_    0.264053 0.960423 0.921372 0.117872
H45   H     H_    0.470234 0.832571 0.407222 0.178849
H46   H     H_    0.417745 0.182753 0.410508 0.159859
H47   H     H_    0.970724 0.332344 0.407235 0.178978
H48   H     H_    0.971469 0.667871 0.407431 0.179179
H49   H     H_    0.510831 0.787982 0.412294 0.164420
H50   H     H_    0.465194 0.166162 0.408874 0.166673
H51   H     H_    0.011061 0.287347 0.412284 0.164205
H52   H     H_    0.011237 0.713448 0.412055 0.164007
H53   H     H_    0.587675 0.692374 0.588301 0.152445
H54   H     H_    0.605131 0.241328 0.589556 0.177744
H55   H     H_    0.087399 0.191875 0.588312 0.153307
H56   H     H_    0.086675 0.809196 0.588631 0.154237
H57   H     H_    0.497886 0.690319 0.410721 0.153768
H58   H     H_    0.516296 0.239256 0.412546 0.180928
H59   H     H_    0.997600 0.189827 0.410732 0.153715
H60   H     H_    0.997278 0.810652 0.411052 0.153532
H61   H     H_    0.723173 0.956039 0.060862 0.175316
H62   H     H_    0.723155 0.043961 0.060839 0.175722
H63   H     H_    0.325641 0.455762 0.167633 0.177065
H64   H     H_    0.325646 0.544222 0.167638 0.177220
H65   H     H_    0.807721 0.956059 0.159224 0.173662
H66   H     H_    0.807705 0.043938 0.159212 0.173340
H67   H     H_    0.353770 0.455581 0.128186 0.150012
H68   H     H_    0.353769 0.544395 0.128181 0.150113
H69   H     H_    0.645570 0.955578 0.868893 0.151992
H70   H     H_    0.645544 0.044451 0.868866 0.155505
H71   H     H_    0.204840 0.455773 0.029508 0.179598
H72   H     H_    0.204846 0.544232 0.029521 0.179632
H73   H     H_    0.796527 0.955771 0.973170 0.179157
H74   H     H_    0.796534 0.044231 0.973188 0.179016
H75   H     H_    0.189985 0.456030 0.838921 0.175314
H76   H     H_    0.189980 0.543985 0.838917 0.175268
H77   H     H_    0.850651 0.955581 0.107458 0.149822
H78   H     H_    0.850646 0.044401 0.107467 0.149815
H79   H     H_    0.274203 0.456048 0.935140 0.175790
H80   H     H_    0.274198 0.543950 0.935133 0.175857
H81   H     H_    0.665983 0.545426 0.948835 0.180585
H82   H     H_    0.662386 0.457191 0.938545 0.173101
H83   H     H_    0.160311 0.045525 0.934184 0.182757
H84   H     H_    0.156941 0.957463 0.923078 0.174685
H85   H     H_    0.675371 0.955774 0.832234 0.180412
H86   H     H_    0.675331 0.044259 0.832198 0.176365
H87   H     H_    0.149440 0.455591 0.894544 0.151229
H88   H     H_    0.149442 0.544434 0.894554 0.151183
H89   H     H_    0.845300 0.544897 0.165724 0.191544
H90   H     H_    0.842089 0.456929 0.166266 0.189512
H91   H     H_    0.340815 0.045142 0.169373 0.188057
H92   H     H_    0.336600 0.956989 0.168847 0.186012
H93   H     H_    0.845202 0.542737 0.084503 0.181811
H94   H     H_    0.848112 0.455109 0.093363 0.184473
H95   H     H_    0.349181 0.042553 0.099749 0.184322
H96   H     H_    0.351793 0.955029 0.109168 0.187049
H97   H     H_    0.741146 0.542611 0.085728 0.162592
H98   H     H_    0.734639 0.454532 0.076309 0.162658
H99   H     H_    0.231294 0.042450 0.072253 0.163820
H100  H     H_    0.224058 0.954386 0.061079 0.164319
H101  H     H_    0.890573 0.726452 0.827271 0.127699
H102  H     H_    0.890688 0.274039 0.827498 0.128266
H103  H     H_    0.390126 0.228032 0.826380 0.127916
H104  H     H_    0.390729 0.774256 0.827581 0.127910
H105  H     H_    0.498691 0.163881 0.951196 0.128413
H106  H     H_    0.500954 0.836737 0.955747 0.128117
H107  H     H_    0.000312 0.663466 0.954437 0.128062
H108  H     H_    0.000750 0.336677 0.955333 0.128144
H109  H     H_    0.460667 0.314121 0.875120 0.130037
H110  H     H_    0.459008 0.687556 0.871797 0.130134
H111  H     H_    0.959523 0.812979 0.872829 0.130132
H112  H     H_    0.959197 0.187390 0.872159 0.130332
O1    O     O_3   0.749990 0.749990 0.000000 -0.470140
O2    O     O_3   0.749990 0.250010 0.000000 -0.467660
O3    O     O_3   0.249990 0.249990 0.000000 -0.470087
O4    O     O_3   0.249990 0.750010 0.000000 -0.468526
O5    O     O_R   0.888390 0.719350 0.233690 -0.651638
O6    O     O_R   0.888390 0.280650 0.233690 -0.651212
O7    O     O_R   0.388390 0.219350 0.233690 -0.648813
O8    O     O_R   0.388390 0.780650 0.233690 -0.651235
O9    O     O_R   0.611600 0.719370 0.766300 -0.644776
O10   O     O_R   0.611600 0.280630 0.766300 -0.648138
O11   O     O_R   0.111600 0.219370 0.766300 -0.645063
O12   O     O_R   0.111600 0.780630 0.766300 -0.649607
O13   O     O_R   0.698440 0.780630 0.061300 -0.639480
O14   O     O_R   0.698440 0.219370 0.061300 -0.638991
O15   O     O_R   0.198440 0.280630 0.061300 -0.639381
O16   O     O_R   0.198440 0.719370 0.061300 -0.639026
O17   O     O_R   0.801540 0.780630 0.938710 -0.641718
O18   O     O_R   0.801540 0.219370 0.938710 -0.640810
O19   O     O_R   0.301540 0.280630 0.938710 -0.641883
O20   O     O_R   0.301540 0.719370 0.938710 -0.641752
O21   O     O_R   0.637170 0.719360 0.938750 -0.641056
O22   O     O_R   0.637170 0.280640 0.938750 -0.638499
O23   O     O_R   0.137170 0.219360 0.938750 -0.641443
O24   O     O_R   0.137170 0.780640 0.938750 -0.639906
O25   O     O_R   0.862810 0.719350 0.061240 -0.639115
O26   O     O_R   0.862810 0.280650 0.061240 -0.639665
O27   O     O_R   0.362810 0.219350 0.061240 -0.638913
O28   O     O_R   0.362810 0.780650 0.061240 -0.639034
O29   O     O_R   0.845300 0.780620 0.233710 -0.649193
O30   O     O_R   0.845300 0.219380 0.233710 -0.649590
O31   O     O_R   0.345300 0.280620 0.233710 -0.651790
O32   O     O_R   0.345300 0.719380 0.233710 -0.648937
O33   O     O_R   0.654690 0.780640 0.766300 -0.629522
O34   O     O_R   0.654690 0.219360 0.766300 -0.649759
O35   O     O_R   0.154690 0.280640 0.766300 -0.629186
O36   O     O_R   0.154690 0.719360 0.766300 -0.627724
O37   O     O_R   0.759080 0.866840 0.061290 -0.651912
O38   O     O_R   0.759080 0.133160 0.061290 -0.650750
O39   O     O_R   0.259080 0.366840 0.061290 -0.649505
O40   O     O_R   0.259080 0.633160 0.061290 -0.649174
O41   O     O_R   0.697810 0.633140 0.938720 -0.625749
O42   O     O_R   0.697810 0.366860 0.938720 -0.644740
O43   O     O_R   0.197810 0.133140 0.938720 -0.628279
O44   O     O_R   0.197810 0.866860 0.938720 -0.645119
O45   O     O_R   0.740900 0.866850 0.938740 -0.641642
O46   O     O_R   0.740900 0.133150 0.938740 -0.645666
O47   O     O_R   0.240900 0.366850 0.938740 -0.644354
O48   O     O_R   0.240900 0.633150 0.938740 -0.643874
O49   O     O_R   0.802180 0.633140 0.061250 -0.659138
O50   O     O_R   0.802180 0.366860 0.061250 -0.656097
O51   O     O_R   0.302180 0.133140 0.061250 -0.659000
O52   O     O_R   0.302180 0.866860 0.061250 -0.655760
Zn1   Zn    Zn3+2 0.824550 0.706220 0.087530 0.946870
Zn2   Zn    Zn3+2 0.824550 0.293780 0.087530 0.944897
Zn3   Zn    Zn3+2 0.324550 0.206220 0.087530 0.948828
Zn4   Zn    Zn3+2 0.324550 0.793780 0.087530 0.945601
Zn5   Zn    Zn3+2 0.762980 0.793760 0.087560 0.949186
Zn6   Zn    Zn3+2 0.762980 0.206240 0.087560 0.953840
Zn7   Zn    Zn3+2 0.262980 0.293760 0.087560 0.948962
Zn8   Zn    Zn3+2 0.262980 0.706240 0.087560 0.951187
Zn9   Zn    Zn3+2 0.737010 0.793770 0.912460 0.961270
Zn10  Zn    Zn3+2 0.737010 0.206230 0.912460 0.957616
Zn11  Zn    Zn3+2 0.237010 0.293770 0.912460 0.960709
Zn12  Zn    Zn3+2 0.237010 0.706230 0.912460 0.958916
Zn13  Zn    Zn3+2 0.675440 0.706230 0.912460 0.963170
Zn14  Zn    Zn3+2 0.675440 0.293770 0.912460 0.953868
Zn15  Zn    Zn3+2 0.175440 0.206230 0.912460 0.962873
Zn16  Zn    Zn3+2 0.175440 0.793770 0.912460 0.948731
N1    N     N_2   0.650698 0.550495 0.805402 -0.266180
H113  H     H_    0.617940 0.534594 0.791540 0.237261
C137  C     C_3   0.626438 0.560632 0.713274 -0.785236
H114  H     H_    0.577008 0.575794 0.651141 0.227512
H115  H     H_    0.625909 0.524540 0.685284 0.256357
H116  H     H_    0.656399 0.590240 0.729982 0.225675
N2    N     N_2   0.657097 0.446949 0.802264 -0.285733
H117  H     H_    0.626458 0.440487 0.797404 0.242527
C138  C     C_3   0.654113 0.409231 0.749935 -0.807196
H118  H     H_    0.603664 0.398313 0.674983 0.229599
H119  H     H_    0.681421 0.373882 0.798133 0.238689
H120  H     H_    0.673724 0.426021 0.733499 0.228549
N3    N     N_2   0.157859 0.050503 0.806944 -0.269997
H121  H     H_    0.122275 0.034329 0.786007 0.237438
C139  C     C_3   0.139863 0.061050 0.721227 -0.789663
H122  H     H_    0.090662 0.076911 0.655030 0.227964
H123  H     H_    0.141322 0.024990 0.695827 0.258640
H124  H     H_    0.172520 0.090289 0.744343 0.226279
N4    N     N_2   0.166175 0.946963 0.806138 -0.288069
H125  H     H_    0.131838 0.940198 0.793139 0.241266
C140  C     C_3   0.168937 0.909223 0.761452 -0.815799
H126  H     H_    0.119895 0.900638 0.680864 0.233079
H127  H     H_    0.191476 0.872821 0.807306 0.238767
H128  H     H_    0.196267 0.924874 0.758587 0.231537
N5    N     N_2   0.562200 0.846421 0.597196 -0.285365
H129  H     H_    0.522357 0.860096 0.566796 0.222435
C141  C     C_3   0.593998 0.885604 0.603388 -0.794870
H130  H     H_    0.599819 0.921393 0.638405 0.230036
H131  H     H_    0.565383 0.894878 0.524751 0.228993
H132  H     H_    0.642159 0.871999 0.653308 0.253822
N6    N     N_2   0.509121 0.172921 0.603417 -0.306213
H133  H     H_    0.471984 0.190151 0.577415 0.231245
C142  C     C_3   0.509247 0.116979 0.608247 -0.844066
H134  H     H_    0.502486 0.105498 0.647265 0.239562
H135  H     H_    0.555670 0.101085 0.653928 0.246225
H136  H     H_    0.469903 0.100281 0.528871 0.240369
N7    N     N_2   0.062748 0.346238 0.597162 -0.285030
H137  H     H_    0.022967 0.360191 0.566712 0.221820
C143  C     C_3   0.094828 0.385093 0.603464 -0.796339
H138  H     H_    0.100807 0.421023 0.638405 0.228653
H139  H     H_    0.066338 0.394231 0.524871 0.229203
H140  H     H_    0.142938 0.371231 0.653503 0.254073
N8    N     N_2   0.064013 0.654000 0.597379 -0.284380
H141  H     H_    0.024529 0.639450 0.567266 0.221511
C144  C     C_3   0.096446 0.615834 0.603422 -0.794879
H142  H     H_    0.103133 0.579686 0.638755 0.228846
H143  H     H_    0.144259 0.630296 0.652998 0.253803
H144  H     H_    0.067838 0.606845 0.524706 0.228861

loop_
_geom_bond_atom_site_label_1
_geom_bond_atom_site_label_2
_ccdc_geom_bond_type
O32   Zn8   S    
C4    O24   A    
C82   C94   S    
C128  N4    S    
N3    C139  S    
C88   H60   S    
C36   C42   S    
C73   C93   S    
O5    Zn1   S    
C110  C118  S    
C140  H126  S    
C75   C95   S    
C73   N5    S    
C46   O26   A    
C64   H16   S    
O1    Zn9   S    
C133  H89   S    
C8    C136  S    
C19   C55   T    
C106  H74   S    
C15   H103  S    
O43   Zn15  S    
O50   Zn2   S    
C103  H87   S    
C13   C51   S    
C93   H45   S    
C114  O34   A    
C14   C52   S    
C80   C116  S    
C128  H44   S    
C107  C111  S    
C45   O17   A    
C136  H92   S    
C127  N3    S    
C77   C113  S    
O26   Zn2   S    
N7    C143  S    
C68   H28   S    
C25   C29   S    
C144  H144  S    
C27   C31   S    
N2    H117  S    
C28   C32   S    
C7    C123  S    
C112  C120  S    
C4    C23   S    
C13   H101  S    
C131  H99   S    
C85   H33   S    
C82   C91   S    
C17   C45   S    
C117  O45   A    
C12   C40   S    
C51   H111  S    
C97   H61   S    
C66   C82   S    
O31   Zn7   S    
C143  H138  S    
C87   H35   S    
C132  H100  S    
O20   Zn12  S    
O4    Zn12  S    
O17   Zn9   S    
C140  H128  S    
O19   Zn11  S    
C102  H86   S    
C115  O11   A    
C44   C50   S    
C62   H14   S    
C9    C15   S    
C123  O51   A    
C84   C88   S    
C16   C50   S    
C124  O44   A    
C22   C58   T    
O10   Zn14  S    
C10   C38   S    
C33   H5    S    
C36   H8    S    
C87   H59   S    
C10   C16   S    
C76   C96   S    
C11   C13   S    
C95   H47   S    
C2    O14   A    
C91   O7    A    
C126  H42   S    
C15   C49   S    
O7    Zn3   S    
O8    Zn4   S    
N4    H125  S    
C61   C65   S    
O21   Zn13  S    
O3    Zn7   S    
C65   H25   S    
N8    H141  S    
O4    Zn16  S    
C73   C77   S    
C67   H23   S    
C132  H84   S    
C68   H24   S    
C75   C79   S    
C41   C51   S    
C37   C57   S    
C42   C52   S    
C74   N6    S    
C39   C51   S    
C137  H115  S    
C67   C83   S    
C142  H134  S    
C40   C60   S    
C79   C115  S    
C11   H107  S    
C69   C77   S    
C122  O42   A    
C6    C130  S    
C9    H105  S    
C71   C79   S    
C97   C98   S    
C27   C33   S    
C23   C59   T    
C30   C54   S    
C135  H91   S    
C64   C68   S    
C103  H71   S    
C74   H38   S    
C19   C47   S    
O2    Zn14  S    
C1    O21   A    
C11   C25   S    
C3    O23   A    
C111  C119  S    
C130  H82   S    
O40   Zn8   S    
C81   C92   S    
C8    C128  S    
C61   C77   S    
C12   H108  S    
O3    Zn3   S    
C107  C108  S    
O4    Zn4   S    
O6    Zn2   S    
C90   O6    A    
C1    C22   S    
C71   H31   S    
C72   H32   S    
O13   Zn5   S    
C3    C24   S    
C108  H76   S    
N5    C141  S    
C106  H78   S    
O1    Zn1   S    
C62   C66   S    
C119  O47   A    
C120  O48   A    
C104  C112  S    
O1    Zn5   S    
C115  O35   A    
O2    Zn2   S    
C12   C26   S    
N2    C138  S    
C92   O32   A    
C97   C109  S    
C4    O16   A    
C99   C111  S    
C89   O29   A    
C5    C133  S    
C107  H79   S    
C91   O31   A    
C102  H70   S    
C100  H64   S    
C143  H139  S    
C26   C30   S    
C142  H136  S    
C141  H131  S    
C117  O37   A    
C48   O28   A    
C69   C85   S    
C119  O39   A    
C129  C130  S    
C120  O40   A    
C105  C109  S    
O41   Zn13  S    
C29   C41   S    
C86   H34   S    
C41   H1    S    
C62   C78   S    
C94   H50   S    
C97   H65   S    
O44   Zn16  S    
C15   C31   S    
C16   C32   S    
C21   C57   T    
C127  H43   S    
C76   N8    S    
C72   C80   S    
C50   H110  S    
C86   H58   S    
C138  H119  S    
C61   H13   S    
C45   O25   A    
C134  H94   S    
C35   C41   S    
C139  H124  S    
C69   H29   S    
C67   H27   S    
C16   H104  S    
C5    C125  S    
O49   Zn1   S    
C7    C127  S    
C104  H88   S    
C81   C85   S    
O11   Zn15  S    
C83   C87   S    
C101  C102  S    
C98   C110  S    
C101  H85   S    
C42   H2    S    
C74   C94   S    
C75   N7    S    
O29   Zn5   S    
N7    H137  S    
C95   H51   S    
C135  C136  S    
O37   Zn5   S    
C144  H143  S    
C13   C29   S    
O33   Zn9   S    
O35   Zn11  S    
C107  H75   S    
C101  C109  S    
C52   H112  S    
C105  H73   S    
C66   H26   S    
C103  C111  S    
N1    C137  S    
C129  H81   S    
C38   C58   S    
C125  N1    S    
C121  O49   A    
C123  O43   A    
C7    C131  S    
C124  O52   A    
C20   C56   T    
O45   Zn9   S    
C5    C129  S    
C28   C34   S    
C44   H4    S    
C135  H95   S    
C64   C80   S    
C78   C114  S    
C113  O9    A    
C18   C46   S    
C140  H127  S    
C118  O46   A    
C2    O22   A    
C28   H12   S    
C75   H39   S    
C68   C84   S    
C76   C80   S    
C76   H40   S    
C6    C126  S    
C65   H21   S    
N6    H133  S    
C14   H102  S    
C8    C124  S    
C139  H123  S    
C82   C86   S    
C126  N2    S    
C130  H98   S    
C33   C37   S    
C108  C112  S    
C109  C117  S    
C35   C39   S    
C139  H122  S    
C37   C49   S    
C65   C81   S    
C46   O18   A    
C39   C59   S    
O12   Zn16  S    
C2    C21   S    
C35   H7    S    
O14   Zn6   S    
C63   H15   S    
C20   C48   S    
C31   C43   S    
C25   C35   S    
C71   C87   S    
C92   O8    A    
C26   C36   S    
C100  C112  S    
C133  C134  S    
C102  C110  S    
C131  C132  S    
C17   C53   T    
C9    C27   S    
N4    C140  S    
C10   C28   S    
O2    Zn6   S    
C34   H6    S    
O39   Zn7   S    
C105  C106  S    
C90   O30   A    
C121  O41   A    
C100  H68   S    
O27   Zn3   S    
C104  H72   S    
C138  H118  S    
C133  H93   S    
C118  O38   A    
O15   Zn7   S    
C137  H114  S    
C74   C78   S    
C99   H63   S    
C103  C104  S    
O42   Zn14  S    
C30   C42   S    
C94   H46   S    
C31   C55   S    
O51   Zn3   S    
C32   C56   S    
O52   Zn4   S    
C113  O33   A    
C93   H49   S    
C141  H130  S    
C88   H36   S    
C70   C78   S    
N3    H121  S    
C96   H52   S    
C10   H106  S    
O36   Zn12  S    
C63   C79   S    
N5    H129  S    
C136  H96   S    
C134  H90   S    
C131  H83   S    
O25   Zn1   S    
C70   H30   S    
C84   C96   S    
C47   O27   A    
C48   O20   A    
C5    C121  S    
C26   H10   S    
O24   Zn16  S    
O47   Zn11  S    
O48   Zn12  S    
C8    C132  S    
C43   H3    S    
C40   C52   S    
O16   Zn8   S    
C116  O12   A    
O30   Zn6   S    
O38   Zn6   S    
C137  H116  S    
C142  H135  S    
C89   O5    A    
C96   H48   S    
O18   Zn10  S    
O34   Zn10  S    
C72   C88   S    
O3    Zn15  S    
O22   Zn14  S    
C63   C67   S    
O4    Zn8   S    
C105  H77   S    
C98   H62   S    
C33   C43   S    
C36   C40   S    
C34   C44   S    
C69   H53   S    
C43   C49   S    
C14   C30   S    
C62   H18   S    
C129  H97   S    
C122  O50   A    
C138  H120  S    
C7    C135  S    
O9    Zn13  S    
N6    C142  S    
C81   C93   S    
C99   C100  S    
O46   Zn10  S    
C24   C60   T    
C83   C95   S    
C9    C37   S    
C32   C44   S    
N8    C144  S    
C108  H80   S    
C11   C39   S    
C114  O10   A    
O28   Zn4   S    
C101  H69   S    
C1    O13   A    
C12   C14   S    
C3    O15   A    
C99   H67   S    
C125  H41   S    
C84   C89   S    
C6    C122  S    
C70   C86   S    
C66   H22   S    
C106  C110  S    
C83   C90   S    
O3    Zn11  S    
C34   C38   S    
O23   Zn15  S    
C98   H66   S    
C70   H54   S    
C61   H17   S    
C38   C50   S    
C144  H142  S    
C64   H20   S    
C71   H55   S    
C63   H19   S    
C6    C134  S    
C47   O19   A    
C85   H57   S    
C125  C126  S    
C29   C53   S    
C72   H56   S    
C73   H37   S    
N1    H113  S    
C49   H109  S    
C116  O36   A    
C18   C54   T    
O1    Zn13  S    
O2    Zn10  S    
C143  H140  S    
C27   H11   S    
C141  H132  S    
C25   H9    S    
C127  C128  S    
