data_mof_unit_56226.cif
_audit_creation_date              2012-12-11T16:33:29-0500
_audit_creation_method            fapswitch 2.2
_symmetry_space_group_name_H-M    P1
_symmetry_Int_Tables_number       1
_space_group_crystal_system       triclinic
_cell_length_a                    6.939887
_cell_length_b                    18.160359
_cell_length_c                    20.267296
_cell_angle_alpha                 68.397627
_cell_angle_beta                  90.272387
_cell_angle_gamma                 91.03456
_cell_volume                      2374.50108872

loop_
_atom_site_label
_atom_site_type_symbol
_atom_type_description
_atom_site_fract_x
_atom_site_fract_y
_atom_site_fract_z
_atom_type_partial_charge
O1    O     O_R   0.488960 0.443750 0.941980 -0.540822
O2    O     O_R   0.823890 0.406510 0.087590 -0.546052
O3    O     O_R   0.999680 0.556250 0.058020 -0.525270
C1    C     C_R   0.653261 0.381529 0.113714 0.911528
O4    O     O_R   0.818360 0.434410 0.944340 -0.548234
O5    O     O_R   0.994110 0.584350 0.913750 -0.540243
C2    C     C_R   0.649305 0.422311 0.922188 0.722153
O6    O     O_R   0.494530 0.415650 0.086250 -0.509751
O7    O     O_3   0.662590 0.549160 0.990130 -0.355762
V1    V     V_3+5 0.935320 0.490880 0.001830 1.466896
O8    O     O_R   0.324180 0.593490 0.912410 -0.545440
C3    C     C_R   0.156043 0.616668 0.885025 0.676548
O9    O     O_R   0.329720 0.565590 0.055660 -0.509199
C4    C     C_R   0.161981 0.579930 0.075961 0.749993
V2    V     V_3+5 0.435990 0.509120 0.998170 1.522892
O10   O     O_3   0.158850 0.450840 0.009870 -0.386074
C5    C     C_3   0.076614 0.704298 0.312765 0.559455
C6    C     C_3   0.256613 0.695529 0.272955 0.155950
C7    C     C_1   0.155012 0.626391 0.120763 -0.117170
C8    C     C_1   0.109922 0.875472 0.377505 -0.167755
C9    C     C_3   0.954493 0.720207 0.244902 -0.173255
C10   C     C_3   0.137783 0.711299 0.205261 -0.050074
C11   C     C_3   0.000633 0.810558 0.222427 -0.236126
C12   C     C_3   0.122317 0.793480 0.290579 -0.084213
C13   C     C_3   0.183660 0.801144 0.182002 -0.204806
C14   C     C_3   0.303077 0.784229 0.250650 0.585976
C15   C     C_1   0.147670 0.664861 0.158622 0.078773
C16   C     C_1   0.115248 0.838446 0.338419 0.095716
H1    H     H_    0.228417 0.841228 0.128008 0.182802
H2    H     H_    0.894123 0.858517 0.201636 0.195092
H3    H     H_    0.810514 0.693661 0.242552 0.192620
C17   C     C_R   0.181990 0.776930 0.879776 -0.233129
C18   C     C_R   0.180991 0.852568 0.881322 0.632234
C19   C     C_R   0.146487 0.917159 0.819847 -0.240035
C20   C     C_R   0.117973 0.907969 0.754479 0.190079
C21   C     C_R   0.128610 0.830558 0.750917 0.003825
C22   C     C_R   0.153854 0.764053 0.815764 -0.055843
C23   C     C_R   0.114058 0.817175 0.685570 -0.146786
C24   C     C_R   0.110739 0.738387 0.686723 0.054609
C25   C     C_R   0.124114 0.672902 0.752139 0.041573
C26   C     C_R   0.147435 0.685662 0.816498 -0.101968
C27   C     C_R   0.092440 0.723233 0.623246 -0.211578
C28   C     C_R   0.085098 0.646049 0.624296 -0.099098
C29   C     C_R   0.097023 0.581500 0.688419 0.333460
C30   C     C_R   0.115545 0.595121 0.751773 -0.227565
H4    H     H_    0.204555 0.728465 0.929697 0.129032
H5    H     H_    0.136735 0.974630 0.824066 0.149854
H6    H     H_    0.081606 0.770759 0.572009 0.112543
H7    H     H_    0.067136 0.636657 0.574858 0.159132
H8    H     H_    0.124662 0.543976 0.800636 0.099468
H9    H     H_    0.619038 0.380216 0.418619 0.159824
C31   C     C_R   0.673908 0.092968 0.259126 -0.220380
C32   C     C_R   0.696030 0.075334 0.198783 -0.179372
C33   C     C_R   0.679548 0.134413 0.131430 0.304314
C34   C     C_R   0.641715 0.212913 0.125723 0.186329
C35   C     C_R   0.643471 0.233880 0.187342 -0.013418
C36   C     C_R   0.648838 0.171562 0.255167 0.021022
C37   C     C_R   0.637111 0.314224 0.183264 -0.166862
C38   C     C_R   0.623254 0.330889 0.246617 -0.107350
C39   C     C_R   0.629570 0.267625 0.314490 -0.023427
C40   C     C_R   0.630342 0.187611 0.318190 -0.125318
C41   C     C_R   0.605840 0.410055 0.244338 0.577561
C42   C     C_R   0.595761 0.425740 0.306188 -0.207414
C43   C     C_R   0.613823 0.365476 0.371466 -0.269710
C44   C     C_R   0.640213 0.287454 0.376521 0.264604
H10   H     H_    0.682005 0.043605 0.309235 0.137865
H11   H     H_    0.722702 0.014456 0.205661 0.157639
H12   H     H_    0.582737 0.486105 0.303278 0.168478
O11   O     O_R   0.770540 0.084530 0.414050 -0.534837
O12   O     O_R   0.445710 0.065660 0.555720 -0.535494
O13   O     O_R   0.270420 0.915650 0.586190 -0.529609
C45   C     C_R   0.614785 0.078381 0.577488 0.755145
O14   O     O_R   0.441140 0.093540 0.412470 -0.543802
O15   O     O_R   0.265820 0.943740 0.441930 -0.533905
C46   C     C_R   0.612281 0.119321 0.387159 0.775955
O16   O     O_R   0.775150 0.056440 0.558310 -0.535234
O17   O     O_3   0.602370 0.950960 0.510050 -0.368588
V3    V     V_3+5 0.329450 0.009140 0.498150 1.440377
O18   O     O_R   0.935790 0.934280 0.444060 -0.539208
C47   C     C_R   0.103570 0.920433 0.423543 0.710306
O19   O     O_R   0.940370 0.906390 0.587310 -0.544635
C48   C     C_R   0.108079 0.884396 0.615701 0.767402
V4    V     V_3+5 0.828810 0.990710 0.501460 1.436420
O20   O     O_3   0.105780 0.049100 0.489960 -0.372931
C49   C     C_3   0.686715 0.324941 0.711567 0.643880
C50   C     C_3   0.508439 0.282824 0.694620 -0.202445
H13   H     H_    0.408601 0.308925 0.649373 0.129122
H14   H     H_    0.305873 0.250912 0.795782 0.172918
C51   C     C_1   0.624893 0.124021 0.622933 -0.228348
C52   C     C_1   0.639519 0.377471 0.875950 -0.198865
C53   C     C_3   0.812201 0.251788 0.722643 -0.219468
C54   C     C_3   0.632284 0.208947 0.707411 0.057297
C55   C     C_3   0.751993 0.219988 0.801425 0.278433
C56   C     C_3   0.631628 0.293390 0.790542 0.012996
C57   C     C_3   0.575539 0.175562 0.786899 -0.151839
C58   C     C_3   0.453001 0.250466 0.774736 -0.274978
C59   C     C_1   0.629790 0.162272 0.661001 -0.023829
C60   C     C_1   0.634749 0.339813 0.837321 0.008325
H15   H     H_    0.531747 0.113405 0.818364 0.132157
H16   H     H_    0.960015 0.252570 0.701627 0.120793
N1    N     N_2   0.393326 0.632162 0.299660 -0.517836
H17   H     H_    0.334169 0.577982 0.304394 0.264298
C61   C     C_3   0.498903 0.629645 0.362099 -0.419317
H18   H     H_    0.606127 0.581682 0.375852 0.202659
H19   H     H_    0.399172 0.617598 0.407732 0.216706
H20   H     H_    0.577873 0.686443 0.352035 0.253624
N2    N     N_2   0.057326 0.974408 0.694729 -0.510647
H21   H     H_    0.912211 0.972579 0.684319 0.257712
C62   C     C_3   0.130459 0.052643 0.685957 -0.504808
H22   H     H_    0.115941 0.092335 0.629549 0.205436
H23   H     H_    0.285101 0.050428 0.700696 0.198588
H24   H     H_    0.045585 0.077616 0.718819 0.173489
N3    N     N_2   0.695455 0.116930 0.068305 -0.534383
H25   H     H_    0.796543 0.151422 0.032681 0.240435
C63   C     C_3   0.685345 0.035638 0.072433 -0.504093
H26   H     H_    0.675668 0.034820 0.017995 0.207163
H27   H     H_    0.554742 0.005167 0.102306 0.223288
H28   H     H_    0.817216 0.003787 0.097975 0.190030
N4    N     N_2   0.575372 0.267197 0.059497 -0.550886
H29   H     H_    0.654621 0.267741 0.016534 0.244113
C64   C     C_3   0.370029 0.260394 0.049234 -0.478520
H30   H     H_    0.326409 0.304810 0.997363 0.194957
H31   H     H_    0.288394 0.271154 0.091777 0.192989
H32   H     H_    0.331974 0.200552 0.049521 0.200249
F1    F     F_    0.022481 0.654121 0.380126 -0.688549
F2    F     F_    0.597778 0.474102 0.182982 -0.699766
N5    N     N_2   0.702859 0.232572 0.442887 -0.536428
H33   H     H_    0.631906 0.238531 0.485183 0.242751
C65   C     C_3   0.910171 0.234018 0.451525 -0.474471
H34   H     H_    0.951481 0.190461 0.504118 0.194522
H35   H     H_    0.960746 0.293617 0.448521 0.181371
H36   H     H_    0.983345 0.218699 0.409743 0.203041
F3    F     F_    0.741541 0.402304 0.672539 -0.679764
N6    N     N_2   0.882453 0.186755 0.860437 -0.521549
H37   H     H_    0.817916 0.177000 0.908645 0.259128
C66   C     C_3   0.990272 0.119690 0.859773 -0.544452
H38   H     H_    0.091293 0.100756 0.905385 0.213249
H39   H     H_    0.076206 0.136089 0.810236 0.194605
H40   H     H_    0.891092 0.069358 0.864194 0.201957
F4    F     F_    0.482635 0.817299 0.253297 -0.698956
N7    N     N_2   0.082404 0.502631 0.689743 -0.471710
H41   H     H_    0.049032 0.460372 0.738808 0.269099
C67   C     C_3   0.238288 0.478908 0.655202 -0.426037
H42   H     H_    0.208855 0.417928 0.656981 0.201464
H43   H     H_    0.376438 0.479466 0.683013 0.206374
H44   H     H_    0.250923 0.518790 0.598674 0.203375
F5    F     F_    0.207001 0.863078 0.943673 -0.688351

loop_
_geom_bond_atom_site_label_1
_geom_bond_atom_site_label_2
_ccdc_geom_bond_type
C67   H44   S    
C34   C35   A    
H14   C58   S    
C55   C56   S    
O12   V3    S    
O14   C46   A    
C20   C21   A    
C6    C14   S    
C1    O6    A    
O19   C48   A    
C49   C53   S    
C34   N4    S    
O17   V3    S    
C40   C46   S    
C9    H3    S    
N1    H17   S    
C44   N5    S    
C21   C22   A    
C12   C14   S    
C65   H34   S    
C14   F4    S    
C62   H23   S    
O5    C3    A    
C23   C24   A    
C57   H15   S    
C56   C60   S    
V2    O10   S    
C33   N3    S    
C35   C36   A    
C19   C20   A    
C64   H32   S    
C18   F5    S    
O1    C2    A    
C42   H12   S    
O8    V2    S    
C57   C58   S    
C32   C33   A    
C29   N7    S    
C63   H27   S    
C10   C13   S    
C11   C12   S    
O1    V2    S    
C53   H16   S    
C7    C15   T    
O7    V1    S    
C45   O16   A    
O13   C48   A    
C38   C39   A    
N1    C61   S    
O15   C47   A    
O9    C4    A    
C23   C48   S    
C22   C26   A    
N2    C62   S    
N7    H41   S    
C66   H40   S    
O16   V4    S    
O19   V4    S    
C54   C59   S    
C5    C6    S    
C24   C27   A    
N4    C64   S    
C9    C11   S    
C13   H1    S    
C25   C30   A    
C5    C12   S    
C8    C47   S    
C11   H2    S    
C66   H39   S    
C55   N6    S    
C62   H24   S    
C53   C54   S    
O4    C2    A    
C50   H13   S    
C28   H7    S    
N6    C66   S    
C8    C16   T    
C13   C14   S    
C49   C50   S    
C2    C52   S    
C54   C57   S    
C5    C9    S    
O18   C47   A    
C51   C59   T    
C39   C40   A    
C6    N1    S    
O2    C1    A    
C28   C29   A    
N5    C65   S    
C41   C42   A    
O11   V4    S    
C53   C55   S    
C49   C56   S    
V4    O20   S    
C49   F3    S    
O14   V3    S    
C63   H28   S    
C18   C19   A    
C61   H19   S    
C27   H6    S    
C17   C22   A    
C56   C58   S    
C64   H30   S    
O3    C4    A    
C50   C58   S    
C25   C26   A    
C39   C44   A    
O6    V2    S    
C10   C15   S    
O9    V2    S    
C27   C28   A    
N2    H21   S    
N5    H33   S    
O2    V1    S    
C24   C25   A    
C31   H10   S    
C29   C30   A    
C3    C26   S    
C41   F2    S    
N3    H25   S    
C67   H43   S    
C33   C34   A    
C38   C41   A    
C6    C10   S    
C17   H4    S    
C4    C7    S    
H9    C43   S    
C12   C16   S    
C66   H38   S    
O5    V1    S    
O12   C45   A    
N4    H29   S    
C36   C40   A    
N6    H37   S    
C17   C18   A    
C65   H36   S    
N7    C67   S    
C67   H42   S    
C37   C38   A    
O4    V1    S    
O3    V1    S    
C50   C54   S    
C62   H22   S    
C43   C44   A    
O18   V4    S    
C45   C51   S    
C5    F1    S    
C30   H8    S    
C21   C23   A    
C35   C37   A    
O11   C46   A    
C61   H20   S    
C11   C13   S    
O7    V2    S    
C32   H11   S    
C64   H31   S    
C20   N2    S    
C31   C36   A    
C42   C43   A    
V3    O20   S    
C55   C57   S    
O15   V3    S    
C1    C37   S    
C61   H18   S    
O17   V4    S    
V1    O10   S    
C19   H5    S    
N3    C63   S    
C9    C10   S    
C52   C60   T    
O13   V3    S    
C63   H26   S    
O8    C3    A    
C31   C32   A    
C65   H35   S    
