data_mof_unit_30953.cif
_audit_creation_date              2012-12-10T17:11:01-0500
_audit_creation_method            fapswitch 2.2
_symmetry_space_group_name_H-M    P1
_symmetry_Int_Tables_number       1
_space_group_crystal_system       triclinic
_cell_length_a                    11.773423
_cell_length_b                    13.015288
_cell_length_c                    13.422008
_cell_angle_alpha                 93.357168
_cell_angle_beta                  75.810316
_cell_angle_gamma                 100.035149
_cell_volume                      1963.18714615

loop_
_atom_site_label
_atom_site_type_symbol
_atom_type_description
_atom_site_fract_x
_atom_site_fract_y
_atom_site_fract_z
_atom_type_partial_charge
C1    C     C_R   0.522477 0.700483 0.496619 0.818866
C2    C     C_R   0.457979 0.506343 0.971643 0.007216
C3    C     C_R   0.473044 0.465970 0.869786 -0.037634
C4    C     C_R   0.543469 0.496855 0.027793 0.061894
C5    C     C_R   0.649944 0.460354 0.977313 0.003265
C6    C     C_R   0.661242 0.416457 0.877811 0.231657
C7    C     C_R   0.566235 0.408313 0.830885 0.247204
C8    C     C_R   0.522549 0.516414 0.134248 -0.148387
C9    C     C_R   0.719502 0.484952 0.135685 -0.033214
C10   C     C_R   0.392507 0.481560 0.810691 -0.100864
C11   C     C_R   0.470952 0.186004 0.488091 -0.061360
C12   C     C_R   0.434562 0.489736 0.696386 0.830672
C13   C     C_R   0.536110 0.814006 0.491309 -0.109336
C14   C     C_R   0.634365 0.983575 0.535663 -0.130019
C15   C     C_R   0.624518 0.875820 0.532173 -0.223150
C16   C     C_R   0.459325 0.861576 0.449331 0.233237
C17   C     C_R   0.461590 0.969611 0.462642 0.093548
C18   C     C_R   0.551930 0.030710 0.503486 0.104879
C19   C     C_R   0.558440 0.138472 0.512213 -0.146111
C20   C     C_R   0.377743 0.124987 0.453202 -0.155895
C21   C     C_R   0.374493 0.018183 0.438170 -0.108366
C22   C     C_R   0.940665 0.586507 0.603592 -0.170638
C23   C     C_R   0.479841 0.299357 0.496362 0.877663
C24   C     C_R   0.823515 0.579824 0.595442 0.191241
C25   C     C_R   0.858369 0.460974 0.454664 0.080993
C26   C     C_R   0.977449 0.463710 0.463071 0.003398
C27   C     C_R   0.020583 0.532375 0.535276 -0.000553
C28   C     C_R   0.141966 0.544522 0.539504 0.138863
C29   C     C_R   0.173759 0.411754 0.410869 0.378575
C30   C     C_R   0.055051 0.401937 0.400559 -0.160007
C31   C     C_R   0.565096 0.505632 0.303542 0.819685
C32   C     C_R   0.739123 0.461137 0.030395 -0.060510
C33   C     C_R   0.605859 0.505459 0.189834 -0.142872
C34   C     C_R   0.281153 0.509389 0.862641 -0.086769
C35   C     C_R   0.267609 0.550727 0.962934 0.243603
C36   C     C_R   0.357530 0.554131 0.014087 -0.154800
Cu1   Cu    Cu3+1 0.386470 0.492430 0.492410 1.038533
Cu2   Cu    Cu3+1 0.613530 0.507570 0.507590 0.970392
H1    H     H_    0.307937 0.159622 0.436046 0.209388
H2    H     H_    0.703658 0.029790 0.567224 0.182305
H3    H     H_    0.301315 0.974386 0.410329 0.205052
H4    H     H_    0.685561 0.840782 0.562709 0.172311
H5    H     H_    0.968329 0.633958 0.665063 0.203162
H6    H     H_    0.823654 0.413112 0.397014 0.169946
H7    H     H_    0.824330 0.441066 0.990951 0.219163
H8    H     H_    0.437612 0.533257 0.177135 0.180052
H9    H     H_    0.344843 0.593171 0.088075 0.179208
H10   H     H_    0.631025 0.185004 0.539268 0.202320
N1    N     N_R   0.215880 0.481050 0.481000 -0.219067
N2    N     N_R   0.784100 0.518950 0.519000 -0.235080
O1    O     O_R   0.419710 0.645650 0.494620 -0.557524
O2    O     O_R   0.611450 0.658430 0.507430 -0.627441
O3    O     O_R   0.357340 0.490460 0.641450 -0.580356
O4    O     O_R   0.549080 0.503250 0.654260 -0.588067
O5    O     O_R   0.388550 0.341570 0.492570 -0.540865
O6    O     O_R   0.580290 0.354350 0.505380 -0.564268
O7    O     O_R   0.450920 0.496750 0.345740 -0.530422
O8    O     O_R   0.642660 0.509540 0.358550 -0.622141
C37   C     C_2   0.819093 0.485554 0.185409 0.428166
H11   H     H_    0.833046 0.541628 0.245911 0.098739
O9    O     O_2   0.889200 0.424734 0.156992 -0.511722
Br1   Br    Br    0.362231 0.783273 0.363526 -0.454686
C38   C     C_2   0.190712 0.632226 0.600683 0.426374
H12   H     H_    0.244661 0.621261 0.651930 0.079462
O10   O     O_2   0.172630 0.720524 0.592083 -0.526400
Br2   Br    Br    0.273652 0.324413 0.321566 -0.515409
C39   C     C_2   0.013803 0.325076 0.325342 0.455414
H13   H     H_    0.067125 0.321727 0.247220 0.147028
O11   O     O_2   0.922497 0.262105 0.351164 -0.518566
C40   C     C_2   0.746830 0.640683 0.672443 0.386422
H14   H     H_    0.673137 0.669403 0.656658 0.113099
O12   O     O_2   0.766328 0.660745 0.757411 -0.548185
Br3   Br    Br    0.799971 0.357199 0.808040 -0.397708
C41   C     C_2   0.176878 0.492317 0.816615 0.431651
H15   H     H_    0.115832 0.548016 0.830295 0.096782
O13   O     O_2   0.154678 0.412792 0.767108 -0.474748
Br4   Br    Br    0.126891 0.603961 0.035049 -0.473245
Br5   Br    Br    0.545916 0.293167 0.736608 -0.445044

loop_
_geom_bond_atom_site_label_1
_geom_bond_atom_site_label_2
_ccdc_geom_bond_type
C38   O10   D    
C32   H7    S    
C14   C18   A    
C35   C36   A    
C4    C8    A    
C24   C40   S    
C23   O6    A    
C29   N1    A    
C11   C19   A    
C26   C27   A    
C29   C30   A    
C41   O13   D    
C31   O8    A    
C18   C19   A    
C3    C7    A    
C5    C6    A    
Cu1   O1    S    
Cu2   O2    S    
C36   H9    S    
C34   C35   A    
C25   N2    A    
C9    C32   A    
Cu2   O8    S    
C16   C17   A    
C31   C33   S    
C40   H14   S    
C30   C39   S    
C5    C32   A    
Cu1   O3    S    
C37   H11   S    
C9    C33   A    
C16   Br1   S    
C25   H6    S    
C24   N2    A    
Cu1   O7    S    
C11   C20   A    
C37   O9    D    
C41   H15   S    
C39   H13   S    
C20   H1    S    
C19   H10   S    
C25   C26   A    
C35   Br4   S    
C17   C21   A    
C38   H12   S    
C9    C37   S    
C2    C4    A    
Cu1   Cu2   S    
Cu1   N1    S    
C28   N1    A    
C22   H5    S    
Cu2   O4    S    
C17   C18   A    
C10   C34   A    
C1    O1    A    
C10   C12   S    
C34   C41   S    
C7    Br5   S    
C21   H3    S    
C26   C30   A    
C22   C27   A    
C13   C15   A    
C22   C24   A    
C1    C13   S    
C6    Br3   S    
C2    C36   A    
C12   O3    A    
C15   H4    S    
C4    C5    A    
C23   O5    A    
C6    C7    A    
Cu2   N2    S    
C31   O7    A    
C2    C3    A    
C3    C10   A    
C11   C23   S    
C8    C33   A    
C1    O2    A    
C8    H8    S    
C14   H2    S    
C29   Br2   S    
Cu1   O5    S    
C28   C38   S    
Cu2   O6    S    
C20   C21   A    
C13   C16   A    
C27   C28   A    
C14   C15   A    
C40   O12   D    
C39   O11   D    
C12   O4    A    
