data_mof_unit_17669.cif
_audit_creation_date              2012-12-10T18:46:37-0500
_audit_creation_method            fapswitch 2.2
_symmetry_space_group_name_H-M    P1
_symmetry_Int_Tables_number       1
_space_group_crystal_system       triclinic
_cell_length_a                    18.100328
_cell_length_b                    18.091234
_cell_length_c                    51.4515
_cell_angle_alpha                 90.070085
_cell_angle_beta                  89.930366
_cell_angle_gamma                 89.894499
_cell_volume                      16848.114037

loop_
_atom_site_label
_atom_site_type_symbol
_atom_type_description
_atom_site_fract_x
_atom_site_fract_y
_atom_site_fract_z
_atom_type_partial_charge
C1    C     C_R   0.999995 0.500038 0.820728 0.935722
C2    C     C_R   0.000000 0.499961 0.179100 0.903418
C3    C     C_R   0.499981 0.999785 0.820875 0.915288
C4    C     C_R   0.500043 0.999992 0.179152 0.905139
C5    C     C_R   0.499996 0.000041 0.320725 0.939562
C6    C     C_R   0.499862 0.999951 0.679090 0.900594
C7    C     C_R   0.999959 0.500008 0.320929 0.915557
C8    C     C_R   0.000038 0.500016 0.679323 0.949602
C9    C     C_R   0.488870 0.133939 0.986471 0.415884
C10   C     C_R   0.506512 0.864275 0.013686 0.416490
C11   C     C_R   0.869685 0.535784 0.986091 0.418381
C12   C     C_R   0.129310 0.460538 0.013179 0.420444
C13   C     C_R   0.512283 0.864547 0.986476 0.415785
C14   C     C_R   0.494672 0.134425 0.013674 0.416513
C15   C     C_R   0.130374 0.464316 0.985931 0.418363
C16   C     C_R   0.870711 0.539310 0.013346 0.420377
C17   C     C_R   0.945231 0.623851 0.486998 0.419814
C18   C     C_R   0.051033 0.374938 0.514088 0.417897
C19   C     C_R   0.370468 0.040506 0.486000 0.417096
C20   C     C_R   0.627117 0.955822 0.513187 0.418447
C21   C     C_R   0.054407 0.376375 0.486829 0.419695
C22   C     C_R   0.948803 0.625345 0.514252 0.417857
C23   C     C_R   0.628478 0.959762 0.485942 0.417114
C24   C     C_R   0.371619 0.044249 0.513252 0.418308
C25   C     C_R   0.953639 0.451400 0.609941 0.414493
C26   C     C_R   0.932662 0.502778 0.391106 0.406693
C27   C     C_R   0.506681 0.933032 0.608962 0.409291
C28   C     C_R   0.456332 0.948856 0.390232 0.413019
C29   C     C_R   0.046529 0.548867 0.609964 0.415179
C30   C     C_R   0.066878 0.497409 0.391089 0.406585
C31   C     C_R   0.491421 0.066615 0.609036 0.411664
C32   C     C_R   0.543210 0.051588 0.390245 0.413136
C33   C     C_R   0.436133 0.979912 0.109224 0.404743
C34   C     C_R   0.434651 0.013955 0.890959 0.403505
C35   C     C_R   0.010310 0.433351 0.109023 0.411838
C36   C     C_R   0.956864 0.448588 0.890258 0.412882
C37   C     C_R   0.564520 0.019561 0.109233 0.404887
C38   C     C_R   0.565658 0.983776 0.890802 0.405248
C39   C     C_R   0.989711 0.566242 0.109055 0.411725
C40   C     C_R   0.043171 0.551799 0.890235 0.413638
C41   C     C_R   0.956255 0.448930 0.637183 0.328245
C42   C     C_R   0.932689 0.507263 0.363859 0.331791
C43   C     C_R   0.511144 0.933289 0.636202 0.325894
C44   C     C_R   0.453692 0.951142 0.362987 0.334255
C45   C     C_R   0.043932 0.551224 0.637214 0.324948
C46   C     C_R   0.066992 0.492875 0.363840 0.331916
C47   C     C_R   0.487166 0.066314 0.636278 0.317388
C48   C     C_R   0.546020 0.049183 0.362998 0.334206
C49   C     C_R   0.436830 0.976621 0.136480 0.320633
C50   C     C_R   0.435115 0.017710 0.863714 0.335247
C51   C     C_R   0.014594 0.433867 0.136262 0.319582
C52   C     C_R   0.954017 0.450972 0.863019 0.336497
C53   C     C_R   0.563588 0.023086 0.136488 0.320636
C54   C     C_R   0.564926 0.980173 0.863548 0.325230
C55   C     C_R   0.985425 0.565844 0.136295 0.319595
C56   C     C_R   0.045995 0.549295 0.862992 0.333261
C57   C     C_R   0.000103 0.500042 0.650849 -0.379765
C58   C     C_R   0.999876 0.500043 0.349850 -0.390491
C59   C     C_R   0.499434 0.999846 0.650212 -0.390754
C60   C     C_R   0.499905 0.000127 0.349278 -0.375312
C61   C     C_R   0.500149 0.999913 0.150379 -0.383533
C62   C     C_R   0.500006 0.999232 0.849697 -0.383302
C63   C     C_R   0.000002 0.499885 0.150239 -0.390416
C64   C     C_R   0.999989 0.500117 0.849287 -0.378426
C65   C     C_R   0.000084 0.500155 0.596319 -0.059240
C66   C     C_R   0.999736 0.500093 0.404724 -0.057218
C67   C     C_R   0.499105 0.999840 0.595382 -0.057754
C68   C     C_R   0.499730 0.000249 0.403853 -0.057688
C69   C     C_R   0.500386 0.999675 0.095701 -0.039305
C70   C     C_R   0.500241 0.998916 0.904426 -0.044801
C71   C     C_R   0.000001 0.499767 0.095421 -0.057727
C72   C     C_R   0.000019 0.500225 0.903877 -0.061380
C73   C     C_R   0.141706 0.358517 0.750275 0.916782
C74   C     C_R   0.858210 0.641395 0.249662 0.914458
C75   C     C_R   0.641517 0.141662 0.750280 0.917105
C76   C     C_R   0.358427 0.858286 0.249718 0.918019
C77   C     C_R   0.858294 0.641493 0.750437 0.891121
C78   C     C_R   0.141754 0.358567 0.249648 0.914384
C79   C     C_R   0.358519 0.858254 0.750303 0.921536
C80   C     C_R   0.641592 0.141737 0.249717 0.919255
C81   C     C_R   0.641816 0.858600 0.250344 0.916864
C82   C     C_R   0.358289 0.141507 0.749717 0.915004
C83   C     C_R   0.141638 0.641565 0.250224 0.922211
C84   C     C_R   0.858456 0.358242 0.749687 0.916821
C85   C     C_R   0.358218 0.141436 0.250358 0.916808
C86   C     C_R   0.641747 0.858558 0.749531 0.890412
C87   C     C_R   0.858341 0.358412 0.250224 0.923431
C88   C     C_R   0.141507 0.641842 0.749663 0.921768
C89   C     C_3   0.197458 0.768339 0.768064 -0.445594
C90   C     C_3   0.799981 0.234721 0.230610 -0.450927
C91   C     C_3   0.232546 0.198252 0.768455 -0.460023
C92   C     C_3   0.768006 0.802486 0.231852 -0.454029
C93   C     C_3   0.802132 0.232177 0.768212 -0.444782
C94   C     C_3   0.200072 0.765224 0.230643 -0.450856
C95   C     C_3   0.781899 0.816751 0.744000 -0.507255
C96   C     C_3   0.232191 0.197329 0.231868 -0.453877
C97   C     C_3   0.699996 0.265694 0.269269 -0.446373
C98   C     C_3   0.302955 0.731890 0.731900 -0.449008
C99   C     C_3   0.732078 0.697458 0.268157 -0.456236
C100  C     C_3   0.267517 0.301922 0.731530 -0.458511
C101  C     C_3   0.299948 0.734364 0.269236 -0.446311
C102  C     C_3   0.697454 0.267598 0.731758 -0.447962
C103  C     C_3   0.267717 0.302718 0.268140 -0.456156
C104  C     C_3   0.718161 0.683384 0.755875 -0.499299
C105  C     C_3   0.219649 0.814879 0.744120 0.464060
C106  C     C_3   0.781578 0.184817 0.254114 0.464602
C107  C     C_3   0.185184 0.219238 0.744568 0.470834
C108  C     C_3   0.814802 0.780446 0.255752 0.464811
C109  C     C_3   0.780644 0.185069 0.744305 0.460938
C110  C     C_3   0.218410 0.815196 0.254164 0.464602
C111  C     C_3   0.782269 0.746611 0.726755 0.474437
C112  C     C_3   0.185174 0.219535 0.255753 0.464647
C113  C     C_3   0.718415 0.315572 0.245768 0.468546
C114  C     C_3   0.280735 0.685266 0.755827 0.464995
C115  C     C_3   0.685269 0.719496 0.244257 0.470676
C116  C     C_3   0.314847 0.280871 0.755406 0.468909
C117  C     C_3   0.281594 0.684419 0.245718 0.468544
C118  C     C_3   0.718972 0.314784 0.755647 0.462356
C119  C     C_3   0.314745 0.280516 0.244255 0.470429
C120  C     C_3   0.717828 0.753494 0.773128 0.478745
C121  C     C_3   0.301737 0.800980 0.749944 -0.219513
C122  C     C_3   0.698510 0.199066 0.250059 -0.222855
C123  C     C_3   0.199055 0.301737 0.749875 -0.218142
C124  C     C_3   0.800912 0.698214 0.249997 -0.219706
C125  C     C_3   0.698360 0.198893 0.749920 -0.216756
C126  C     C_3   0.301494 0.800945 0.250059 -0.222431
C127  C     C_3   0.801234 0.698572 0.750484 -0.214526
C128  C     C_3   0.199020 0.301717 0.249969 -0.219320
C129  C     C_3   0.801371 0.301288 0.249804 -0.218970
C130  C     C_3   0.198463 0.699166 0.749979 -0.223850
C131  C     C_3   0.699150 0.801759 0.250016 -0.219425
C132  C     C_3   0.300982 0.198383 0.750088 -0.220835
C133  C     C_3   0.198622 0.698705 0.249803 -0.218542
C134  C     C_3   0.801438 0.300962 0.750006 -0.220798
C135  C     C_3   0.300911 0.198301 0.250044 -0.219089
C136  C     C_3   0.698857 0.801546 0.749414 -0.213436
C137  C     C_3   0.280193 0.753602 0.773522 0.464380
C138  C     C_3   0.716500 0.249804 0.226951 0.469981
C139  C     C_3   0.247228 0.281333 0.773362 0.469691
C140  C     C_3   0.753281 0.719692 0.226465 0.471318
C141  C     C_3   0.719222 0.246824 0.773459 0.465707
C142  C     C_3   0.283566 0.750138 0.226935 0.469933
C143  C     C_3   0.799846 0.768001 0.767847 0.496577
C144  C     C_3   0.246872 0.280083 0.226453 0.471043
C145  C     C_3   0.783494 0.250657 0.272918 0.463707
C146  C     C_3   0.220260 0.746644 0.726412 0.465863
C147  C     C_3   0.746805 0.780249 0.273546 0.468458
C148  C     C_3   0.252800 0.218895 0.726584 0.472623
C149  C     C_3   0.216437 0.749405 0.272934 0.463674
C150  C     C_3   0.780322 0.252929 0.726479 0.467801
C151  C     C_3   0.253033 0.219966 0.273556 0.468289
C152  C     C_3   0.700233 0.732152 0.732034 0.498488
C153  C     C_R   0.504969 0.933273 0.945199 0.626686
C154  C     C_R   0.497020 0.065371 0.054956 0.625929
C155  C     C_R   0.062730 0.479767 0.944704 0.626906
C156  C     C_R   0.936060 0.515850 0.054566 0.626515
C157  C     C_R   0.495972 0.064869 0.945196 0.626651
C158  C     C_R   0.504046 0.933657 0.054962 0.625975
C159  C     C_R   0.937374 0.520663 0.944787 0.626978
C160  C     C_R   0.063916 0.483658 0.054491 0.626324
C161  C     C_R   0.023315 0.438492 0.445600 0.627089
C162  C     C_R   0.972354 0.560044 0.555487 0.626362
C163  C     C_R   0.561689 0.977996 0.444682 0.626184
C164  C     C_R   0.435962 0.018502 0.554502 0.627076
C165  C     C_R   0.976075 0.561666 0.445677 0.626951
C166  C     C_R   0.027755 0.440315 0.555402 0.626226
C167  C     C_R   0.437558 0.022512 0.444715 0.626319
C168  C     C_R   0.562462 0.981286 0.554474 0.626722
C169  C     C_R   0.494981 0.066720 0.972570 -0.188151
C170  C     C_R   0.503641 0.931703 0.027587 -0.187049
C171  C     C_R   0.934991 0.518930 0.972159 -0.190998
C172  C     C_R   0.065054 0.481060 0.027115 -0.191705
C173  C     C_R   0.506099 0.931649 0.972572 -0.188255
C174  C     C_R   0.497499 0.067106 0.027581 -0.187168
C175  C     C_R   0.065086 0.481292 0.972077 -0.191389
C176  C     C_R   0.934948 0.518657 0.027197 -0.191582
C177  C     C_R   0.973326 0.562477 0.473058 -0.191750
C178  C     C_R   0.026419 0.437778 0.528023 -0.190416
C179  C     C_R   0.435130 0.021174 0.472091 -0.190680
C180  C     C_R   0.563613 0.978717 0.527098 -0.190933
C181  C     C_R   0.026214 0.437721 0.472976 -0.191626
C182  C     C_R   0.973515 0.562534 0.528107 -0.190870
C183  C     C_R   0.563919 0.979184 0.472060 -0.190810
C184  C     C_R   0.435015 0.021252 0.527130 -0.191115
C185  C     C_R   0.500554 0.999239 0.986323 -0.146275
C186  C     C_R   0.500570 0.999350 0.013831 -0.145469
C187  C     C_R   0.000029 0.500048 0.985879 -0.146757
C188  C     C_R   0.000010 0.499921 0.013396 -0.146987
C189  C     C_R   0.999817 0.500113 0.486780 -0.147116
C190  C     C_R   0.999916 0.500142 0.514301 -0.146544
C191  C     C_R   0.499472 0.000132 0.485836 -0.145968
C192  C     C_R   0.499367 0.000035 0.513353 -0.147210
H1    H     H_    0.154083 0.781648 0.782610 0.196747
H2    H     H_    0.841272 0.223729 0.215110 0.192984
H3    H     H_    0.220048 0.155464 0.783255 0.191134
H4    H     H_    0.781067 0.845857 0.217327 0.192590
H5    H     H_    0.845155 0.219259 0.782881 0.195943
H6    H     H_    0.158829 0.776181 0.215169 0.193032
H7    H     H_    0.805760 0.871530 0.739187 0.181856
H8    H     H_    0.219284 0.153810 0.217354 0.192730
H9    H     H_    0.658794 0.276736 0.284795 0.196439
H10   H     H_    0.346598 0.718689 0.717444 0.193921
H11   H     H_    0.719095 0.654061 0.282683 0.189104
H12   H     H_    0.280149 0.344763 0.716766 0.190042
H13   H     H_    0.341101 0.723358 0.284736 0.196504
H14   H     H_    0.654176 0.280415 0.717173 0.192840
H15   H     H_    0.280544 0.346259 0.282658 0.189211
H16   H     H_    0.694233 0.628619 0.760666 0.181251
N1    N     N_R   0.500410 0.999017 0.932314 -0.304680
N2    N     N_R   0.500499 0.999565 0.067828 -0.302454
N3    N     N_R   0.000052 0.500247 0.931813 -0.308885
N4    N     N_R   0.999986 0.499725 0.067470 -0.309308
N5    N     N_R   0.999680 0.500077 0.432688 -0.309261
N6    N     N_R   0.000083 0.500184 0.568378 -0.308726
N7    N     N_R   0.499665 0.000275 0.431779 -0.307886
N8    N     N_R   0.499168 0.999865 0.567430 -0.309079
O1    O     O_3   0.000000 0.500000 0.750000 -0.535784
O2    O     O_3   1.000000 0.500000 0.250000 -0.534871
O3    O     O_3   0.500000 0.000000 0.750000 -0.536001
O4    O     O_3   0.500000 0.000000 0.250000 -0.535189
O5    O     O_R   0.000220 0.561630 0.808380 -0.613644
O6    O     O_R   0.999780 0.438370 0.191620 -0.602693
O7    O     O_R   0.438370 0.000220 0.808380 -0.598342
O8    O     O_R   0.561630 0.999780 0.191620 -0.602596
O9    O     O_R   0.999780 0.438370 0.808380 -0.609440
O10   O     O_R   0.000220 0.561630 0.191620 -0.602300
O11   O     O_R   0.561630 0.999780 0.808380 -0.594272
O12   O     O_R   0.438370 0.000220 0.191620 -0.602298
O13   O     O_R   0.500220 0.061630 0.308380 -0.610994
O14   O     O_R   0.499780 0.938370 0.691620 -0.601654
O15   O     O_R   0.938370 0.500220 0.308380 -0.599062
O16   O     O_R   0.061630 0.499780 0.691620 -0.619978
O17   O     O_R   0.499780 0.938370 0.308380 -0.610502
O18   O     O_R   0.500220 0.061630 0.691620 -0.602748
O19   O     O_R   0.061630 0.499780 0.308380 -0.598733
O20   O     O_R   0.938370 0.500220 0.691620 -0.609636
O21   O     O_R   0.086770 0.352080 0.765560 -0.605806
O22   O     O_R   0.913230 0.647920 0.234440 -0.605911
O23   O     O_R   0.647920 0.086770 0.765560 -0.602527
O24   O     O_R   0.352080 0.913230 0.234440 -0.605131
O25   O     O_R   0.913230 0.647920 0.765560 -0.612541
O26   O     O_R   0.086770 0.352080 0.234440 -0.606321
O27   O     O_R   0.352080 0.913230 0.765560 -0.598233
O28   O     O_R   0.647920 0.086770 0.234440 -0.605198
O29   O     O_R   0.586770 0.852080 0.265560 -0.606299
O30   O     O_R   0.413230 0.147920 0.734440 -0.606935
O31   O     O_R   0.147920 0.586770 0.265560 -0.598015
O32   O     O_R   0.852080 0.413230 0.734440 -0.600927
O33   O     O_R   0.413230 0.147920 0.265560 -0.606734
O34   O     O_R   0.586770 0.852080 0.734440 -0.611072
O35   O     O_R   0.852080 0.413230 0.265560 -0.598122
O36   O     O_R   0.147920 0.586770 0.734440 -0.596795
O37   O     O_R   0.852120 0.586630 0.735130 -0.639357
O38   O     O_R   0.147880 0.413370 0.264870 -0.662552
O39   O     O_R   0.413370 0.852120 0.735130 -0.658772
O40   O     O_R   0.586630 0.147880 0.264870 -0.653101
O41   O     O_R   0.147880 0.413370 0.735130 -0.664597
O42   O     O_R   0.852120 0.586630 0.264870 -0.662787
O43   O     O_R   0.586630 0.147880 0.735130 -0.660189
O44   O     O_R   0.413370 0.852120 0.264870 -0.652968
O45   O     O_R   0.352120 0.086630 0.235130 -0.658921
O46   O     O_R   0.647880 0.913370 0.764870 -0.637023
O47   O     O_R   0.913370 0.352120 0.235130 -0.659358
O48   O     O_R   0.086630 0.647880 0.764870 -0.654227
O49   O     O_R   0.647880 0.913370 0.235130 -0.659146
O50   O     O_R   0.352120 0.086630 0.764870 -0.659375
O51   O     O_R   0.086630 0.647880 0.235130 -0.659253
O52   O     O_R   0.913370 0.352120 0.764870 -0.655234
O53   O     O_2   0.507445 0.869887 0.931375 -0.517316
O54   O     O_2   0.492271 0.128594 0.068801 -0.522647
O55   O     O_2   0.122072 0.457188 0.930903 -0.510331
O56   O     O_2   0.873768 0.528187 0.068348 -0.510714
O57   O     O_2   0.493450 0.128143 0.931366 -0.517369
O58   O     O_2   0.508763 0.870546 0.068813 -0.522781
O59   O     O_2   0.878045 0.543346 0.931070 -0.511813
O60   O     O_2   0.126194 0.471214 0.068204 -0.510537
O61   O     O_2   0.043016 0.378070 0.431823 -0.509206
O62   O     O_2   0.943022 0.616380 0.569294 -0.511331
O63   O     O_2   0.620481 0.953995 0.430885 -0.512089
O64   O     O_2   0.374178 0.033363 0.568262 -0.510729
O65   O     O_2   0.956289 0.622064 0.431971 -0.508972
O66   O     O_2   0.057178 0.384003 0.569123 -0.513020
O67   O     O_2   0.378866 0.046586 0.430952 -0.512195
O68   O     O_2   0.624141 0.966318 0.568212 -0.511618
Zn1   Zn    Zn3+2 0.088070 0.500110 0.728590 1.010851
Zn2   Zn    Zn3+2 0.911930 0.499890 0.271410 1.013254
Zn3   Zn    Zn3+2 0.499890 0.088070 0.728590 1.000683
Zn4   Zn    Zn3+2 0.500110 0.911930 0.271410 1.013517
Zn5   Zn    Zn3+2 0.911930 0.499890 0.728590 1.018159
Zn6   Zn    Zn3+2 0.088070 0.500110 0.271410 1.013135
Zn7   Zn    Zn3+2 0.500110 0.911930 0.728590 0.999618
Zn8   Zn    Zn3+2 0.499890 0.088070 0.271410 1.013472
Zn9   Zn    Zn3+2 0.588070 0.000110 0.228590 1.007427
Zn10  Zn    Zn3+2 0.411930 0.999890 0.771410 1.016622
Zn11  Zn    Zn3+2 0.999890 0.588070 0.228590 1.005880
Zn12  Zn    Zn3+2 0.000110 0.411930 0.771410 1.009909
Zn13  Zn    Zn3+2 0.411930 0.999890 0.228590 1.007223
Zn14  Zn    Zn3+2 0.588070 0.000110 0.771410 1.018880
Zn15  Zn    Zn3+2 0.000110 0.411930 0.228590 1.005932
Zn16  Zn    Zn3+2 0.999890 0.588070 0.771410 1.004785
O69   O     O_3   0.193629 0.885892 0.737398 -0.607348
C193  C     C_3   0.115856 0.885417 0.736808 -0.288568
H17   H     H_    0.092686 0.878095 0.756651 0.172871
H18   H     H_    0.094172 0.842234 0.723445 0.190429
H19   H     H_    0.096450 0.939714 0.729482 0.168564
O70   O     O_3   0.808960 0.113145 0.259097 -0.610273
C194  C     C_3   0.886719 0.114040 0.258103 -0.284280
H20   H     H_    0.910469 0.155923 0.271542 0.200943
H21   H     H_    0.906510 0.123592 0.237931 0.177685
H22   H     H_    0.907552 0.059136 0.264303 0.161413
O71   O     O_3   0.114115 0.192866 0.738243 -0.612272
C195  C     C_3   0.114813 0.115024 0.738153 -0.279678
H23   H     H_    0.122618 0.092999 0.758120 0.175569
H24   H     H_    0.157754 0.092479 0.724826 0.202032
H25   H     H_    0.060457 0.095211 0.731094 0.162253
O72   O     O_3   0.885767 0.806452 0.262408 -0.608711
C196  C     C_3   0.885298 0.884293 0.262750 -0.278167
H26   H     H_    0.841858 0.906640 0.275918 0.199729
H27   H     H_    0.878428 0.906847 0.242814 0.173304
H28   H     H_    0.939405 0.903755 0.270158 0.163212
O73   O     O_3   0.807205 0.114047 0.737779 -0.612214
C197  C     C_3   0.884999 0.114997 0.737270 -0.281483
H29   H     H_    0.907861 0.123262 0.757099 0.175389
H30   H     H_    0.906636 0.157770 0.723755 0.196252
H31   H     H_    0.904873 0.060534 0.730190 0.169007
O74   O     O_3   0.191006 0.886880 0.259198 -0.610247
C198  C     C_3   0.113251 0.885978 0.258238 -0.284433
H32   H     H_    0.089458 0.844118 0.271661 0.200944
H33   H     H_    0.093529 0.876386 0.238069 0.177669
H34   H     H_    0.092393 0.940891 0.264482 0.161413
O75   O     O_3   0.818851 0.736818 0.702761 -0.604467
C199  C     C_3   0.798921 0.794412 0.685760 -0.311244
H35   H     H_    0.822187 0.847977 0.692429 0.162729
H36   H     H_    0.737998 0.798770 0.683431 0.177932
H37   H     H_    0.822669 0.782418 0.666321 0.189990
O76   O     O_3   0.114179 0.193521 0.262402 -0.608741
C200  C     C_3   0.114728 0.115685 0.262776 -0.277952
H38   H     H_    0.158060 0.093521 0.275970 0.199767
H39   H     H_    0.121822 0.092932 0.242852 0.173319
H40   H     H_    0.060567 0.096240 0.270172 0.163206
O77   O     O_3   0.691087 0.387250 0.240756 -0.609349
C201  C     C_3   0.613318 0.386341 0.241622 -0.275457
H41   H     H_    0.593234 0.376323 0.261730 0.175536
H42   H     H_    0.589762 0.344784 0.228020 0.202080
H43   H     H_    0.592569 0.441387 0.235545 0.160739
O78   O     O_3   0.306809 0.614224 0.762485 -0.610605
C202  C     C_3   0.384609 0.614359 0.762564 -0.298279
H44   H     H_    0.407266 0.658483 0.775342 0.192282
H45   H     H_    0.406668 0.620001 0.742499 0.175809
H46   H     H_    0.404160 0.560559 0.770284 0.169701
O79   O     O_3   0.614306 0.693467 0.237612 -0.609851
C203  C     C_3   0.614799 0.615627 0.237274 -0.277905
H47   H     H_    0.621684 0.593084 0.257211 0.173445
H48   H     H_    0.658244 0.593289 0.224105 0.201258
H49   H     H_    0.560696 0.596145 0.229868 0.163270
O80   O     O_3   0.385841 0.307191 0.761863 -0.608425
C204  C     C_3   0.385412 0.385032 0.761704 -0.271638
H50   H     H_    0.342123 0.408083 0.774782 0.201460
H51   H     H_    0.378350 0.406551 0.741635 0.171164
H52   H     H_    0.439604 0.404843 0.768918 0.162577
O81   O     O_3   0.308945 0.612731 0.240653 -0.609310
C205  C     C_3   0.386711 0.613646 0.241486 -0.275574
H53   H     H_    0.406726 0.623702 0.261592 0.175514
H54   H     H_    0.410311 0.655180 0.227900 0.202081
H55   H     H_    0.407485 0.558590 0.235365 0.160741
O82   O     O_3   0.692356 0.385829 0.762112 -0.614736
C206  C     C_3   0.614541 0.385157 0.762170 -0.290536
H56   H     H_    0.592055 0.341481 0.775153 0.198477
H57   H     H_    0.592656 0.378435 0.742136 0.177141
H58   H     H_    0.594537 0.439171 0.769621 0.170457
O83   O     O_3   0.385739 0.306555 0.237617 -0.609899
C207  C     C_3   0.385159 0.384391 0.237243 -0.277826
H59   H     H_    0.378038 0.407141 0.257166 0.173507
H60   H     H_    0.341828 0.406536 0.224045 0.201251
H61   H     H_    0.439318 0.403856 0.229853 0.163281
O84   O     O_3   0.681124 0.763142 0.797100 -0.619114
C208  C     C_3   0.701855 0.706106 0.814218 -0.329902
H62   H     H_    0.762757 0.703644 0.816940 0.200711
H63   H     H_    0.680546 0.651844 0.807430 0.169586
H64   H     H_    0.676755 0.717338 0.833501 0.180973
O85   O     O_3   0.317370 0.762369 0.797404 -0.600820
C209  C     C_3   0.285259 0.715813 0.816122 -0.271093
H65   H     H_    0.292108 0.656755 0.810706 0.180796
H66   H     H_    0.225980 0.729397 0.819291 0.178442
H67   H     H_    0.314207 0.724302 0.834873 0.189350
O86   O     O_3   0.675879 0.246215 0.203606 -0.620101
C210  C     C_3   0.710089 0.290937 0.184734 -0.326256
H68   H     H_    0.764211 0.267259 0.178752 0.172150
H69   H     H_    0.716971 0.348852 0.191583 0.200773
H70   H     H_    0.674324 0.292492 0.167253 0.180118
O87   O     O_3   0.241462 0.320732 0.796956 -0.603377
C211  C     C_3   0.278294 0.281522 0.816679 -0.291698
H71   H     H_    0.335572 0.265900 0.810933 0.175339
H72   H     H_    0.246062 0.231837 0.822272 0.162743
H73   H     H_    0.282295 0.317528 0.834081 0.189950
O88   O     O_3   0.760036 0.682085 0.202541 -0.619702
C212  C     C_3   0.718816 0.719549 0.183453 -0.317709
H74   H     H_    0.744028 0.773983 0.178883 0.170216
H75   H     H_    0.660030 0.726561 0.189307 0.199583
H76   H     H_    0.719652 0.686141 0.165364 0.181474
O89   O     O_3   0.681453 0.238577 0.797274 -0.600297
C213  C     C_3   0.713417 0.285186 0.816020 -0.276459
H77   H     H_    0.707707 0.344207 0.810441 0.178786
H78   H     H_    0.772342 0.270790 0.819478 0.178452
H79   H     H_    0.683551 0.277621 0.834660 0.189523
O90   O     O_3   0.324252 0.753663 0.203571 -0.620062
C214  C     C_3   0.290084 0.708907 0.184691 -0.326116
H80   H     H_    0.235988 0.732591 0.178748 0.172127
H81   H     H_    0.283161 0.651011 0.191510 0.200735
H82   H     H_    0.325900 0.707299 0.167191 0.180123
O91   O     O_3   0.854143 0.781136 0.786952 -0.589503
C215  C     C_3   0.845987 0.853458 0.796711 -0.249092
H83   H     H_    0.788864 0.864246 0.803775 0.191592
H84   H     H_    0.861953 0.894934 0.781820 0.163991
H85   H     H_    0.883752 0.860332 0.813496 0.182619
O92   O     O_3   0.240241 0.317451 0.202517 -0.619575
C216  C     C_3   0.281634 0.279850 0.183442 -0.316960
H86   H     H_    0.256525 0.225337 0.178893 0.170298
H87   H     H_    0.340390 0.272975 0.189296 0.199348
H88   H     H_    0.280871 0.313076 0.165340 0.181488
O93   O     O_3   0.824392 0.255836 0.296167 -0.599291
C217  C     C_3   0.793312 0.208667 0.314916 -0.276711
H89   H     H_    0.794123 0.150160 0.308313 0.178812
H90   H     H_    0.736223 0.226182 0.320058 0.177825
H91   H     H_    0.827066 0.211989 0.332854 0.187828
O94   O     O_3   0.183716 0.740322 0.702312 -0.607272
C218  C     C_3   0.222236 0.781534 0.683457 -0.262473
H92   H     H_    0.276489 0.755612 0.678967 0.174981
H93   H     H_    0.229776 0.840093 0.689505 0.182460
H94   H     H_    0.189568 0.781828 0.665244 0.179902
O95   O     O_3   0.740364 0.817739 0.297503 -0.603399
C219  C     C_3   0.781103 0.779637 0.316572 -0.287714
H95   H     H_    0.839621 0.771105 0.310618 0.183174
H96   H     H_    0.754693 0.725893 0.321282 0.156472
H97   H     H_    0.781394 0.813300 0.334602 0.189940
O96   O     O_3   0.259132 0.180384 0.702823 -0.617039
C220  C     C_3   0.217590 0.217125 0.683648 -0.323537
H98   H     H_    0.242734 0.271370 0.678767 0.168871
H99   H     H_    0.158904 0.224378 0.689595 0.194042
H100  H     H_    0.218122 0.183033 0.665716 0.183568
O97   O     O_3   0.175474 0.744293 0.296202 -0.599282
C221  C     C_3   0.206502 0.791513 0.314958 -0.276707
H101  H     H_    0.205715 0.850001 0.308385 0.178809
H102  H     H_    0.263573 0.774006 0.320065 0.177818
H103  H     H_    0.172694 0.788247 0.332912 0.187839
O98   O     O_3   0.817402 0.258786 0.702439 -0.606066
C222  C     C_3   0.779373 0.217091 0.683588 -0.268642
H104  H     H_    0.725269 0.242939 0.678899 0.174963
H105  H     H_    0.771614 0.158699 0.689755 0.179587
H106  H     H_    0.812537 0.216274 0.665460 0.179589
O99   O     O_3   0.259326 0.182701 0.297523 -0.603367
C223  C     C_3   0.218448 0.220966 0.316582 -0.287770
H107  H     H_    0.159986 0.229499 0.310617 0.183085
H108  H     H_    0.244864 0.274723 0.321293 0.156361
H109  H     H_    0.217983 0.187438 0.334614 0.189983
O100  O     O_3   0.645752 0.719249 0.712973 -0.595175
C224  C     C_3   0.654605 0.647536 0.702756 -0.264749
H110  H     H_    0.640832 0.605032 0.717562 0.167014
H111  H     H_    0.711309 0.638394 0.695022 0.201833
H112  H     H_    0.615568 0.640575 0.686338 0.181452
O101  O     O_3   0.481119 0.200645 0.973623 -0.562245
C225  C     C_3   0.405373 0.219104 0.972950 -0.160073
H113  H     H_    0.372479 0.175732 0.962871 0.157510
H114  H     H_    0.398749 0.271199 0.961841 0.190901
H115  H     H_    0.383094 0.228855 0.992827 0.159604
O102  O     O_3   0.508019 0.797163 0.026543 -0.560241
C226  C     C_3   0.435557 0.768612 0.027216 -0.170258
H116  H     H_    0.396818 0.807203 0.037223 0.156805
H117  H     H_    0.436137 0.716230 0.038395 0.186561
H118  H     H_    0.415069 0.755740 0.007345 0.161272
O103  O     O_3   0.804602 0.552382 0.973267 -0.562860
C227  C     C_3   0.761876 0.487405 0.971610 -0.170777
H119  H     H_    0.791806 0.442840 0.960955 0.161432
H120  H     H_    0.710779 0.499997 0.960578 0.185588
H121  H     H_    0.744998 0.467616 0.991200 0.161900
O104  O     O_3   0.193198 0.439756 0.025999 -0.557370
C228  C     C_3   0.195087 0.361904 0.027456 -0.174262
H122  H     H_    0.146096 0.339877 0.038009 0.159442
H123  H     H_    0.244997 0.345210 0.038492 0.189170
H124  H     H_    0.199085 0.336459 0.007805 0.156493
O105  O     O_3   0.520061 0.797744 0.973629 -0.562326
C229  C     C_3   0.595822 0.779350 0.972869 -0.159786
H125  H     H_    0.628644 0.822662 0.962738 0.157389
H126  H     H_    0.602465 0.727160 0.961766 0.190945
H127  H     H_    0.618168 0.769804 0.992721 0.159578
O106  O     O_3   0.493225 0.201641 0.026524 -0.560171
C230  C     C_3   0.565717 0.230118 0.027138 -0.170433
H128  H     H_    0.604400 0.191574 0.037128 0.156773
H129  H     H_    0.565181 0.282602 0.038303 0.186573
H130  H     H_    0.586242 0.242786 0.007249 0.161194
O107  O     O_3   0.195477 0.447843 0.973030 -0.562642
C231  C     C_3   0.238187 0.512846 0.971467 -0.170169
H131  H     H_    0.208262 0.557488 0.960916 0.161243
H132  H     H_    0.289305 0.500359 0.960377 0.185870
H133  H     H_    0.255029 0.532477 0.991083 0.161651
O108  O     O_3   0.806810 0.559985 0.026251 -0.557371
C232  C     C_3   0.804919 0.637825 0.027857 -0.174100
H134  H     H_    0.853903 0.659764 0.038414 0.159509
H135  H     H_    0.755002 0.654425 0.038964 0.189323
H136  H     H_    0.800932 0.663436 0.008258 0.156360
O109  O     O_3   0.917053 0.684872 0.474173 -0.557788
C233  C     C_3   0.839553 0.677698 0.472782 -0.167818
H137  H     H_    0.823323 0.626388 0.462272 0.158045
H138  H     H_    0.817111 0.725314 0.461738 0.194308
H139  H     H_    0.813954 0.678832 0.492451 0.154760
O110  O     O_3   0.075443 0.312327 0.526915 -0.563577
C234  C     C_3   0.016269 0.261887 0.528530 -0.171301
H140  H     H_    0.968336 0.286120 0.539153 0.160590
H141  H     H_    0.035007 0.212699 0.539573 0.185730
H142  H     H_    0.998826 0.242678 0.508929 0.162888
O111  O     O_3   0.306069 0.059461 0.473149 -0.561058
C235  C     C_3   0.260788 0.996216 0.471632 -0.167851
H143  H     H_    0.288945 0.950287 0.461098 0.159063
H144  H     H_    0.210262 0.010623 0.460548 0.186539
H145  H     H_    0.243077 0.977504 0.491262 0.161091
O112  O     O_3   0.690119 0.932583 0.526034 -0.560247
C236  C     C_3   0.689282 0.854690 0.527331 -0.162081
H146  H     H_    0.639449 0.834228 0.537787 0.157297
H147  H     H_    0.738484 0.836078 0.538384 0.195227
H148  H     H_    0.692582 0.829427 0.507635 0.156626
O113  O     O_3   0.082504 0.315331 0.473918 -0.557844
C237  C     C_3   0.159993 0.322513 0.472399 -0.167440
H149  H     H_    0.176145 0.373809 0.461896 0.158097
H150  H     H_    0.182364 0.274883 0.461284 0.194374
H151  H     H_    0.185729 0.321414 0.492023 0.154783
O114  O     O_3   0.924493 0.687986 0.527159 -0.563429
C238  C     C_3   0.983688 0.738415 0.528705 -0.170831
H152  H     H_    0.031687 0.714194 0.539234 0.160468
H153  H     H_    0.965036 0.787631 0.539809 0.185846
H154  H     H_    0.001005 0.757579 0.509086 0.162743
O115  O     O_3   0.692976 0.940903 0.473064 -0.560993
C239  C     C_3   0.738254 0.004168 0.471656 -0.167963
H155  H     H_    0.710168 0.050156 0.461193 0.158964
H156  H     H_    0.788870 0.989842 0.460554 0.186561
H157  H     H_    0.755806 0.022761 0.491318 0.161031
O116  O     O_3   0.308522 0.067404 0.526134 -0.560283
C240  C     C_3   0.309363 0.145287 0.527570 -0.161432
H158  H     H_    0.359117 0.165663 0.538068 0.157240
H159  H     H_    0.260077 0.163826 0.538649 0.195263
H160  H     H_    0.306221 0.170695 0.507918 0.156699
O117  O     O_3   0.909378 0.402340 0.596513 -0.568079
C241  C     C_3   0.839105 0.434769 0.593395 -0.261603
H161  H     H_    0.842328 0.486810 0.581933 0.162170
H162  H     H_    0.812161 0.445311 0.612508 0.189447
H163  H     H_    0.803557 0.395740 0.582468 0.177267
O118  O     O_3   0.866609 0.505931 0.404575 -0.569387
C242  C     C_3   0.840235 0.433251 0.407758 -0.257824
H164  H     H_    0.879410 0.399042 0.419302 0.161399
H165  H     H_    0.829018 0.406528 0.388668 0.189398
H166  H     H_    0.787328 0.435554 0.418630 0.179060
O119  O     O_3   0.514674 0.867401 0.595459 -0.568001
C243  C     C_3   0.444185 0.835714 0.592279 -0.265031
H167  H     H_    0.407156 0.872322 0.580768 0.162570
H168  H     H_    0.418434 0.822455 0.611369 0.183440
H169  H     H_    0.450368 0.783137 0.581374 0.179541
O120  O     O_3   0.412148 0.899752 0.403669 -0.569290
C244  C     C_3   0.451496 0.833031 0.406682 -0.259245
H170  H     H_    0.503057 0.841416 0.418071 0.163077
H171  H     H_    0.464450 0.807358 0.387534 0.189776
H172  H     H_    0.416405 0.793659 0.417637 0.177690
O121  O     O_3   0.090758 0.597999 0.596560 -0.567485
C245  C     C_3   0.161040 0.565611 0.593329 -0.263189
H173  H     H_    0.157825 0.513615 0.581799 0.161830
H174  H     H_    0.188008 0.555004 0.612401 0.189081
H175  H     H_    0.196561 0.604698 0.582420 0.177826
O122  O     O_3   0.132864 0.494292 0.404540 -0.569591
C246  C     C_3   0.159197 0.566984 0.407772 -0.258064
H176  H     H_    0.119952 0.601191 0.419350 0.161407
H177  H     H_    0.170502 0.593692 0.388698 0.189453
H178  H     H_    0.212050 0.564709 0.418630 0.179065
O123  O     O_3   0.482985 0.132220 0.595616 -0.567090
C247  C     C_3   0.553279 0.164301 0.592363 -0.265930
H179  H     H_    0.590458 0.127902 0.580767 0.161845
H180  H     H_    0.579041 0.177699 0.611429 0.183010
H181  H     H_    0.546751 0.216846 0.581514 0.179709
O124  O     O_3   0.587315 0.100745 0.403695 -0.569183
C248  C     C_3   0.547930 0.167462 0.406750 -0.259234
H182  H     H_    0.496324 0.159097 0.418153 0.163126
H183  H     H_    0.535049 0.193065 0.387617 0.189675
H184  H     H_    0.582960 0.206883 0.417711 0.177700
O125  O     O_3   0.373956 0.958436 0.095611 -0.576595
C249  C     C_3   0.326396 0.019881 0.093396 -0.257885
H185  H     H_    0.353195 0.065933 0.082633 0.170190
H186  H     H_    0.307138 0.039335 0.112786 0.189981
H187  H     H_    0.276931 0.002966 0.082179 0.178589
O126  O     O_3   0.370838 0.030281 0.904606 -0.574464
C250  C     C_3   0.329261 0.964895 0.907182 -0.251999
H188  H     H_    0.360246 0.921938 0.918169 0.167123
H189  H     H_    0.312026 0.942971 0.887903 0.192919
H190  H     H_    0.278359 0.977732 0.918343 0.178352
O127  O     O_3   0.021256 0.368091 0.095552 -0.568544
C251  C     C_3   0.952236 0.333379 0.092302 -0.263859
H191  H     H_    0.913773 0.368326 0.080736 0.162032
H192  H     H_    0.926909 0.319074 0.111368 0.183988
H193  H     H_    0.960782 0.281085 0.081424 0.180231
O128  O     O_3   0.913091 0.399098 0.903686 -0.567378
C252  C     C_3   0.953196 0.332883 0.906837 -0.259370
H194  H     H_    0.004464 0.341977 0.918323 0.161967
H195  H     H_    0.966768 0.307247 0.887734 0.188223
H196  H     H_    0.918408 0.293162 0.917755 0.178396
O129  O     O_3   0.626813 0.040923 0.095629 -0.576512
C253  C     C_3   0.674383 0.979453 0.093429 -0.257896
H197  H     H_    0.647671 0.933327 0.082662 0.170215
H198  H     H_    0.693467 0.960141 0.112824 0.189969
H199  H     H_    0.723949 0.996278 0.082222 0.178572
O130  O     O_3   0.629555 0.967228 0.904298 -0.574512
C254  C     C_3   0.671460 0.032435 0.906791 -0.253536
H200  H     H_    0.640770 0.075613 0.917838 0.167439
H201  H     H_    0.688624 0.054140 0.887477 0.192566
H202  H     H_    0.722402 0.019439 0.917852 0.178078
O131  O     O_3   0.978781 0.631448 0.095615 -0.568757
C255  C     C_3   0.047807 0.666138 0.092322 -0.264089
H203  H     H_    0.086274 0.631137 0.080715 0.162021
H204  H     H_    0.073122 0.680526 0.111373 0.184107
H205  H     H_    0.039272 0.718385 0.081466 0.180210
O132  O     O_3   0.086986 0.601316 0.903638 -0.566713
C256  C     C_3   0.046924 0.667567 0.906848 -0.261072
H206  H     H_    0.995661 0.658552 0.918381 0.161766
H207  H     H_    0.033349 0.693128 0.887766 0.187816
H208  H     H_    0.081744 0.707317 0.917745 0.178817
O133  O     O_3   0.914241 0.397503 0.650434 -0.553410
C257  C     C_3   0.957143 0.332968 0.653562 -0.208532
H209  H     H_    0.009064 0.344294 0.664444 0.116785
H210  H     H_    0.969972 0.307008 0.634457 0.182527
H211  H     H_    0.925051 0.292537 0.665095 0.207677
O134  O     O_3   0.865867 0.514042 0.351066 -0.544458
C258  C     C_3   0.847427 0.589732 0.349651 -0.177539
H212  H     H_    0.890500 0.621792 0.339098 0.125506
H213  H     H_    0.838147 0.613675 0.369317 0.183729
H214  H     H_    0.795127 0.595389 0.338612 0.166642
O135  O     O_3   0.522350 0.867006 0.648987 -0.552508
C259  C     C_3   0.599050 0.853947 0.650636 -0.169280
H215  H     H_    0.627489 0.898736 0.661585 0.118301
H216  H     H_    0.624263 0.847361 0.631032 0.178504
H217  H     H_    0.608068 0.801595 0.661388 0.195137
O136  O     O_3   0.406745 0.904083 0.349806 -0.564257
C260  C     C_3   0.338107 0.940104 0.346921 -0.228367
H218  H     H_    0.343591 0.992248 0.335608 0.141283
H219  H     H_    0.311940 0.951377 0.366114 0.193395
H220  H     H_    0.300647 0.903338 0.335948 0.159118
O137  O     O_3   0.085918 0.602623 0.650498 -0.556181
C261  C     C_3   0.043013 0.667156 0.653726 -0.198879
H221  H     H_    0.991124 0.655821 0.664660 0.136338
H222  H     H_    0.030119 0.693100 0.634656 0.181792
H223  H     H_    0.075134 0.707612 0.665248 0.205541
O138  O     O_3   0.133889 0.486127 0.351031 -0.544415
C262  C     C_3   0.152407 0.410451 0.349567 -0.177599
H224  H     H_    0.109433 0.378334 0.338996 0.125553
H225  H     H_    0.161584 0.386549 0.369217 0.183700
H226  H     H_    0.204785 0.404830 0.338522 0.166607
O139  O     O_3   0.474979 0.132428 0.649128 -0.562420
C263  C     C_3   0.398051 0.143877 0.651085 -0.137221
H227  H     H_    0.370716 0.098326 0.661982 0.146562
H228  H     H_    0.372346 0.150290 0.631580 0.171464
H229  H     H_    0.388118 0.195808 0.662044 0.193271
O140  O     O_3   0.593043 0.096188 0.349826 -0.564315
C264  C     C_3   0.661708 0.060167 0.346928 -0.228378
H230  H     H_    0.656311 0.007990 0.335590 0.141425
H231  H     H_    0.687736 0.048954 0.366117 0.193435
H232  H     H_    0.699246 0.096906 0.335976 0.159108
O141  O     O_3   0.373731 0.954098 0.149390 -0.564347
C265  C     C_3   0.375753 0.876531 0.151872 -0.152157
H233  H     H_    0.424037 0.858286 0.163630 0.141048
H234  H     H_    0.376230 0.848788 0.132552 0.168507
H235  H     H_    0.325052 0.858641 0.162191 0.206319
O142  O     O_3   0.370381 0.035552 0.850929 -0.548442
C266  C     C_3   0.366225 0.113071 0.848621 -0.194124
H236  H     H_    0.413864 0.135522 0.837441 0.127682
H237  H     H_    0.362539 0.140188 0.868005 0.184452
H238  H     H_    0.315273 0.126994 0.837760 0.163635
O143  O     O_3   0.029029 0.368258 0.149075 -0.561794
C267  C     C_3   0.106279 0.359516 0.151017 -0.140699
H239  H     H_    0.131852 0.405812 0.162071 0.144387
H240  H     H_    0.132388 0.354372 0.131504 0.170541
H241  H     H_    0.117917 0.307753 0.161811 0.196753
O144  O     O_3   0.906998 0.403937 0.849865 -0.560937
C268  C     C_3   0.838326 0.439963 0.847087 -0.238612
H242  H     H_    0.843703 0.492291 0.835873 0.124630
H243  H     H_    0.812244 0.450905 0.866319 0.194594
H244  H     H_    0.800849 0.403371 0.836063 0.160971
O145  O     O_3   0.626586 0.045695 0.149406 -0.564317
C269  C     C_3   0.624555 0.123279 0.151884 -0.152306
H245  H     H_    0.576200 0.141611 0.163647 0.141094
H246  H     H_    0.624196 0.150882 0.132563 0.168498
H247  H     H_    0.675195 0.141238 0.162196 0.206427
O146  O     O_3   0.629362 0.961591 0.850611 -0.560873
C270  C     C_3   0.632899 0.883967 0.848422 -0.151047
H248  H     H_    0.585981 0.862069 0.836769 0.150360
H249  H     H_    0.634449 0.856954 0.867837 0.171823
H250  H     H_    0.684711 0.869078 0.838147 0.194215
O147  O     O_3   0.971029 0.631522 0.149138 -0.561807
C271  C     C_3   0.893786 0.640335 0.151141 -0.140434
H251  H     H_    0.868172 0.594121 0.162207 0.144856
H252  H     H_    0.867690 0.645390 0.131650 0.170368
H253  H     H_    0.882186 0.692168 0.161952 0.196886
O148  O     O_3   0.093124 0.596152 0.849809 -0.563688
C272  C     C_3   0.161680 0.559899 0.846936 -0.223670
H254  H     H_    0.156110 0.507471 0.835749 0.142082
H255  H     H_    0.187829 0.549079 0.866132 0.193066
H256  H     H_    0.199196 0.596263 0.835838 0.160026

loop_
_geom_bond_atom_site_label_1
_geom_bond_atom_site_label_2
_ccdc_geom_bond_type
C98   C121  S    
C197  H30   S    
C218  H92   S    
C11   C171  A    
C204  H50   S    
C37   C69   A    
C24   C184  A    
C18   C21   A    
C224  H110  S    
C143  O91   S    
O115  C239  S    
O19   Zn6   S    
O16   Zn1   S    
C246  H176  S    
C210  H70   S    
C117  C133  S    
C42   C58   A    
C200  H38   S    
C12   C172  A    
O69   C193  S    
C271  H251  S    
C240  H160  S    
C13   C173  A    
C79   C121  S    
C45   C57   A    
C263  H228  S    
C36   O128  S    
C212  H75   S    
C241  H161  S    
C225  H114  S    
C234  H141  S    
C197  H31   S    
C130  C146  S    
C151  O99   S    
C86   O34   A    
C153  C173  A    
C159  N3    A    
C207  H59   S    
C247  H180  S    
C114  C137  S    
C257  H209  S    
C208  H64   S    
C99   C147  S    
C216  H87   S    
C9    C169  A    
C26   O118  S    
C243  H169  S    
C265  H235  S    
C227  H121  S    
C48   C60   A    
O74   C198  S    
C139  O87   S    
C110  O74   S    
C129  C145  S    
C259  H217  S    
C33   C69   A    
C88   O36   A    
O4    Zn8   S    
C35   C71   A    
C155  N3    A    
C41   O133  S    
O36   Zn1   S    
C266  H238  S    
C114  C130  S    
C102  C118  S    
C23   O115  S    
C108  C124  S    
O132  C256  S    
C264  H231  S    
C271  H252  S    
C264  H230  S    
C270  H250  S    
C233  H138  S    
C14   O106  S    
C163  C183  A    
C191  C192  A    
C267  H241  S    
C91   C107  S    
O128  C252  S    
C32   O124  S    
C211  H72   S    
C25   C41   A    
C236  H147  S    
C154  C174  A    
C201  H41   S    
O112  C236  S    
C80   C122  S    
O110  C234  S    
C244  H170  S    
C4    C61   S    
C28   C44   A    
C255  H205  S    
C29   C45   A    
O72   C196  S    
C94   C142  S    
C196  H28   S    
C31   C67   A    
C222  H105  S    
C100  C148  S    
C8    C57   S    
C40   O132  S    
C30   O122  S    
C253  H198  S    
O24   Zn13  S    
C258  H214  S    
C89   H1    S    
C235  H143  S    
C38   O130  S    
C249  H187  S    
C245  H173  S    
C160  C172  A    
C112  C151  S    
C25   C65   A    
C230  H129  S    
C145  O93   S    
C227  H119  S    
C128  C144  S    
C114  O78   S    
C251  H192  S    
C219  H95   S    
C226  H117  S    
C204  H52   S    
C229  H126  S    
C35   C51   A    
O85   C209  S    
C224  H112  S    
C76   O44   A    
C144  O92   S    
C210  H68   S    
C19   C179  A    
C200  H40   S    
O96   C220  S    
C2    O10   A    
C253  H199  S    
C244  H172  S    
C17   C177  A    
C262  H225  S    
O45   Zn13  S    
C50   O142  S    
C80   O40   A    
C55   O147  S    
O10   Zn11  S    
O140  C264  S    
C92   H4    S    
C201  H43   S    
O2    Zn15  S    
O139  C263  S    
O1    Zn1   S    
C229  H127  S    
C256  H206  S    
C207  H61   S    
C49   O141  S    
O124  C248  S    
C104  C152  S    
C66   N5    S    
C261  H221  S    
C228  H123  S    
O141  C265  S    
O92   C216  S    
C157  O57   S    
C107  C148  S    
C269  H246  S    
C105  C146  S    
O31   Zn6   S    
C51   O143  S    
C44   O136  S    
C117  C142  S    
C206  H58   S    
C73   O41   A    
O125  C249  S    
C98   C114  S    
C47   C59   A    
O147  C271  S    
C187  C188  A    
C179  C191  A    
C239  H155  S    
C154  N2    A    
O73   C197  S    
C246  H178  S    
C83   O31   A    
C266  H236  S    
C39   C71   A    
C17   O109  S    
C182  C190  A    
C94   H6    S    
O129  C253  S    
O133  C257  S    
C153  O53   S    
C86   O46   A    
C43   O135  S    
C269  H247  S    
C238  H154  S    
C85   O33   A    
O93   C217  S    
O6    Zn15  S    
C165  C177  A    
O79   C203  S    
C167  N7    A    
O89   C213  S    
C185  C186  A    
C254  H202  S    
O97   C221  S    
O101  C225  S    
C149  O97   S    
C218  H93   S    
C173  C185  A    
C163  O63   S    
C77   O25   A    
C1    O5    A    
C215  H83   S    
C28   C68   A    
C103  H15   S    
C81   C131  S    
O17   Zn4   S    
C46   O138  S    
C205  H53   S    
C258  H212  S    
C235  H145  S    
C123  C139  S    
C195  H23   S    
C121  C137  S    
C68   N7    S    
O39   Zn7   S    
C90   C129  S    
C53   C61   A    
C106  O70   S    
C219  H97   S    
O131  C255  S    
C125  C141  S    
O100  C224  S    
C73   C123  S    
C55   C63   A    
C260  H220  S    
C20   C23   A    
O15   Zn2   S    
C131  C147  S    
C109  C125  S    
O20   Zn5   S    
C36   C52   A    
C33   O125  S    
C37   C53   A    
C142  O90   S    
C243  H168  S    
C6    O18   A    
C9    O101  S    
O109  C233  S    
C46   C58   A    
C81   O49   A    
C67   N8    S    
O106  C230  S    
C163  N7    A    
C18   O110  S    
C166  C178  A    
O49   Zn9   S    
C90   C138  S    
C259  H216  S    
O25   Zn16  S    
C74   O42   A    
O26   Zn15  S    
C256  H208  S    
C193  H18   S    
C82   O30   A    
C141  O89   S    
C26   C66   A    
C242  H166  S    
C77   O37   A    
C199  H35   S    
C15   O107  S    
C198  H33   S    
C158  C170  A    
C56   O148  S    
C258  H213  S    
C28   O120  S    
C235  H144  S    
C232  H135  S    
C267  H240  S    
C74   O22   A    
C93   H5    S    
C23   C183  A    
O117  C241  S    
O95   C219  S    
C116  C132  S    
C239  H157  S    
C103  C151  S    
C106  C122  S    
C255  H204  S    
O105  C229  S    
O11   Zn14  S    
O51   Zn11  S    
C102  H14   S    
O44   Zn4   S    
C237  H150  S    
C34   O126  S    
C29   C65   A    
C165  N5    A    
C75   O43   A    
C71   N4    S    
C268  H244  S    
C79   O27   A    
C6    O14   A    
C217  H89   S    
C265  H234  S    
O111  C235  S    
C1    C64   S    
C87   O47   A    
C2    C63   S    
C26   C42   A    
C213  H77   S    
C162  N6    A    
C252  H196  S    
C108  O72   S    
C96   H8    S    
O103  C227  S    
O122  C246  S    
C3    O7    A    
C40   C72   A    
C241  H163  S    
C99   H11   S    
C113  C138  S    
C6    C59   S    
C30   C46   A    
C215  H85   S    
C137  O85   S    
O48   Zn16  S    
C97   H9    S    
C223  H107  S    
C210  H69   S    
C119  O83   S    
C240  H159  S    
O9    Zn12  S    
C102  C125  S    
O3    Zn3   S    
C52   O144  S    
C195  H25   S    
C37   O129  S    
O4    Zn4   S    
C194  H22   S    
C168  N8    A    
C109  C150  S    
C22   C182  A    
C154  O54   S    
C212  H74   S    
C202  H46   S    
C241  H162  S    
C225  H115  S    
O3    Zn7   S    
C116  O80   S    
C95   C136  S    
C207  H60   S    
C5    O13   A    
C214  H81   S    
C161  C181  A    
C250  H190  S    
C257  H210  S    
C208  H63   S    
C27   C67   A    
C237  H149  S    
C175  C187  A    
O99   C223  S    
C155  C175  A    
C18   C178  A    
C217  H91   S    
O121  C245  S    
O46   Zn14  S    
C167  O67   S    
C230  H128  S    
O8    Zn9   S    
C249  H186  S    
C69   N2    S    
C221  H101  S    
C221  H102  S    
C233  H139  S    
C220  H98   S    
C36   C72   A    
C93   C109  S    
C99   C124  S    
C74   C124  S    
C38   C70   A    
O5    Zn16  S    
C95   C143  S    
C209  H65   S    
C266  H237  S    
C76   C126  S    
C75   O23   A    
C242  H164  S    
C100  C116  S    
C199  H37   S    
C107  C123  S    
O76   C200  S    
C118  C141  S    
C78   C128  S    
C111  C152  S    
C140  O88   S    
O134  C258  S    
C262  H224  S    
C270  H249  S    
C29   O121  S    
C164  N8    A    
O27   Zn10  S    
C45   O137  S    
O52   Zn12  S    
C84   C134  S    
C268  H242  S    
C106  C145  S    
C159  C171  A    
O32   Zn5   S    
C20   O112  S    
C19   O111  S    
O144  C268  S    
C146  O94   S    
C88   O48   A    
C99   C115  S    
C236  H146  S    
C178  C190  A    
C201  H42   S    
O28   Zn9   S    
C3    C62   S    
C72   N3    S    
C156  N4    A    
O94   C218  S    
C33   C49   A    
O83   C207  S    
C2    O6    A    
C94   C133  S    
C231  H131  S    
C84   O52   A    
O118  C242  S    
C196  H27   S    
O82   C206  S    
C136  C152  S    
C249  H185  S    
C181  C189  A    
C42   O134  S    
C39   C55   A    
C254  H200  S    
C27   O119  S    
C248  H183  S    
C203  H48   S    
C245  H174  S    
C184  C192  A    
C176  C188  A    
C160  O60   S    
O47   Zn15  S    
C96   C135  S    
C34   C70   A    
C5    C60   S    
C113  O77   S    
C116  C139  S    
C16   C176  A    
C219  H96   S    
C197  H29   S    
O123  C247  S    
C204  H51   S    
C31   C47   A    
C119  C144  S    
C224  H111  S    
C120  C143  S    
C251  H193  S    
O1    Zn5   S    
O104  C228  S    
C200  H39   S    
C220  H99   S    
C22   O114  S    
C7    O19   A    
C245  H175  S    
C49   C61   A    
C194  H20   S    
C165  O65   S    
O87   C211  S    
C51   C63   A    
C263  H227  S    
C122  C138  S    
C52   C64   A    
C212  H76   S    
C202  H44   S    
C87   C129  S    
C225  H113  S    
C251  H191  S    
C234  H142  S    
C91   C132  S    
C54   C62   A    
C209  H67   S    
C252  H194  S    
C126  C142  S    
C119  C135  S    
C89   C130  S    
C222  H104  S    
C183  C191  A    
C247  H179  S    
C120  C136  S    
C261  H222  S    
C250  H188  S    
O1    Zn12  S    
C228  H122  S    
O21   Zn12  S    
C256  H207  S    
O22   Zn11  S    
O38   Zn6   S    
C270  H248  S    
C90   H2    S    
C12   C15   A    
C170  C186  A    
O41   Zn1   S    
C82   O50   A    
O88   C212  S    
O43   Zn3   S    
C90   C106  S    
O142  C266  S    
C102  C150  S    
C91   C139  S    
C8    O20   A    
C239  H156  S    
C167  C179  A    
C89   C137  S    
C246  H177  S    
C13   O105  S    
C97   C145  S    
C261  H223  S    
C82   C132  S    
C92   C140  S    
C3    O11   A    
C264  H232  S    
C93   C141  S    
O120  C244  S    
C152  O100  S    
C138  O86   S    
C1    O9    A    
C238  H153  S    
C233  H137  S    
C156  C176  A    
C109  O73   S    
C120  O84   S    
C78   O38   A    
O37   Zn5   S    
C15   C175  A    
C124  C140  S    
C227  H120  S    
O14   Zn7   S    
C236  H148  S    
C155  O55   S    
O135  C259  S    
C254  H201  S    
O84   C208  S    
C156  O56   S    
C21   O113  S    
C10   C170  A    
C17   C22   A    
C231  H133  S    
C84   O32   A    
C76   O24   A    
C100  C123  S    
C101  C117  S    
C215  H84   S    
O86   C210  S    
C222  H106  S    
C41   C57   A    
C65   N6    S    
C14   C174  A    
O75   C199  S    
C168  C180  A    
C153  N1    A    
C100  H12   S    
C54   O146  S    
C272  H254  S    
C32   C48   A    
C104  C127  S    
C205  H54   S    
C44   C60   A    
C135  C151  S    
C211  H71   S    
C35   O127  S    
C94   C110  S    
C230  H130  S    
C104  H16   S    
C189  C190  A    
C112  C128  S    
C272  H255  S    
C27   C43   A    
C226  H118  S    
C157  N1    A    
C115  C140  S    
C229  H125  S    
C105  O69   S    
O91   C215  S    
C260  H219  S    
O90   C214  S    
C161  O61   S    
C75   C125  S    
O18   Zn3   S    
C104  C120  S    
C205  H55   S    
C158  N2    A    
C262  H226  S    
O71   C195  S    
C203  H49   S    
O98   C222  S    
C157  C169  A    
C150  O98   S    
O145  C269  S    
C253  H197  S    
C206  H56   S    
C263  H229  S    
C88   C130  S    
C118  C134  S    
C9    C14   A    
C110  C149  S    
C216  H86   S    
C162  O62   S    
C234  H140  S    
C20   C180  A    
C115  C131  S    
O77   C201  S    
C21   C181  A    
C96   C112  S    
C193  H19   S    
C78   O26   A    
C113  C129  S    
C247  H181  S    
C242  H165  S    
C110  C126  S    
C199  H36   S    
C162  C182  A    
C228  H124  S    
C96   C144  S    
C269  H245  S    
C31   O123  S    
C238  H152  S    
C134  C150  S    
O7    Zn10  S    
C91   H3    S    
O148  C272  S    
C48   O140  S    
C232  H134  S    
C11   C16   A    
C115  O79   S    
O146  C270  S    
O80   C204  S    
O3    Zn14  S    
C39   O131  S    
O4    Zn9   S    
O143  C267  S    
C97   C113  S    
C38   C54   A    
C214  H80   S    
O35   Zn2   S    
O70   C194  S    
O113  C237  S    
C7    C58   S    
C195  H24   S    
C271  H253  S    
C53   O145  S    
C32   C68   A    
C108  C147  S    
C248  H184  S    
O50   Zn10  S    
C268  H243  S    
C40   C56   A    
C203  H47   S    
O29   Zn4   S    
C217  H90   S    
C118  O82   S    
O30   Zn3   S    
C198  H32   S    
C211  H73   S    
C255  H203  S    
C92   C108  S    
C158  O58   S    
C244  H171  S    
C213  H78   S    
C252  H195  S    
C25   O117  S    
C160  N4    A    
C218  H94   S    
C34   C50   A    
C177  C189  A    
O126  C250  S    
C132  C148  S    
C81   O29   A    
C92   C131  S    
C133  C149  S    
O116  C240  S    
C16   O108  S    
C223  H108  S    
C93   C134  S    
C180  C192  A    
C107  O71   S    
O119  C243  S    
C168  O68   S    
C272  H256  S    
C127  C143  S    
C98   C146  S    
C240  H158  S    
C4    O8    A    
O33   Zn8   S    
C12   O104  S    
O34   Zn7   S    
C80   O28   A    
C11   O103  S    
C194  H21   S    
C214  H82   S    
C73   O21   A    
C97   C122  S    
C164  C184  A    
C4    O12   A    
O2    Zn11  S    
C202  H45   S    
C213  H79   S    
O3    Zn10  S    
C226  H116  S    
O4    Zn13  S    
O107  C231  S    
C56   C64   A    
C101  C126  S    
C105  C121  S    
C10   O102  S    
O130  C254  S    
C103  C128  S    
C250  H189  S    
C257  H211  S    
C208  H62   S    
C30   C66   A    
C101  H13   S    
C166  N6    A    
C86   C136  S    
C243  H167  S    
O2    Zn6   S    
C237  H151  S    
C111  C127  S    
C50   C62   A    
C147  O95   S    
C166  O66   S    
C89   C105  S    
C112  O76   S    
O40   Zn8   S    
C216  H88   S    
C259  H215  S    
O137  C261  S    
C111  O75   S    
C161  N5    A    
C193  H17   S    
C209  H66   S    
O12   Zn13  S    
C265  H233  S    
C19   C24   A    
C98   H10   S    
O13   Zn8   S    
C103  C119  S    
O1    Zn16  S    
C85   O45   A    
C10   C13   A    
C77   C127  S    
C198  H34   S    
O138  C262  S    
C43   C59   A    
O81   C205  S    
O2    Zn2   S    
O102  C226  S    
C171  C187  A    
O42   Zn2   S    
C232  H136  S    
C159  O59   S    
C267  H239  S    
O23   Zn14  S    
C221  H103  S    
C83   O51   A    
C87   O35   A    
C169  C185  A    
C148  O96   S    
C95   C111  S    
C174  C186  A    
C223  H109  S    
C8    O16   A    
O78   C202  S    
C260  H218  S    
C172  C188  A    
C7    O15   A    
C101  C149  S    
O108  C232  S    
C220  H100  S    
C231  H132  S    
C206  H57   S    
C196  H26   S    
C83   C133  S    
O127  C251  S    
C95   H7    S    
C248  H182  S    
C47   O139  S    
C70   N1    S    
C79   O39   A    
O114  C238  S    
C164  O64   S    
C5    O17   A    
C24   O116  S    
C117  O81   S    
C85   C135  S    
O136  C260  S    
