data_mof_unit_51589.cif
_audit_creation_date              2012-10-26T20:00:55-0400
_audit_creation_method            fapswitch 2.2
_symmetry_space_group_name_H-M    P1
_symmetry_Int_Tables_number       1
_space_group_crystal_system       triclinic
_cell_length_a                    11.697511
_cell_length_b                    13.004401
_cell_length_c                    13.432574
_cell_angle_alpha                 92.306468
_cell_angle_beta                  76.533181
_cell_angle_gamma                 100.081781
_cell_volume                      1956.48495304

loop_
_atom_site_label
_atom_site_type_symbol
_atom_type_description
_atom_site_fract_x
_atom_site_fract_y
_atom_site_fract_z
_atom_type_partial_charge
C1    C     C_R   0.521032 0.700877 0.501492 0.547894
C2    C     C_R   0.396664 0.469482 0.807475 -0.038377
C3    C     C_R   0.466820 0.185609 0.497857 0.002816
C4    C     C_R   0.435821 0.487090 0.695606 0.532255
C5    C     C_R   0.533220 0.814429 0.502159 0.000819
C6    C     C_R   0.652983 0.985490 0.507688 -0.124922
C7    C     C_R   0.642152 0.877318 0.507519 -0.129571
C8    C     C_R   0.435015 0.860479 0.497161 -0.126227
C9    C     C_R   0.445127 0.968540 0.497326 0.046143
C10   C     C_R   0.554979 0.031525 0.502595 0.048876
C11   C     C_R   0.565080 0.139587 0.502754 -0.123249
C12   C     C_R   0.445446 0.465996 0.974860 0.009429
C13   C     C_R   0.357865 0.122717 0.492607 -0.109288
C14   C     C_R   0.347093 0.014564 0.492311 -0.130072
C15   C     C_R   0.944559 0.593700 0.598304 -0.163410
C16   C     C_R   0.478969 0.299128 0.498540 0.560652
C17   C     C_R   0.825996 0.585000 0.588901 0.044131
C18   C     C_R   0.857193 0.460148 0.456805 0.068870
C19   C     C_R   0.977540 0.465916 0.463342 -0.017768
C20   C     C_R   0.021694 0.533895 0.535283 -0.041898
C21   C     C_R   0.141892 0.540439 0.542403 -0.017839
C22   C     C_R   0.172850 0.413458 0.411282 0.403486
C23   C     C_R   0.477473 0.452765 0.867333 0.016452
C24   C     C_R   0.054357 0.405578 0.400583 0.199976
C25   C     C_R   0.563560 0.503244 0.304053 0.565898
C26   C     C_R   0.737157 0.452374 0.038742 -0.126721
C27   C     C_R   0.599028 0.494242 0.192518 0.004913
C28   C     C_R   0.277684 0.474205 0.856427 -0.098304
C29   C     C_R   0.240782 0.469896 0.962872 0.131720
C30   C     C_R   0.324937 0.470563 0.021533 -0.100131
C31   C     C_3   0.050523 0.359389 0.012348 -0.272667
C32   C     C_R   0.534257 0.470073 0.032022 0.038255
C33   C     C_R   0.648699 0.448342 0.983353 0.052840
C34   C     C_R   0.672659 0.420179 0.880562 -0.138970
C35   C     C_R   0.587742 0.420430 0.823834 -0.112964
C36   C     C_R   0.513325 0.496894 0.135947 -0.103173
C37   C     C_R   0.712136 0.473817 0.143257 -0.127956
Cl1   Cl    Cl    0.263218 0.332572 0.333088 -0.530948
Cl2   Cl    Cl    0.003836 0.319682 0.308067 -0.633375
Cu1   Cu    Cu3+1 0.386470 0.492430 0.492410 1.000285
Cu2   Cu    Cu3+1 0.613530 0.507570 0.507590 0.938735
H1    H     H_    0.779997 0.472041 0.185670 0.144828
H2    H     H_    0.757446 0.397660 0.843724 0.109514
H3    H     H_    0.820522 0.408773 0.402548 0.177105
H4    H     H_    0.824847 0.437106 0.001118 0.116108
H5    H     H_    0.430559 0.520517 0.174842 0.137931
H6    H     H_    0.212804 0.481040 0.812230 0.142063
H7    H     H_    0.291755 0.467691 0.103480 0.145456
H8    H     H_    0.608849 0.390633 0.746819 0.154940
H9    H     H_    0.649612 0.187606 0.506745 0.136781
H10   H     H_    0.103718 0.497622 0.083174 0.270053
H11   H     H_    0.958138 0.357967 0.057927 0.157386
H12   H     H_    0.280957 0.156948 0.488909 0.174045
H13   H     H_    0.091293 0.303952 0.048362 0.200245
H14   H     H_    0.047276 0.333572 0.933050 0.142335
H15   H     H_    0.737687 0.033006 0.511770 0.126027
H16   H     H_    0.262376 0.967051 0.488269 0.115206
H17   H     H_    0.718969 0.843043 0.511449 0.135794
H18   H     H_    0.350494 0.812473 0.493131 0.123400
H19   H     H_    0.176331 0.592922 0.597241 0.129270
H20   H     H_    0.975493 0.646706 0.654476 0.095907
H21   H     H_    0.767258 0.631338 0.637843 0.132024
N1    N     N_R   0.215880 0.481050 0.481000 -0.255629
N2    N     N_R   0.784100 0.518950 0.519000 -0.246819
N3    N     N_2   0.118120 0.463891 0.011453 -0.522357
O1    O     O_R   0.419710 0.645650 0.494620 -0.513377
O2    O     O_R   0.611450 0.658430 0.507430 -0.505124
O3    O     O_R   0.357340 0.490460 0.641450 -0.512311
O4    O     O_R   0.549080 0.503250 0.654260 -0.515000
O5    O     O_R   0.388550 0.341570 0.492570 -0.454219
O6    O     O_R   0.580290 0.354350 0.505380 -0.523710
O7    O     O_R   0.450920 0.496750 0.345740 -0.455135
O8    O     O_R   0.642660 0.509540 0.358550 -0.509356

loop_
_geom_bond_atom_site_label_1
_geom_bond_atom_site_label_2
_ccdc_geom_bond_type
C28   H6    S    
C19   C20   A    
C31   H11   S    
Cu2   O2    S    
C12   C23   A    
Cu1   N1    S    
Cu1   O5    S    
C1    C5    S    
C32   C36   A    
C30   H7    S    
C28   C29   A    
C34   C35   A    
C8    H18   S    
C22   Cl1   S    
C24   Cl2   S    
C31   N3    S    
C18   C19   A    
H10   N3    S    
C37   H1    S    
C26   H4    S    
C22   N1    A    
C8    C9    A    
C35   H8    S    
C36   H5    S    
C9    C10   A    
C7    H17   S    
C3    C13   A    
Cu2   O6    S    
Cu1   O1    S    
C13   C14   A    
C12   C32   A    
C16   O6    A    
C4    O4    A    
C1    O1    A    
C13   H12   S    
C15   C20   A    
C16   O5    A    
C21   H19   S    
C5    C7    A    
C4    O3    A    
C2    C4    S    
C9    C14   A    
C29   C30   A    
C18   H3    S    
C17   H21   S    
C26   C33   A    
C33   C34   A    
C15   H20   S    
C25   O7    A    
C29   N3    S    
Cu1   Cu2   S    
C23   C35   A    
C22   C24   A    
Cu2   O4    S    
C15   C17   A    
C14   H16   S    
Cu1   O7    S    
C12   C30   A    
C34   H2    S    
C6    H15   S    
C6    C10   A    
C5    C8    A    
C26   C37   A    
C6    C7    A    
C27   C36   A    
C25   C27   S    
C32   C33   A    
C19   C24   A    
C17   N2    A    
C11   H9    S    
C18   N2    A    
C27   C37   A    
C1    O2    A    
C25   O8    A    
C31   H13   S    
C21   N1    A    
C3    C11   A    
C10   C11   A    
Cu2   O8    S    
C20   C21   A    
Cu1   O3    S    
C2    C23   A    
C2    C28   A    
Cu2   N2    S    
C31   H14   S    
C3    C16   S    
