data_mof_unit_41412.cif
_audit_creation_date              2012-12-11T15:39:19-0500
_audit_creation_method            fapswitch 2.2
_symmetry_space_group_name_H-M    P1
_symmetry_Int_Tables_number       1
_space_group_crystal_system       triclinic
_cell_length_a                    17.416394
_cell_length_b                    24.462675
_cell_length_c                    14.929011
_cell_angle_alpha                 89.999955
_cell_angle_beta                  125.932764
_cell_angle_gamma                 90.000242
_cell_volume                      5150.15959822

loop_
_atom_site_label
_atom_site_type_symbol
_atom_type_description
_atom_site_fract_x
_atom_site_fract_y
_atom_site_fract_z
_atom_type_partial_charge
C1    C     C_R   0.343938 0.351538 0.906092 -0.157054
C2    C     C_R   0.652674 0.349500 0.091642 -0.128383
C3    C     C_R   0.847328 0.849499 0.908358 -0.128383
C4    C     C_R   0.156060 0.851538 0.093907 -0.157060
C5    C     C_R   0.375153 0.680169 0.997040 0.144451
C6    C     C_R   0.687793 0.637413 0.000587 0.070710
C7    C     C_R   0.812205 0.137408 0.999414 0.070797
C8    C     C_R   0.124847 0.180169 0.002961 0.144458
C9    C     C_R   0.451770 0.500072 0.276557 0.043188
C10   C     C_R   0.436446 0.499767 0.632938 0.041200
C11   C     C_R   0.063564 0.999767 0.367066 0.041133
C12   C     C_R   0.048228 0.000073 0.723440 0.043197
C13   C     C_R   0.174615 0.500926 0.722939 0.071137
C14   C     C_R   0.803297 0.500408 0.368193 0.076827
C15   C     C_R   0.696702 0.000408 0.631807 0.076824
C16   C     C_R   0.325385 0.000927 0.277060 0.071137
C17   C     C_R   0.022137 0.551880 0.625068 0.158281
C18   C     C_R   0.928190 0.551493 0.535286 0.162764
C19   C     C_R   0.571810 0.051493 0.464716 0.162756
C20   C     C_R   0.477864 0.051880 0.374933 0.158274
C21   C     C_R   0.072263 0.502648 0.667743 0.035105
C22   C     C_R   0.882489 0.501981 0.485363 0.032127
C23   C     C_R   0.617510 0.001981 0.514638 0.032120
C24   C     C_R   0.427737 0.002648 0.332256 0.035096
C25   C     C_R   0.019508 0.453922 0.637922 -0.194135
C26   C     C_R   0.924393 0.453511 0.545981 -0.201001
C27   C     C_R   0.575605 0.953512 0.454018 -0.201010
C28   C     C_R   0.480491 0.953923 0.362076 -0.194112
C29   C     C_3   0.939098 0.602170 0.487493 -0.520475
C30   C     C_3   0.041859 0.602507 0.585035 -0.522716
C31   C     C_3   0.458142 0.102507 0.414967 -0.522713
C32   C     C_3   0.560902 0.102170 0.512510 -0.520468
C33   C     C_R   0.218172 0.711857 0.921255 -0.246141
C34   C     C_R   0.835724 0.690927 0.103415 -0.220304
C35   C     C_R   0.664281 0.190930 0.896588 -0.220383
C36   C     C_R   0.281827 0.211858 0.078745 -0.246154
C37   C     C_R   0.620520 0.237946 0.896518 -0.162754
C38   C     C_R   0.341909 0.243898 0.071364 -0.184371
C39   C     C_R   0.158089 0.743897 0.928635 -0.184357
C40   C     C_R   0.879483 0.737944 0.103484 -0.162750
C41   C     C_R   0.649125 0.261764 0.996950 0.074905
C42   C     C_R   0.303635 0.285282 0.993487 0.118337
C43   C     C_R   0.196363 0.785281 0.006514 0.118292
C44   C     C_R   0.850879 0.761761 0.003051 0.074833
C45   C     C_R   0.439279 0.650583 0.090401 -0.117842
C46   C     C_R   0.596957 0.625022 0.907857 -0.114720
C47   C     C_R   0.903040 0.125016 0.092143 -0.114605
C48   C     C_R   0.060721 0.150584 0.909600 -0.117803
C49   C     C_R   0.708051 0.232279 0.095436 -0.295646
C50   C     C_R   0.206038 0.295901 0.923382 -0.377427
C51   C     C_R   0.293960 0.795898 0.076624 -0.377373
C52   C     C_R   0.791959 0.732273 0.904567 -0.295468
C53   C     C_R   0.355959 0.762693 0.072082 0.549926
C54   C     C_R   0.749808 0.683901 0.904263 0.538437
C55   C     C_R   0.750207 0.183910 0.095740 0.538400
C56   C     C_R   0.144037 0.262696 0.927925 0.549943
C57   C     C_R   0.316266 0.721184 0.992865 -0.001723
C58   C     C_R   0.761716 0.667764 0.002788 -0.050965
C59   C     C_R   0.738291 0.167768 0.997216 -0.050823
C60   C     C_R   0.183733 0.221185 0.007138 -0.001695
C61   C     C_R   0.395534 0.549474 0.465678 -0.179110
C62   C     C_R   0.397537 0.549553 0.374488 -0.161573
C63   C     C_R   0.102453 0.049556 0.625503 -0.161609
C64   C     C_R   0.104459 0.049476 0.534316 -0.179034
C65   C     C_R   0.408890 0.500090 0.336189 0.141724
C66   C     C_R   0.403926 0.499890 0.517881 0.140270
C67   C     C_R   0.096079 0.999892 0.482121 0.140255
C68   C     C_R   0.091107 0.000092 0.663807 0.141727
C69   C     C_R   0.396414 0.450592 0.373467 -0.166337
C70   C     C_R   0.394554 0.450467 0.464821 -0.166435
C71   C     C_R   0.105456 0.950470 0.535185 -0.166431
C72   C     C_R   0.103591 0.950595 0.626536 -0.166338
C73   C     C_R   0.482311 0.454263 0.250625 -0.123202
C74   C     C_R   0.453062 0.454246 0.697122 -0.116934
C75   C     C_R   0.046943 0.954246 0.302881 -0.116891
C76   C     C_R   0.017688 0.954263 0.749374 -0.123206
C77   C     C_R   0.232665 0.546093 0.753271 -0.144399
C78   C     C_R   0.753675 0.545511 0.304698 -0.164128
C79   C     C_R   0.746324 0.045510 0.695303 -0.164119
C80   C     C_R   0.267335 0.046094 0.246728 -0.144395
C81   C     C_R   0.481846 0.545845 0.249928 -0.127725
C82   C     C_R   0.451077 0.545326 0.696061 -0.153773
C83   C     C_R   0.048932 0.045326 0.303943 -0.153870
C84   C     C_R   0.018153 0.045845 0.750070 -0.127739
C85   C     C_R   0.230436 0.454722 0.747638 -0.120282
C86   C     C_R   0.756523 0.454597 0.303987 -0.118077
C87   C     C_R   0.743476 0.954597 0.696013 -0.118076
C88   C     C_R   0.269564 0.954722 0.252361 -0.120280
C89   C     C_R   0.350780 0.650650 0.906736 -0.182572
C90   C     C_R   0.690193 0.623741 0.092804 -0.111899
C91   C     C_R   0.809807 0.123739 0.907197 -0.111963
C92   C     C_R   0.149220 0.150650 0.093265 -0.182599
C93   C     C_R   0.434757 0.350955 0.090481 -0.143305
C94   C     C_R   0.560222 0.349954 0.907311 -0.129093
C95   C     C_R   0.939778 0.849954 0.092688 -0.129072
C96   C     C_R   0.065242 0.850955 0.909519 -0.143297
C97   C     C_R   0.365325 0.323519 0.996702 0.088298
C98   C     C_R   0.624372 0.318619 0.998983 0.083094
C99   C     C_R   0.875630 0.818618 0.001017 0.083091
C100  C     C_R   0.134673 0.823518 0.003298 0.088307
H1    H     H_    0.298272 0.338710 0.820579 0.091811
H2    H     H_    0.693342 0.335958 0.176653 0.088730
H3    H     H_    0.806660 0.835957 0.823347 0.088731
H4    H     H_    0.201725 0.838710 0.179421 0.091809
H5    H     H_    0.929495 0.595062 0.407879 0.199865
H6    H     H_    0.060630 0.637966 0.640996 0.187908
H7    H     H_    0.439371 0.137966 0.359007 0.187905
H8    H     H_    0.570504 0.095061 0.592123 0.199866
H9    H     H_    0.898614 0.637238 0.487741 0.190412
H10   H     H_    0.089738 0.595456 0.559745 0.202084
H11   H     H_    0.410262 0.095456 0.440256 0.202085
H12   H     H_    0.601387 0.137238 0.512263 0.190409
H13   H     H_    0.188085 0.678303 0.862688 0.139090
H14   H     H_    0.853449 0.677024 0.182106 0.133471
H15   H     H_    0.646552 0.177023 0.817897 0.133479
H16   H     H_    0.311914 0.178303 0.137309 0.139092
H17   H     H_    0.571070 0.257725 0.817931 0.117070
H18   H     H_    0.417752 0.236881 0.126490 0.122609
H19   H     H_    0.082246 0.736881 0.873506 0.122616
H20   H     H_    0.928930 0.757725 0.182070 0.117069
H21   H     H_    0.725550 0.247568 0.173318 0.140043
H22   H     H_    0.179293 0.331133 0.869199 0.126240
H23   H     H_    0.320708 0.831129 0.130809 0.126280
H24   H     H_    0.774462 0.747561 0.826686 0.140045
H25   H     H_    0.396790 0.588503 0.500339 0.114556
H26   H     H_    0.400049 0.588589 0.342434 0.108300
H27   H     H_    0.099934 0.088592 0.657551 0.108300
H28   H     H_    0.103196 0.088506 0.499650 0.114587
H29   H     H_    0.397814 0.411633 0.340352 0.110929
H30   H     H_    0.394762 0.411420 0.498771 0.107242
H31   H     H_    0.105257 0.911423 0.501241 0.107246
H32   H     H_    0.102195 0.911636 0.659655 0.110932
H33   H     H_    0.477037 0.663599 0.175489 0.109175
H34   H     H_    0.567412 0.631479 0.822009 0.160226
H35   H     H_    0.932585 0.131469 0.177992 0.160271
H36   H     H_    0.022961 0.163601 0.824512 0.109202
H37   H     H_    0.473901 0.412064 0.263457 0.092194
H38   H     H_    0.437266 0.412127 0.670588 0.083441
H39   H     H_    0.062737 0.912127 0.329414 0.083436
H40   H     H_    0.026098 0.912065 0.736541 0.092196
H41   H     H_    0.214072 0.588196 0.750503 0.106230
H42   H     H_    0.759329 0.586737 0.333805 0.105067
H43   H     H_    0.740671 0.086737 0.666196 0.105067
H44   H     H_    0.285929 0.088196 0.249497 0.106229
H45   H     H_    0.472473 0.588151 0.261233 0.087553
H46   H     H_    0.432361 0.587092 0.667955 0.095303
H47   H     H_    0.067651 0.087092 0.332049 0.095351
H48   H     H_    0.027526 0.088152 0.738767 0.087548
H49   H     H_    0.207657 0.412724 0.733766 0.086877
H50   H     H_    0.767836 0.412650 0.331746 0.085716
H51   H     H_    0.732163 0.912650 0.668253 0.085720
H52   H     H_    0.292342 0.912725 0.266232 0.086877
H53   H     H_    0.307563 0.663807 0.821271 0.101927
H54   H     H_    0.748504 0.627724 0.178920 0.093016
H55   H     H_    0.751497 0.127724 0.821081 0.093029
H56   H     H_    0.192437 0.163807 0.178731 0.101931
H57   H     H_    0.472219 0.337412 0.175266 0.088844
H58   H     H_    0.514238 0.336907 0.822089 0.084647
H59   H     H_    0.985764 0.836906 0.177910 0.084644
H60   H     H_    0.027780 0.837412 0.824734 0.088844
H61   H     H_    0.053645 0.415233 0.675010 0.114789
H62   H     H_    0.888877 0.414511 0.515625 0.125302
H63   H     H_    0.611122 0.914511 0.484373 0.125312
H64   H     H_    0.446354 0.915234 0.324985 0.114816
N1    N     N_R   0.394180 0.396910 0.943210 -0.036156
N2    N     N_R   0.605820 0.396910 0.056790 -0.041106
N3    N     N_R   0.894180 0.896910 0.943210 -0.041105
N4    N     N_R   0.105820 0.896910 0.056790 -0.036156
N5    N     N_R   0.450950 0.603070 0.056740 -0.046673
N6    N     N_R   0.549050 0.603070 0.943260 -0.048001
N7    N     N_R   0.950950 0.103070 0.056740 -0.048024
N8    N     N_R   0.049050 0.103070 0.943260 -0.046680
N9    N     N_R   0.525650 0.471570 0.206150 -0.040929
N10   N     N_R   0.474350 0.471570 0.793850 -0.039237
N11   N     N_R   0.025650 0.971570 0.206150 -0.039230
N12   N     N_R   0.974350 0.971570 0.793850 -0.040930
N13   N     N_R   0.319480 0.528420 0.793810 -0.039385
N14   N     N_R   0.680520 0.528420 0.206190 -0.040875
N15   N     N_R   0.819480 0.028420 0.793810 -0.040870
N16   N     N_R   0.180520 0.028420 0.206190 -0.039383
N17   N     N_R   0.525640 0.528390 0.206120 -0.040472
N18   N     N_R   0.474360 0.528390 0.793880 -0.039647
N19   N     N_R   0.025640 0.028390 0.206120 -0.039638
N20   N     N_R   0.974360 0.028390 0.793880 -0.040472
N21   N     N_R   0.319490 0.471590 0.793840 -0.041000
N22   N     N_R   0.680510 0.471590 0.206160 -0.040835
N23   N     N_R   0.819490 0.971590 0.793840 -0.040833
N24   N     N_R   0.180510 0.971590 0.206160 -0.041001
N25   N     N_R   0.394130 0.603080 0.943110 -0.039386
N26   N     N_R   0.605870 0.603080 0.056890 -0.040252
N27   N     N_R   0.894130 0.103080 0.943110 -0.040252
N28   N     N_R   0.105870 0.103080 0.056890 -0.039386
N29   N     N_R   0.450990 0.396900 0.056840 -0.037619
N30   N     N_R   0.549010 0.396900 0.943160 -0.040577
N31   N     N_R   0.950990 0.896900 0.056840 -0.040578
N32   N     N_R   0.049010 0.896900 0.943160 -0.037621
Ni1   Ni    Ni4+2 0.434860 0.434850 0.869700 0.208950
Ni2   Ni    Ni4+2 0.565140 0.434850 0.130300 0.208214
Ni3   Ni    Ni4+2 0.934860 0.934850 0.869700 0.208220
Ni4   Ni    Ni4+2 0.065140 0.934850 0.130300 0.208956
Ni5   Ni    Ni4+2 0.565130 0.565140 0.130240 0.214004
Ni6   Ni    Ni4+2 0.434870 0.565140 0.869760 0.212490
Ni7   Ni    Ni4+2 0.065130 0.065140 0.130240 0.212495
Ni8   Ni    Ni4+2 0.934870 0.065140 0.869760 0.214014
O1    O     O_3   0.453319 0.772057 0.135381 -0.632610
C101  C     C_3   0.491243 0.782420 0.247397 0.256338
H65   H     H_    0.459644 0.755174 0.277750 0.071707
H66   H     H_    0.479798 0.825898 0.258234 0.101067
C102  C     C_3   0.597617 0.772171 0.318358 -0.900276
H67   H     H_    0.631843 0.799298 0.291645 0.264630
H68   H     H_    0.628430 0.780770 0.406450 0.205287
H69   H     H_    0.612167 0.728899 0.310482 0.245403
O2    O     O_3   0.689152 0.657416 0.804447 -0.653088
C103  C     C_3   0.730279 0.607089 0.807396 0.229414
H70   H     H_    0.733862 0.578644 0.867968 0.104246
H71   H     H_    0.802923 0.613149 0.829289 0.094920
C104  C     C_3   0.669485 0.580723 0.693527 -0.867621
H72   H     H_    0.666492 0.607525 0.631494 0.251564
H73   H     H_    0.700198 0.540648 0.695096 0.213122
H74   H     H_    0.596466 0.574164 0.668937 0.257169
O3    O     O_3   0.810869 0.157425 0.195551 -0.653108
C105  C     C_3   0.769636 0.107154 0.192678 0.229380
H75   H     H_    0.765820 0.078686 0.131990 0.104186
H76   H     H_    0.697081 0.113311 0.170991 0.094949
C106  C     C_3   0.830508 0.080754 0.306504 -0.867469
H77   H     H_    0.833908 0.107640 0.368712 0.251640
H78   H     H_    0.799574 0.040772 0.305036 0.213073
H79   H     H_    0.903398 0.073988 0.330786 0.257072
O4    O     O_3   0.046674 0.272053 0.864627 -0.632640
C107  C     C_3   0.008754 0.282490 0.752638 0.256311
H80   H     H_    0.040380 0.255306 0.722235 0.071749
H81   H     H_    0.020169 0.325989 0.741902 0.101134
C108  C     C_3   0.902388 0.272212 0.681641 -0.900353
H82   H     H_    0.868137 0.299268 0.708422 0.264660
H83   H     H_    0.871573 0.280884 0.593575 0.205291
H84   H     H_    0.887872 0.228916 0.689398 0.245387

loop_
_geom_bond_atom_site_label_1
_geom_bond_atom_site_label_2
_ccdc_geom_bond_type
C13   C21   S    
C54   O2    S    
C51   C53   A    
N20   Ni8   S    
C55   C59   A    
C51   H23   S    
C6    C58   S    
C19   C20   A    
C50   H22   S    
N5    N25   A    
N16   Ni7   S    
C47   N7    A    
C106  H79   S    
N2    Ni2   S    
C82   N18   A    
C3    N3    A    
C34   C58   A    
O2    C103  S    
N8    N28   A    
C104  H74   S    
C12   C68   S    
C33   C39   A    
C73   H37   S    
C30   H10   S    
C37   C41   A    
C34   C40   A    
C80   N16   A    
C29   H9    S    
C35   C37   A    
C74   N10   A    
C86   H50   S    
C54   C58   A    
C44   C99   S    
C95   C99   A    
N30   Ni1   S    
N15   N23   A    
C61   C62   A    
N24   Ni4   S    
N29   Ni2   S    
C2    H2    S    
C4    H4    S    
C65   C69   A    
C70   H30   S    
C102  H69   S    
N13   N21   A    
C12   C84   A    
C107  C108  S    
C35   C59   A    
C31   H7    S    
C41   C49   A    
N8    Ni8   S    
N16   N24   A    
C27   H63   S    
C48   N8    A    
C96   N32   A    
C61   C66   A    
C15   C79   A    
C20   C24   A    
C25   H61   S    
N10   N18   A    
C80   H44   S    
C17   C18   A    
C53   O1    S    
C35   H15   S    
C8    C92   A    
C23   C27   A    
C90   H54   S    
C29   C30   S    
C32   H12   S    
C108  H82   S    
C2    N2    A    
C67   C71   A    
C10   C74   A    
C37   H17   S    
C55   O3    S    
C63   H27   S    
C47   H35   S    
C33   H13   S    
C44   C52   A    
C15   C23   S    
N9    N17   A    
C16   C24   S    
C87   H51   S    
C30   H6    S    
N7    Ni7   S    
C17   C30   S    
C88   H52   S    
C29   H5    S    
C107  H80   S    
C88   N24   A    
C9    C73   A    
C11   C75   A    
N32   Ni3   S    
C19   C32   S    
C7    C59   S    
C82   H46   S    
C11   C67   S    
C102  H67   S    
C13   C77   A    
C10   C66   S    
C85   N21   A    
C93   H57   S    
C79   H43   S    
C78   N14   A    
N7    N27   A    
C64   C67   A    
N2    N30   A    
C84   N20   A    
C76   N12   A    
C43   C100  S    
C14   C86   A    
C94   N30   A    
C1    C97   A    
C62   H26   S    
C53   C57   A    
C101  H65   S    
C75   H39   S    
C39   C43   A    
C105  C106  S    
C11   C83   A    
C25   C26   A    
O1    C101  S    
C91   N27   A    
C26   H62   S    
C50   C56   A    
C4    N4    A    
N23   Ni3   S    
C16   C80   A    
N14   N22   A    
C84   H48   S    
C19   C23   A    
C77   H41   S    
C8    C48   A    
C91   H55   S    
O4    C107  S    
C102  H68   S    
N1    Ni1   S    
C46   H34   S    
O3    C105  S    
C77   N13   A    
C89   H53   S    
C31   C32   S    
C1    N1    A    
C68   C72   A    
C49   H21   S    
C9    C65   S    
C64   H28   S    
C106  H77   S    
C83   N19   A    
C92   H56   S    
C18   C29   S    
C107  H81   S    
C108  H83   S    
C46   N6    A    
C42   C50   A    
C83   H47   S    
C69   H29   S    
C96   H60   S    
C86   N22   A    
C1    H1    S    
C81   H45   S    
C12   C76   A    
C32   H8    S    
C95   H59   S    
C42   C97   S    
C34   H14   S    
N27   Ni8   S    
N1    N29   A    
C76   H40   S    
C13   C85   A    
C36   H16   S    
C93   C97   A    
C7    C91   A    
C28   H64   S    
N14   Ni5   S    
N11   N19   A    
N31   Ni4   S    
C90   N26   A    
C3    H3    S    
C103  H70   S    
N12   N20   A    
C75   N11   A    
C21   C25   A    
C63   C68   A    
C105  H76   S    
N10   Ni1   S    
C95   N31   A    
C6    C46   A    
C62   C65   A    
C40   H20   S    
N9    Ni2   S    
C18   C22   A    
N3    N31   A    
C48   H36   S    
N3    Ni3   S    
N17   Ni5   S    
C24   C28   A    
C36   C60   A    
C103  C104  S    
C45   N5    A    
C87   N23   A    
N18   Ni6   S    
N26   Ni5   S    
C38   C42   A    
C33   C57   A    
N25   Ni6   S    
C104  H73   S    
C81   N17   A    
C7    C47   A    
N6    N26   A    
C45   H33   S    
C4    C100  A    
C5    C57   S    
N19   Ni7   S    
C14   C22   S    
C78   H42   S    
C104  H72   S    
C103  H71   S    
N4    N32   A    
C71   C72   A    
C6    C90   A    
C89   N25   A    
C8    C60   S    
C72   H32   S    
N13   Ni6   S    
C74   H38   S    
C101  C102  S    
C43   C51   A    
C66   C70   A    
C5    C45   A    
C39   H19   S    
C96   C100  A    
C52   H24   S    
C36   C38   A    
C106  H78   S    
N28   Ni7   S    
C10   C82   A    
C56   O4    S    
C31   H11   S    
C79   N15   A    
C14   C78   A    
C49   C55   A    
C73   N9    A    
C69   C70   A    
N4    Ni4   S    
C108  H84   S    
C85   H49   S    
N11   Ni4   S    
N6    Ni6   S    
N5    Ni5   S    
C63   C64   A    
C38   H18   S    
C3    C99   A    
C40   C44   A    
C56   C60   A    
N15   Ni8   S    
C2    C98   A    
C71   H31   S    
C94   H58   S    
C22   C26   A    
C15   C87   A    
C93   N29   A    
C27   C28   A    
C16   C88   A    
C52   C54   A    
C94   C98   A    
C41   C98   S    
N22   Ni2   S    
C61   H25   S    
N12   Ni3   S    
N21   Ni1   S    
C101  H66   S    
C105  H75   S    
C5    C89   A    
C92   N28   A    
C9    C81   A    
C20   C31   S    
C17   C21   A    
