data_mof_unit_45808.cif
_audit_creation_date              2012-12-10T19:51:37-0500
_audit_creation_method            fapswitch 2.2
_symmetry_space_group_name_H-M    P1
_symmetry_Int_Tables_number       1
_space_group_crystal_system       triclinic
_cell_length_a                    14.355398
_cell_length_b                    13.60881
_cell_length_c                    15.025605
_cell_angle_alpha                 92.90383
_cell_angle_beta                  88.070776
_cell_angle_gamma                 83.675551
_cell_volume                      2911.51129512

loop_
_atom_site_label
_atom_site_type_symbol
_atom_type_description
_atom_site_fract_x
_atom_site_fract_y
_atom_site_fract_z
_atom_type_partial_charge
C1    C     C_R   0.502100 0.497967 0.328399 0.979228
C2    C     C_R   0.499202 0.493920 0.672182 0.919330
C3    C     C_R   0.479124 0.594881 0.102653 0.341941
C4    C     C_R   0.587049 0.499633 0.901675 0.313958
C5    C     C_R   0.510842 0.508166 0.049583 0.005575
C6    C     C_R   0.503763 0.506883 0.953488 -0.022458
C7    C     C_R   0.110861 0.417057 0.478261 -0.162550
C8    C     C_R   0.885520 0.551172 0.571427 -0.158147
C9    C     C_R   0.210626 0.417855 0.471375 -0.030752
C10   C     C_R   0.786532 0.556495 0.564513 0.002269
C11   C     C_R   0.195478 0.585173 0.526089 0.521238
C12   C     C_R   0.804554 0.455953 0.430929 0.500952
C13   C     C_R   0.097582 0.593113 0.515522 0.358217
C14   C     C_R   0.900089 0.471238 0.423475 0.391823
C15   C     C_R   0.052163 0.506861 0.498723 -0.121757
C16   C     C_R   0.945144 0.510388 0.498225 -0.123299
C17   C     C_R   0.516256 0.314693 0.500999 0.889821
C18   C     C_R   0.483523 0.685283 0.502324 0.941213
C19   C     C_1   0.471688 0.788088 0.517835 -0.123194
C20   C     C_1   0.527508 0.211204 0.501712 -0.149910
C21   C     C_2   0.472222 0.977746 0.546209 -0.050478
C22   C     C_2   0.535060 0.019207 0.495499 -0.046670
C23   C     C_1   0.534081 0.123480 0.500244 -0.060694
C24   C     C_1   0.467167 0.874840 0.532676 -0.039696
C25   C     C_R   0.546885 0.420275 0.088178 -0.031085
C26   C     C_R   0.416938 0.498779 0.914770 -0.099046
C27   C     C_R   0.553801 0.420432 0.180482 -0.161789
C28   C     C_R   0.413812 0.491127 0.821659 -0.144431
C29   C     C_R   0.507458 0.500934 0.233067 -0.201595
C30   C     C_R   0.498251 0.484938 0.769246 -0.186059
C31   C     C_R   0.471118 0.588476 0.195271 0.395544
C32   C     C_R   0.584434 0.471870 0.810967 0.313711
N1    N     N_R   0.252470 0.500000 0.499980 -0.186845
N2    N     N_R   0.747530 0.500000 0.500020 -0.198599
O1    O     O_R   0.579480 0.500010 0.369070 -0.617656
O2    O     O_R   0.420520 0.499990 0.630930 -0.647367
O3    O     O_R   0.420520 0.500010 0.369060 -0.600530
O4    O     O_R   0.579480 0.499990 0.630940 -0.555172
O5    O     O_R   0.590920 0.359650 0.500030 -0.632110
O6    O     O_R   0.409080 0.640350 0.499970 -0.586592
O7    O     O_R   0.431960 0.359650 0.500020 -0.613963
O8    O     O_R   0.568040 0.640350 0.499980 -0.618993
Zn1   Zn    Zn3+2 0.606140 0.500000 0.500010 0.977244
Zn2   Zn    Zn3+2 0.393860 0.500000 0.499990 0.969587
C33   C     C_R   0.598668 0.962486 0.426188 0.131194
C34   C     C_R   0.562333 0.912092 0.353451 -0.154512
C35   C     C_R   0.622898 0.858222 0.289293 -0.104840
C36   C     C_R   0.719952 0.855183 0.296673 -0.112354
C37   C     C_R   0.756588 0.906578 0.367878 -0.179113
C38   C     C_R   0.696255 0.960723 0.432077 -0.182233
H1    H     H_    0.487258 0.914509 0.346585 0.137338
H2    H     H_    0.594580 0.818884 0.233828 0.163113
H3    H     H_    0.766764 0.813369 0.247006 0.135120
H4    H     H_    0.831759 0.904677 0.373229 0.135365
H5    H     H_    0.725507 0.000285 0.486909 0.131071
C39   C     C_R   0.414131 0.031255 0.620919 0.150249
C40   C     C_R   0.456782 0.080194 0.690567 -0.142145
C41   C     C_R   0.402750 0.124085 0.764076 -0.171229
C42   C     C_R   0.305874 0.120159 0.768500 -0.134514
C43   C     C_R   0.262880 0.071714 0.699553 -0.145589
C44   C     C_R   0.316813 0.026531 0.626407 -0.151788
H6    H     H_    0.531986 0.082624 0.688791 0.127049
H7    H     H_    0.435883 0.161781 0.817385 0.141975
H8    H     H_    0.264136 0.154965 0.825214 0.127062
H9    H     H_    0.187833 0.068646 0.703042 0.134398
H10   H     H_    0.282798 0.987903 0.574100 0.143451
C45   C     C_R   0.566835 0.324534 0.034488 0.168631
C46   C     C_R   0.500470 0.256181 0.035874 -0.169074
C47   C     C_R   0.518257 0.164806 0.988195 -0.160314
C48   C     C_R   0.602978 0.140463 0.939482 -0.102353
C49   C     C_R   0.670671 0.206780 0.939852 -0.150697
C50   C     C_R   0.653271 0.297963 0.988027 -0.145009
H11   H     H_    0.435248 0.273538 0.074493 0.121272
H12   H     H_    0.466363 0.112848 0.989066 0.132597
H13   H     H_    0.616568 0.069809 0.902294 0.121573
H14   H     H_    0.737051 0.187128 0.903542 0.126968
H15   H     H_    0.707890 0.346531 0.990327 0.167752
C51   C     C_R   0.330917 0.492298 0.971071 0.156254
C52   C     C_R   0.300060 0.399653 0.984495 -0.158896
C53   C     C_R   0.219912 0.392718 0.038229 -0.160210
C54   C     C_R   0.169097 0.478395 0.077457 -0.114043
C55   C     C_R   0.197757 0.571154 0.062024 -0.134379
C56   C     C_R   0.278053 0.578256 0.008470 -0.135995
H16   H     H_    0.337773 0.333047 0.952869 0.125974
H17   H     H_    0.197002 0.320986 0.049148 0.127288
H18   H     H_    0.107023 0.472982 0.119048 0.136169
H19   H     H_    0.157574 0.637576 0.091313 0.134733
H20   H     H_    0.298503 0.650543 0.995656 0.160848
C57   C     C_R   0.611649 0.336703 0.218757 0.149855
C58   C     C_R   0.707822 0.318697 0.194643 -0.029289
C59   C     C_R   0.760898 0.232714 0.219311 -0.090296
C60   C     C_R   0.718102 0.163451 0.267069 -0.114364
C61   C     C_R   0.622610 0.180840 0.290906 -0.127668
C62   C     C_R   0.570006 0.268001 0.268509 -0.203515
H21   H     H_    0.741314 0.370857 0.155856 0.140436
H22   H     H_    0.834839 0.219339 0.200538 0.132568
H23   H     H_    0.758755 0.096134 0.284941 0.140824
H24   H     H_    0.588817 0.126078 0.325299 0.158718
H25   H     H_    0.496675 0.280733 0.287589 0.146923
C63   C     C_R   0.324152 0.476592 0.781150 0.201162
C64   C     C_R   0.254288 0.556192 0.776510 -0.155429
C65   C     C_R   0.170770 0.541353 0.735996 -0.128723
C66   C     C_R   0.156347 0.447070 0.701806 -0.134446
C67   C     C_R   0.225228 0.367402 0.707386 -0.149876
C68   C     C_R   0.309473 0.382220 0.746512 -0.108165
H26   H     H_    0.265411 0.629535 0.802397 0.128349
H27   H     H_    0.118474 0.603454 0.729097 0.182401
H28   H     H_    0.092810 0.435893 0.669117 0.140778
H29   H     H_    0.213591 0.294760 0.680538 0.133222
H30   H     H_    0.363900 0.321129 0.749117 0.128383
O9    O     O_3   0.432805 0.667613 0.251381 -0.774444
H31   H     H_    0.406561 0.722686 0.215915 0.374477
O10   O     O_3   0.662085 0.423667 0.763866 -0.778554
H32   H     H_    0.708746 0.397397 0.806300 0.327348
O11   O     O_3   0.454206 0.685285 0.066735 -0.813787
H33   H     H_    0.476272 0.683106 0.003503 0.340519
O12   O     O_3   0.669423 0.516328 0.942111 -0.803899
H34   H     H_    0.717042 0.527999 0.895757 0.326670
C69   C     C_R   0.068098 0.322494 0.463499 0.174116
C70   C     C_R   0.021001 0.282713 0.534431 -0.174531
C71   C     C_R   0.978676 0.195748 0.520703 -0.143789
C72   C     C_R   0.982695 0.147670 0.436088 -0.104643
C73   C     C_R   0.029099 0.186500 0.365032 -0.113497
C74   C     C_R   0.071529 0.273417 0.378472 -0.054374
H35   H     H_    0.016242 0.319026 0.600223 0.117179
H36   H     H_    0.942374 0.165841 0.575680 0.131697
H37   H     H_    0.949474 0.080609 0.425498 0.121910
H38   H     H_    0.031540 0.149699 0.299295 0.119598
H39   H     H_    0.104886 0.303721 0.322055 0.131475
C75   C     C_R   0.921697 0.582495 0.658601 0.164407
C76   C     C_R   0.928064 0.514489 0.726059 -0.214954
C77   C     C_R   0.944228 0.545541 0.813774 -0.147849
C78   C     C_R   0.952198 0.645228 0.835384 -0.125781
C79   C     C_R   0.943394 0.714036 0.769391 -0.160975
C80   C     C_R   0.927140 0.683169 0.681635 -0.078187
H40   H     H_    0.918081 0.437761 0.711057 0.137528
H41   H     H_    0.949406 0.492503 0.865162 0.144936
H42   H     H_    0.964223 0.669290 0.903377 0.136432
H43   H     H_    0.947265 0.791629 0.786580 0.136952
H44   H     H_    0.914040 0.738481 0.633005 0.153817
C81   C     C_R   0.266373 0.332767 0.423241 0.217899
C82   C     C_R   0.288391 0.338667 0.332037 -0.160995
C83   C     C_R   0.322897 0.253533 0.280124 -0.208356
C84   C     C_R   0.338913 0.162628 0.319370 -0.130054
C85   C     C_R   0.317983 0.156242 0.410190 -0.136345
C86   C     C_R   0.281049 0.240685 0.462033 -0.117005
H45   H     H_    0.273943 0.408069 0.300168 0.147644
H46   H     H_    0.337566 0.258161 0.209475 0.138886
H47   H     H_    0.366700 0.096980 0.279247 0.135136
H48   H     H_    0.328705 0.085397 0.439870 0.139260
H49   H     H_    0.261628 0.233927 0.531437 0.125090
C87   C     C_R   0.728748 0.638197 0.616676 0.209668
C88   C     C_R   0.711483 0.730653 0.579030 -0.150653
C89   C     C_R   0.669386 0.813094 0.630692 -0.154563
C90   C     C_R   0.644525 0.804378 0.720303 -0.124581
C91   C     C_R   0.665355 0.714120 0.759359 -0.182901
C92   C     C_R   0.709597 0.632476 0.708281 -0.092475
H50   H     H_    0.731859 0.739083 0.509988 0.145187
H51   H     H_    0.656784 0.884060 0.601654 0.145638
H52   H     H_    0.611640 0.868231 0.759996 0.132572
H53   H     H_    0.650111 0.708242 0.829802 0.150472
H54   H     H_    0.734020 0.566783 0.740914 0.175571
O13   O     O_3   0.232000 0.666026 0.563194 -0.714851
H55   H     H_    0.282510 0.639852 0.601666 0.347456
O14   O     O_3   0.769246 0.400991 0.363778 -0.729388
H56   H     H_    0.711060 0.378004 0.387509 0.366121
O15   O     O_3   0.049803 0.686956 0.521536 -0.744796
H57   H     H_    0.989901 0.685501 0.490951 0.321858
O16   O     O_3   0.946203 0.446727 0.341939 -0.743312
H58   H     H_    0.003666 0.480720 0.338768 0.321802

loop_
_geom_bond_atom_site_label_1
_geom_bond_atom_site_label_2
_ccdc_geom_bond_type
C68   H30   S    
O14   H56   S    
C27   C29   A    
C11   C13   A    
O16   H58   S    
O9    H31   S    
C25   C45   S    
C85   C86   A    
C40   C41   A    
C73   C74   A    
C33   C34   A    
C63   C68   A    
C61   C62   A    
C5    C6    S    
C62   H25   S    
C91   C92   A    
C45   C50   A    
C47   C48   A    
C18   O8    A    
C52   H16   S    
C13   O15   S    
C83   C84   A    
C88   H50   S    
C17   C20   S    
C39   C40   A    
C18   C19   S    
C17   O5    A    
C72   H37   S    
C18   O6    A    
C63   C64   A    
C66   C67   A    
C50   H15   S    
C10   C87   S    
C59   H22   S    
C87   C92   A    
C51   C56   A    
O13   H55   S    
C77   C78   A    
C27   C57   S    
C48   C49   A    
C32   O10   S    
O1    Zn1   S    
O6    Zn2   S    
C85   H48   S    
C59   C60   A    
C1    O3    A    
C28   C63   S    
C7    C15   A    
C56   H20   S    
C42   C43   A    
C8    C16   A    
C21   C22   D    
C9    N1    A    
C36   H3    S    
C14   O16   S    
C44   H10   S    
C11   O13   S    
C67   C68   A    
C60   H23   S    
C54   C55   A    
C22   C23   S    
C80   H44   S    
C15   C16   S    
C45   C46   A    
C64   C65   A    
C7    C69   S    
C40   H6    S    
C4    C6    A    
C76   H40   S    
C79   H43   S    
C9    C81   S    
C70   H35   S    
C46   C47   A    
O5    Zn1   S    
C41   C42   A    
C69   C74   A    
C34   H1    S    
C52   C53   A    
C71   H36   S    
C43   C44   A    
C35   H2    S    
C53   H17   S    
C43   H9    S    
C2    O4    A    
C35   C36   A    
C20   C23   T    
C11   N1    A    
C1    C29   S    
C55   H19   S    
C89   C90   A    
C54   H18   S    
C47   H12   S    
C10   N2    A    
C26   C51   S    
C3    C31   A    
C71   C72   A    
C4    C32   A    
C81   C86   A    
C5    C25   A    
C36   C37   A    
C75   C80   A    
C12   C14   A    
C91   H53   S    
C55   C56   A    
C13   C15   A    
C8    C75   S    
C78   C79   A    
O7    Zn2   S    
C14   C16   A    
C4    O12   S    
O2    Zn2   S    
O8    Zn1   S    
C12   N2    A    
C76   C77   A    
C12   O14   S    
C65   H27   S    
C49   H14   S    
O15   H57   S    
C89   H51   S    
C70   C71   A    
C1    O1    A    
O10   H32   S    
C2    O2    A    
C64   H26   S    
C7    C9    A    
C34   C35   A    
C84   H47   S    
C90   H52   S    
C39   C44   A    
N1    Zn2   S    
C82   H45   S    
N2    Zn1   S    
C41   H7    S    
C53   C54   A    
C3    C5    A    
C58   H21   S    
C57   C62   A    
C21   C39   S    
C69   C70   A    
C72   C73   A    
C79   C80   A    
C25   C27   A    
C26   C28   A    
C38   H5    S    
C2    C30   S    
C84   C85   A    
O3    Zn2   S    
C28   C30   A    
C75   C76   A    
C46   H11   S    
O4    Zn1   S    
C29   C31   A    
C3    O11   S    
O12   H34   S    
C30   C32   A    
C51   C52   A    
C58   C59   A    
C6    C26   A    
C33   C38   A    
C61   H24   S    
C60   C61   A    
C74   H39   S    
C19   C24   T    
C65   C66   A    
C17   O7    A    
C83   H46   S    
C86   H49   S    
C42   H8    S    
C78   H42   S    
C22   C33   S    
C49   C50   A    
C87   C88   A    
C48   H13   S    
C8    C10   A    
C37   C38   A    
C21   C24   S    
C73   H38   S    
C90   C91   A    
C82   C83   A    
C31   O9    S    
C67   H29   S    
C66   H28   S    
C77   H41   S    
O11   H33   S    
C57   C58   A    
C81   C82   A    
C92   H54   S    
C37   H4    S    
C88   C89   A    
