data_mof_unit_27977.cif
_audit_creation_date              2012-12-10T18:52:16-0500
_audit_creation_method            fapswitch 2.2
_symmetry_space_group_name_H-M    P1
_symmetry_Int_Tables_number       1
_space_group_crystal_system       triclinic
_cell_length_a                    15.743395
_cell_length_b                    10.70242
_cell_length_c                    9.903337
_cell_angle_alpha                 89.516076
_cell_angle_beta                  88.863713
_cell_angle_gamma                 90.919997
_cell_volume                      1668.02996769

loop_
_atom_site_label
_atom_site_type_symbol
_atom_type_description
_atom_site_fract_x
_atom_site_fract_y
_atom_site_fract_z
_atom_type_partial_charge
C1    C     C_R   0.499688 0.260081 0.500311 0.882760
C2    C     C_R   0.434963 0.445683 0.075901 -0.169338
C3    C     C_R   0.338085 0.499769 0.501159 0.910120
C4    C     C_R   0.661915 0.500231 0.498841 0.910132
C5    C     C_3   0.969561 0.386005 0.521217 0.198321
C6    C     C_3   0.030438 0.613995 0.478783 0.198321
C7    C     C_3   0.028208 0.424487 0.402086 -0.013566
C8    C     C_3   0.971792 0.575513 0.597914 -0.013565
C9    C     C_1   0.249334 0.498991 0.503606 -0.146315
C10   C     C_1   0.750666 0.501009 0.496394 -0.146309
C11   C     C_3   0.025212 0.457332 0.622801 -0.304712
C12   C     C_R   0.500312 0.739919 0.499689 0.882769
C13   C     C_3   0.974788 0.542668 0.377199 -0.304711
C14   C     C_3   0.083454 0.497556 0.501892 0.080998
C15   C     C_3   0.916546 0.502444 0.498108 0.080998
C16   C     C_1   0.174175 0.498237 0.503820 0.026636
C17   C     C_1   0.825825 0.501763 0.496180 0.026637
C18   C     C_R   0.480109 0.064440 0.381681 -0.187498
C19   C     C_R   0.519891 0.935560 0.618318 -0.187499
C20   C     C_2   0.057527 0.338700 0.292554 0.386649
C21   C     C_2   0.942473 0.661300 0.707447 0.386649
C22   C     C_3   0.991336 0.167202 0.581889 -0.752034
C23   C     C_R   0.480765 0.936482 0.381123 -0.152644
C24   C     C_3   0.008663 0.832798 0.418111 -0.752034
C25   C     C_2   0.637754 0.620600 0.128856 0.436142
C26   C     C_2   0.362248 0.379404 0.871137 0.436195
C27   C     C_R   0.519235 0.063518 0.618877 -0.152632
C28   C     C_R   0.500552 0.872470 0.499473 -0.016256
C29   C     C_R   0.499447 0.127530 0.500527 -0.016254
C30   C     C_R   0.565235 0.555994 0.067086 0.055560
C31   C     C_R   0.434765 0.444006 0.932913 0.055550
C32   C     C_R   0.565037 0.554316 0.924098 -0.169353
H1    H     H_    0.953220 0.577863 0.278047 0.159243
H2    H     H_    0.988944 0.707999 0.769652 0.054629
H3    H     H_    0.893113 0.235372 0.466210 0.215013
H4    H     H_    0.955983 0.078208 0.602115 0.239782
H5    H     H_    0.024270 0.194314 0.675573 0.252622
H6    H     H_    0.038960 0.151901 0.499725 0.240349
H7    H     H_    0.106887 0.764628 0.533790 0.215013
H8    H     H_    0.044017 0.921792 0.397885 0.239782
H9    H     H_    0.961040 0.848099 0.500275 0.240349
H10   H     H_    0.975730 0.805686 0.324427 0.252621
H11   H     H_    0.701589 0.604521 0.090106 0.036796
H12   H     H_    0.046780 0.422137 0.721953 0.159243
H13   H     H_    0.298409 0.395519 0.909849 0.036783
H14   H     H_    0.464051 0.113567 0.289756 0.166432
H15   H     H_    0.535948 0.886433 0.710244 0.166430
H16   H     H_    0.465119 0.888058 0.289000 0.173049
H17   H     H_    0.534881 0.111942 0.711000 0.173055
H18   H     H_    0.616445 0.598688 0.866311 0.154485
H19   H     H_    0.383554 0.401312 0.133687 0.154486
H20   H     H_    0.011056 0.292000 0.230347 0.054629
N1    N     N_R   0.499980 0.499970 0.857200 -0.089858
N2    N     N_R   0.500020 0.500030 0.142800 -0.089850
N3    N     N_2   0.932462 0.262630 0.542934 -0.300951
N4    N     N_2   0.067538 0.737369 0.457066 -0.300950
O1    O     O_R   0.499990 0.316750 0.614620 -0.569326
O2    O     O_2   0.866934 0.679265 0.727170 -0.566253
O3    O     O_2   0.627149 0.699542 0.215125 -0.542033
O4    O     O_2   0.372857 0.300428 0.784905 -0.542053
O5    O     O_R   0.500010 0.683250 0.385380 -0.569320
O6    O     O_R   0.500000 0.316780 0.385290 -0.638122
O7    O     O_R   0.500000 0.683220 0.614710 -0.638123
O8    O     O_R   0.376780 0.499970 0.614640 -0.599813
O9    O     O_R   0.623220 0.500030 0.385360 -0.599777
O10   O     O_R   0.376780 0.500000 0.385310 -0.616432
O11   O     O_R   0.623220 0.500000 0.614690 -0.616436
O12   O     O_2   0.133066 0.320734 0.272830 -0.566251
Zn1   Zn    Zn3+2 0.500000 0.499980 0.653120 0.995514
Zn2   Zn    Zn3+2 0.500000 0.500020 0.346880 0.995524

loop_
_geom_bond_atom_site_label_1
_geom_bond_atom_site_label_2
_ccdc_geom_bond_type
O5    Zn2   S    
C4    O11   A    
C25   O3    D    
C13   H1    S    
C22   N3    S    
C19   C28   A    
C1    O1    A    
C6    C14   S    
C22   H4    S    
C21   H2    S    
H7    N4    S    
N2    Zn2   S    
C7    C13   S    
N1    Zn1   S    
C1    O6    A    
C25   H11   S    
C1    C29   S    
C8    C21   S    
C21   O2    D    
C20   H20   S    
C18   C29   A    
O8    Zn1   S    
C31   N1    A    
C6    C13   S    
C30   C32   A    
C24   H9    S    
C30   N2    A    
C32   H18   S    
C24   H10   S    
O10   Zn2   S    
C26   O4    D    
C12   C28   S    
C8    C11   S    
C3    C9    S    
C18   H14   S    
C24   H8    S    
C9    C16   T    
C5    N3    S    
C5    C11   S    
C8    C15   S    
C19   H15   S    
C13   C15   S    
C3    O8    A    
C4    O9    A    
C11   C14   S    
C14   C16   S    
C5    C15   S    
C3    O10   A    
C24   N4    S    
C2    H19   S    
C10   C17   T    
H3    N3    S    
C18   C23   A    
C22   H6    S    
C27   H17   S    
C32   N1    A    
C11   H12   S    
C19   C27   A    
C27   C29   A    
O6    Zn2   S    
C15   C17   S    
C7    C20   S    
C2    N2    A    
C25   C30   S    
C5    C7    S    
C12   O7    A    
C6    C8    S    
C23   H16   S    
C12   O5    A    
C26   H13   S    
O1    Zn1   S    
O9    Zn2   S    
C23   C28   A    
C22   H5    S    
C26   C31   S    
C20   O12   D    
C7    C14   S    
O7    Zn1   S    
C4    C10   S    
C6    N4    S    
C2    C31   A    
O11   Zn1   S    
