data_mof_unit_31544.cif
_audit_creation_date              2012-12-10T16:46:49-0500
_audit_creation_method            fapswitch 2.2
_symmetry_space_group_name_H-M    P1
_symmetry_Int_Tables_number       1
_space_group_crystal_system       triclinic
_cell_length_a                    15.869159
_cell_length_b                    8.687744
_cell_length_c                    7.453909
_cell_angle_alpha                 102.99448
_cell_angle_beta                  94.142185
_cell_angle_gamma                 92.190743
_cell_volume                      997.147758733

loop_
_atom_site_label
_atom_site_type_symbol
_atom_type_description
_atom_site_fract_x
_atom_site_fract_y
_atom_site_fract_z
_atom_type_partial_charge
C1    C     C_R   0.497485 0.199741 0.453270 0.878972
C2    C     C_3   0.955935 0.509382 0.703977 -0.012089
C3    C     C_3   0.917342 0.515066 0.505629 0.264495
C4    C     C_3   0.953417 0.665433 0.447447 0.011561
C5    C     C_3   0.053003 0.667699 0.463500 0.023861
C6    C     C_1   0.824695 0.508057 0.496971 -0.105799
C7    C     C_1   0.175822 0.506134 0.509981 0.005167
C8    C     C_1   0.251143 0.502845 0.507816 -0.157423
C9    C     C_2   0.496279 0.031830 0.427017 -0.369026
C10   C     C_2   0.503718 0.968167 0.572983 -0.368362
C11   C     C_R   0.340400 0.499998 0.502483 0.819387
C12   C     C_R   0.502514 0.800258 0.546730 0.881279
C13   C     C_R   0.659609 0.500362 0.497630 0.823218
C14   C     C_3   0.053474 0.486216 0.698373 0.029231
C15   C     C_3   0.041769 0.372227 0.358088 -0.551543
C16   C     C_3   0.944480 0.367456 0.365612 -0.508284
C17   C     C_1   0.749047 0.503437 0.494072 -0.186601
C18   C     C_3   0.083750 0.511157 0.511123 0.251201
Cu1   Cu    Cu3+1 0.509300 0.517380 0.684380 0.956554
Cu2   Cu    Cu3+1 0.490700 0.482620 0.315620 0.956783
H1    H     H_    0.931941 0.653579 0.298910 0.089921
H2    H     H_    0.510731 0.039754 0.713651 0.179900
H3    H     H_    0.434939 0.376726 0.948651 0.228111
H4    H     H_    0.057879 0.385903 0.219437 0.183874
H5    H     H_    0.065835 0.257289 0.375540 0.188695
H6    H     H_    0.913858 0.361976 0.224920 0.190228
N1    N     N_2   0.476670 0.456430 0.038530 -0.213006
N2    N     N_2   0.523330 0.543570 0.961470 -0.215599
O1    O     O_R   0.506050 0.286130 0.619770 -0.585237
O2    O     O_R   0.490330 0.256780 0.308370 -0.586274
O3    O     O_R   0.387300 0.514690 0.655770 -0.576412
O4    O     O_R   0.371580 0.485340 0.344370 -0.574882
O5    O     O_R   0.509670 0.743220 0.691630 -0.585819
O6    O     O_R   0.493950 0.713870 0.380230 -0.583964
O7    O     O_R   0.628420 0.514660 0.655630 -0.578199
O8    O     O_R   0.612700 0.485310 0.344230 -0.584724
H7    H     H_    0.926364 0.403832 0.742234 0.098503
N3    N     N_3   0.106404 0.577146 0.860669 -0.573880
H8    H     H_    0.093267 0.696110 0.892149 0.256972
H9    H     H_    0.093541 0.531961 0.975133 0.193343
N4    N     N_3   0.937349 0.650209 0.842986 -0.563222
H10   H     H_    0.871921 0.661170 0.838564 0.234465
H11   H     H_    0.953779 0.630108 0.973784 0.187999
H12   H     H_    0.489265 0.960242 0.286349 0.180790
H13   H     H_    0.565060 0.623277 0.051348 0.224374
H14   H     H_    0.062126 0.359370 0.698801 0.114970
H15   H     H_    0.923219 0.257538 0.406541 0.185964
N5    N     N_3   0.094804 0.808702 0.590783 -0.576685
H16   H     H_    0.061387 0.844731 0.706968 0.266755
H17   H     H_    0.095454 0.902190 0.523520 0.201870
H18   H     H_    0.073261 0.668817 0.323426 0.101979
N6    N     N_3   0.920721 0.812525 0.550895 -0.570909
H19   H     H_    0.855007 0.808199 0.524306 0.218793
H20   H     H_    0.942855 0.905703 0.495998 0.198722

loop_
_geom_bond_atom_site_label_1
_geom_bond_atom_site_label_2
_ccdc_geom_bond_type
C15   C18   S    
C4    H1    S    
Cu2   N1    S    
H3    N1    S    
C14   N3    S    
N4    H10   S    
C14   C18   S    
Cu1   Cu2   S    
C13   C17   S    
C3    C6    S    
Cu1   O3    S    
C7    C18   S    
N5    H17   S    
C2    C3    S    
C11   O3    A    
C7    C8    T    
C14   H14   S    
Cu1   O7    S    
C10   H2    S    
N3    H9    S    
Cu1   N2    S    
N4    H11   S    
C2    H7    S    
C10   C12   S    
C4    N6    S    
C8    C11   S    
C16   H15   S    
C1    O1    A    
N5    H16   S    
N6    H20   S    
C11   O4    A    
C13   O7    A    
Cu2   O4    S    
N3    H8    S    
C2    C14   S    
C5    N5    S    
N2    H13   S    
C15   H5    S    
C15   C16   S    
C2    N4    S    
C12   O6    A    
Cu2   O6    S    
Cu1   O1    S    
C1    C9    S    
N6    H19   S    
C13   O8    A    
C9    C10   D    
N1    N2    D    
C6    C17   T    
C1    O2    A    
C9    H12   S    
Cu2   O2    S    
C5    C18   S    
C12   O5    A    
C15   H4    S    
C5    H18   S    
C3    C16   S    
C3    C4    S    
Cu1   O5    S    
C4    C5    S    
C16   H6    S    
Cu2   O8    S    
