data_mof_unit_65298.cif
_audit_creation_date              2012-12-10T16:43:11-0500
_audit_creation_method            fapswitch 2.2
_symmetry_space_group_name_H-M    P1
_symmetry_Int_Tables_number       1
_space_group_crystal_system       triclinic
_cell_length_a                    18.456642
_cell_length_b                    18.567497
_cell_length_c                    18.520756
_cell_angle_alpha                 119.969927
_cell_angle_beta                  90.399796
_cell_angle_gamma                 119.907704
_cell_volume                      4480.43787094

loop_
_atom_site_label
_atom_site_type_symbol
_atom_type_description
_atom_site_fract_x
_atom_site_fract_y
_atom_site_fract_z
_atom_type_partial_charge
C1    C     C_R   0.361544 0.000106 0.138605 0.533563
C2    C     C_2   0.817310 0.011570 0.704138 0.408356
C3    C     C_2   0.728941 0.949851 0.784032 0.420397
C4    C     C_R   0.637485 0.999011 0.860645 0.551292
C5    C     C_2   0.682442 0.989750 0.795770 0.404653
C6    C     C_2   0.280516 0.445606 0.728318 0.393234
C7    C     C_2   0.192062 0.386257 0.707449 0.350374
C8    C     C_2   0.331536 0.556153 0.795098 0.428314
C9    C     C_2   0.307236 0.613156 0.793579 -0.001057
C10   C     C_2   0.280415 0.066047 0.334527 -0.038541
C11   C     C_2   0.193956 0.990226 0.307258 0.450323
C12   C     C_R   0.162210 0.836124 0.562450 0.329379
C13   C     C_2   0.334638 0.048059 0.280162 -0.031668
C14   C     C_2   0.306880 0.010355 0.193776 0.443158
C15   C     C_2   0.752429 0.922747 0.224044 -0.011043
C16   C     C_R   0.639738 0.276825 0.138571 0.567768
C17   C     C_2   0.816231 0.007661 0.303197 -0.006245
C18   C     C_2   0.710282 0.930415 0.164379 0.355175
C19   C     C_2   0.676098 0.984300 0.194998 0.381061
C20   C     C_2   0.788310 0.554819 0.223148 0.427236
C21   C     C_2   0.792144 0.613776 0.306489 -0.009597
C22   C     C_2   0.721024 0.444325 0.165403 0.397017
C23   C     C_R   0.199939 0.913259 0.655280 -0.001006
C24   C     C_2   0.705671 0.386471 0.194585 0.348125
C25   C     C_R   0.138554 0.276909 0.640309 0.563807
C26   C     C_R   0.860067 0.723135 0.361421 0.550713
C27   C     C_R   0.862439 0.000948 0.639382 0.551506
C28   C     C_R   0.361433 0.722942 0.860231 0.533604
C29   C     C_R   0.138660 0.000072 0.361710 0.541757
C30   C     C_R   0.860861 0.000024 0.360149 0.483497
C31   C     C_R   0.140502 0.001438 0.640604 0.585284
C32   C     C_R   0.637122 0.997850 0.139641 0.570859
C33   C     C_R   0.358814 0.995381 0.856309 0.497248
C34   C     C_R   0.239691 0.903153 0.712237 -0.104622
C35   C     C_R   0.218345 0.804193 0.677273 -0.033489
C36   C     C_R   0.182179 0.729582 0.585533 0.328761
C37   C     C_R   0.157335 0.747110 0.528133 0.024023
C38   C     C_1   0.362623 0.172531 0.922890 0.271218
C39   C     C_1   0.235879 0.571483 0.719688 0.222749
C40   C     C_1   0.323492 0.167055 0.416582 0.208425
C41   C     C_1   0.417046 0.071630 0.323041 0.220226
C42   C     C_1   0.720809 0.820487 0.194985 0.321362
C43   C     C_1   0.205050 0.765659 0.730340 0.327784
C44   C     C_1   0.853006 0.110345 0.329355 0.284206
C45   C     C_R   0.298884 0.992325 0.800028 0.022345
C46   C     C_1   0.724144 0.574661 0.341870 0.226232
C47   C     C_1   0.120044 0.669827 0.433746 0.388485
C48   C     C_1   0.252484 0.175155 0.817474 0.242023
C49   C     C_R   0.304925 0.082805 0.833104 -0.029126
C50   C     C_R   0.251969 0.085003 0.780777 -0.061228
C51   C     C_R   0.198878 0.000023 0.692597 0.040538
C52   C     C_2   0.772164 0.937894 0.716879 0.411566
F1    F     F_    0.669410 0.015459 0.742193 -0.567892
F2    F     F_    0.677429 0.402279 0.080654 -0.545026
F3    F     F_    0.756121 0.428147 0.276517 -0.618193
F4    F     F_    0.165543 0.636802 0.552436 -0.579247
F5    F     F_    0.133742 0.848341 0.504136 -0.617761
F6    F     F_    0.768162 0.850761 0.670182 -0.557348
F7    F     F_    0.828931 0.102909 0.756683 -0.554928
F8    F     F_    0.734384 0.914866 0.831803 -0.539339
F9    F     F_    0.325777 0.405382 0.690681 -0.551108
F10   F     F_    0.149323 0.426459 0.752995 -0.607245
F11   F     F_    0.406121 0.600307 0.859127 -0.520279
F12   F     F_    0.156836 0.896645 0.229712 -0.521894
F13   F     F_    0.228868 0.989466 0.156777 -0.543241
F14   F     F_    0.707093 0.882056 0.078579 -0.547100
F15   F     F_    0.672246 0.023271 0.278636 -0.614384
F16   F     F_    0.847221 0.596818 0.188833 -0.511107
N1    N     N_1   0.408604 0.243950 0.994379 -0.194493
N2    N     N_1   0.252860 0.246932 0.846618 -0.191691
N3    N     N_1   0.179081 0.537625 0.660300 -0.126974
N4    N     N_1   0.357972 0.247662 0.481943 -0.135040
N5    N     N_1   0.482679 0.090416 0.357373 -0.143876
N6    N     N_1   0.695514 0.738875 0.171757 -0.166073
N7    N     N_1   0.190983 0.732714 0.771607 -0.157059
N8    N     N_1   0.882492 0.192197 0.350293 -0.163760
N9    N     N_1   0.669977 0.543753 0.370187 -0.157660
N10   N     N_1   0.090085 0.607833 0.358019 -0.148679
O1    O     O_3   0.500000 0.000000 0.000000 -0.525071
O2    O     O_R   0.054120 0.939900 0.325040 -0.462325
O3    O     O_R   0.884120 0.060070 0.444330 -0.512489
O4    O     O_R   0.325020 0.939940 0.054210 -0.471781
O5    O     O_R   0.175860 0.060090 0.615830 -0.499483
O6    O     O_R   0.884120 0.939900 0.324160 -0.544197
O7    O     O_R   0.055710 0.939940 0.615850 -0.497098
O8    O     O_R   0.885720 0.939940 0.614980 -0.512345
O9    O     O_R   0.174930 0.060060 0.445830 -0.559464
O10   O     O_R   0.054120 0.229160 0.614300 -0.485028
O11   O     O_R   0.885050 0.770830 0.325070 -0.464281
O12   O     O_R   0.614240 0.229150 0.054160 -0.490548
O13   O     O_R   0.614240 0.060060 0.885070 -0.486463
O14   O     O_R   0.614900 0.229170 0.174980 -0.494555
O15   O     O_R   0.445840 0.770840 0.885740 -0.465934
O16   O     O_R   0.615830 0.060100 0.175880 -0.491856
O17   O     O_R   0.324090 0.939910 0.884220 -0.541521
O18   O     O_R   0.615830 0.939930 0.055710 -0.475322
O19   O     O_R   0.444240 0.060060 0.884190 -0.507012
O20   O     O_R   0.325020 0.770840 0.885120 -0.525732
O21   O     O_R   0.445840 0.060100 0.175010 -0.571671
O22   O     O_R   0.614900 0.939900 0.885710 -0.497736
O23   O     O_3   0.999960 0.000000 0.500040 -0.517981
O24   O     O_R   0.174930 0.229160 0.614920 -0.505415
O25   O     O_R   0.885720 0.770850 0.445880 -0.508871
O26   O     O_R   0.885050 0.060100 0.614330 -0.484082
Zn1   Zn    Zn3+2 0.542440 0.085830 0.956610 1.048961
Zn2   Zn    Zn3+2 0.543390 0.085850 0.129220 1.030981
Zn3   Zn    Zn3+2 0.543390 0.914160 0.957530 1.085101
Zn4   Zn    Zn3+2 0.370780 0.914160 0.956640 1.016968
Zn5   Zn    Zn3+2 0.957510 0.914170 0.543430 1.057390
Zn6   Zn    Zn3+2 0.956570 0.085840 0.542520 1.042961
Zn7   Zn    Zn3+2 0.956570 0.914150 0.370820 1.068431
Zn8   Zn    Zn3+2 0.129180 0.085840 0.543400 1.048842

loop_
_geom_bond_atom_site_label_1
_geom_bond_atom_site_label_2
_ccdc_geom_bond_type
C15   C18   S    
C32   O16   A    
C21   C26   S    
C16   O12   A    
C31   O7    A    
C33   C45   S    
O13   Zn1   S    
O24   Zn8   S    
C35   C36   A    
C1    O21   A    
C13   C41   S    
C31   O5    A    
C22   F2    S    
C38   C49   S    
C24   F3    S    
C12   C23   A    
C6    F9    S    
C5    F1    S    
C36   C37   A    
C18   C19   D    
O23   Zn8   S    
C25   O24   A    
O23   Zn5   S    
C27   O26   A    
C9    C39   S    
O20   Zn4   S    
O1    Zn1   S    
C10   C40   S    
C34   C35   A    
C12   C37   A    
C44   N8    T    
C8    C9    D    
C19   F15   S    
C2    C27   S    
O4    Zn4   S    
C37   C47   S    
C35   C43   S    
C4    O13   A    
O10   Zn6   S    
C3    F8    S    
C48   C50   S    
C38   N1    T    
C16   C24   S    
C13   C14   D    
C17   C30   S    
C19   C32   S    
C33   O17   A    
C43   N7    T    
C42   N6    T    
O6    Zn7   S    
O8    Zn5   S    
O12   Zn1   S    
C11   F12   S    
O17   Zn4   S    
C48   N2    T    
C2    F7    S    
C6    C8    S    
O9    Zn8   S    
O23   Zn6   S    
C25   O10   A    
O1    Zn2   S    
C28   O15   A    
C26   O11   A    
C27   O8    A    
C7    F10   S    
C36   F4    S    
C26   O25   A    
C23   C51   A    
C45   C49   A    
C23   C34   A    
C50   C51   A    
O1    Zn3   S    
C34   C45   A    
C20   C21   D    
C52   F6    S    
C12   F5    S    
O14   Zn2   S    
C32   O18   A    
O18   Zn3   S    
C20   C22   S    
C16   O14   A    
C4    O22   A    
C22   C24   D    
C18   F14   S    
C21   C46   S    
C28   O20   A    
C15   C17   D    
O21   Zn2   S    
O16   Zn2   S    
O22   Zn3   S    
C40   N4    T    
C20   F16   S    
C15   C42   S    
C31   C51   S    
C4    C5    S    
C3    C5    D    
C10   C13   S    
C46   N9    T    
C3    C52   S    
C6    C7    D    
O23   Zn7   S    
O11   Zn7   S    
O7    Zn5   S    
C7    C25   S    
C2    C52   D    
O25   Zn5   S    
C30   O3    A    
C1    O4    A    
C17   C44   S    
O19   Zn1   S    
O15   Zn3   S    
O26   Zn6   S    
C29   O2    A    
O2    Zn7   S    
C14   F13   S    
O1    Zn4   S    
C33   O19   A    
C30   O6    A    
C29   O9    A    
C10   C11   D    
C8    F11   S    
C41   N5    T    
O3    Zn6   S    
C11   C29   S    
C49   C50   A    
C39   N3    T    
O5    Zn8   S    
C1    C14   S    
C47   N10   T    
C9    C28   S    
