data_mof_unit_64724.cif
_audit_creation_date              2012-12-10T19:05:36-0500
_audit_creation_method            fapswitch 2.2
_symmetry_space_group_name_H-M    P1
_symmetry_Int_Tables_number       1
_space_group_crystal_system       triclinic
_cell_length_a                    10.532053
_cell_length_b                    13.075023
_cell_length_c                    13.62025
_cell_angle_alpha                 85.615068
_cell_angle_beta                  90.227559
_cell_angle_gamma                 93.261918
_cell_volume                      1867.08145317

loop_
_atom_site_label
_atom_site_type_symbol
_atom_type_description
_atom_site_fract_x
_atom_site_fract_y
_atom_site_fract_z
_atom_type_partial_charge
C1    C     C_R   0.498478 0.481154 0.685154 0.896626
C2    C     C_3   0.046175 0.563405 0.423751 -0.227358
C3    C     C_3   0.044017 0.532293 0.584208 0.039250
C4    C     C_3   0.955983 0.467707 0.415792 0.039250
C5    C     C_3   0.122459 0.499581 0.499669 -0.033983
C6    C     C_3   0.877541 0.500419 0.500331 -0.033983
C7    C     C_3   0.034091 0.403178 0.490319 -0.180239
C8    C     C_3   0.965909 0.596822 0.509681 -0.180239
C9    C     C_1   0.502980 0.533866 0.211622 -0.168423
C10   C     C_1   0.497020 0.466134 0.788378 -0.168423
C11   C     C_2   0.504079 0.544556 0.020358 -0.151257
C12   C     C_R   0.501522 0.518846 0.314846 0.896627
C13   C     C_2   0.495921 0.455443 0.979642 -0.151257
C14   C     C_1   0.496141 0.457339 0.875852 0.017101
C15   C     C_1   0.503859 0.542661 0.124148 0.017101
C16   C     C_1   0.096586 0.567393 0.676574 0.150820
C17   C     C_1   0.903413 0.432607 0.323426 0.150820
C18   C     C_2   0.463964 0.033097 0.473142 -0.238102
C19   C     C_2   0.536036 0.966903 0.526858 -0.238102
C20   C     C_1   0.525956 0.854730 0.519429 0.140266
C21   C     C_1   0.474044 0.145269 0.480571 0.140266
C22   C     C_R   0.742926 0.499972 0.500365 0.877453
C23   C     C_R   0.257074 0.500028 0.499635 0.877453
C24   C     C_3   0.953825 0.436595 0.576249 -0.227358
H1    H     H_    0.912129 0.385973 0.638458 0.149582
H2    H     H_    0.087871 0.614027 0.361542 0.149581
H3    H     H_    0.065204 0.324656 0.481546 0.158804
H4    H     H_    0.934796 0.675344 0.518454 0.158804
H5    H     H_    0.489218 0.382254 0.023474 0.162735
H6    H     H_    0.510782 0.617746 0.976526 0.162735
H7    H     H_    0.605113 0.996922 0.578257 0.165026
H8    H     H_    0.394887 0.003078 0.421743 0.165026
N1    N     N_1   0.479750 0.234530 0.484780 -0.093149
N2    N     N_1   0.520250 0.765470 0.515220 -0.093149
N3    N     N_1   0.138239 0.595008 0.749356 -0.196982
N4    N     N_1   0.861761 0.404992 0.250644 -0.196982
O1    O     O_R   0.492590 0.402510 0.634760 -0.610856
O2    O     O_R   0.507410 0.597490 0.365240 -0.610856
O3    O     O_R   0.505590 0.572960 0.644530 -0.600829
O4    O     O_R   0.494410 0.427040 0.355470 -0.600829
O5    O     O_R   0.679550 0.414790 0.495140 -0.612721
O6    O     O_R   0.320450 0.585210 0.504860 -0.612720
O7    O     O_R   0.692550 0.585240 0.504910 -0.622694
O8    O     O_R   0.307450 0.414760 0.495090 -0.622694
Zn1   Zn    Zn3+2 0.491320 0.386190 0.493470 0.978930
Zn2   Zn    Zn3+2 0.508680 0.613810 0.506530 0.978930

loop_
_geom_bond_atom_site_label_1
_geom_bond_atom_site_label_2
_ccdc_geom_bond_type
C12   O4    A    
C2    C4    S    
N2    Zn2   S    
C17   N4    T    
C18   C21   S    
N1    Zn1   S    
C7    H3    S    
C19   C20   S    
C5    C23   S    
C1    O1    A    
C6    C24   S    
C7    C24   S    
C9    C15   T    
C19   H7    S    
C2    H2    S    
C13   C14   S    
C24   H1    S    
C11   C13   D    
C3    C24   S    
C23   O6    A    
C4    C7    S    
C4    C17   S    
C13   H5    S    
O7    Zn2   S    
C3    C8    S    
O3    Zn2   S    
C16   N3    T    
C12   O2    A    
O4    Zn1   S    
C8    H4    S    
C9    C12   S    
O2    Zn2   S    
C22   O5    A    
C18   H8    S    
C1    O3    A    
O1    Zn1   S    
C20   N2    T    
C2    C5    S    
C21   N1    T    
O8    Zn1   S    
C4    C6    S    
C18   C19   D    
O6    Zn2   S    
C5    C7    S    
O5    Zn1   S    
C6    C8    S    
C11   C15   S    
C23   O8    A    
C3    C16   S    
C2    C8    S    
C1    C10   S    
C22   O7    A    
C11   H6    S    
C10   C14   T    
C3    C5    S    
C6    C22   S    
