data_mof_unit_9311.cif
_audit_creation_date              2012-12-10T20:45:35-0500
_audit_creation_method            fapswitch 2.2
_symmetry_space_group_name_H-M    P1
_symmetry_Int_Tables_number       1
_space_group_crystal_system       triclinic
_cell_length_a                    10.636674
_cell_length_b                    10.655047
_cell_length_c                    9.855917
_cell_angle_alpha                 89.215504
_cell_angle_beta                  90.167129
_cell_angle_gamma                 89.91998
_cell_volume                      1116.90246655

loop_
_atom_site_label
_atom_site_type_symbol
_atom_type_description
_atom_site_fract_x
_atom_site_fract_y
_atom_site_fract_z
_atom_type_partial_charge
C1    C     C_R   0.505707 0.259957 0.500647 0.922374
C2    C     C_R   0.237835 0.922148 0.235101 -0.157929
C3    C     C_R   0.932513 0.601534 0.430473 0.204684
C4    C     C_R   0.872235 0.503567 0.501730 -0.144235
C5    C     C_R   0.939177 0.411047 0.575116 -0.033077
C6    C     C_R   0.068024 0.414641 0.572138 -0.196678
C7    C     C_R   0.128375 0.508967 0.498978 -0.118137
C8    C     C_R   0.062932 0.604471 0.428791 -0.038055
C9    C     C_R   0.838089 0.331228 0.787978 -0.144404
C10   C     C_R   0.793838 0.232132 0.869008 -0.181004
C11   C     C_R   0.792462 0.109953 0.818889 0.327504
C12   C     C_R   0.260574 0.505392 0.499577 0.917109
C13   C     C_R   0.832320 0.087477 0.686178 -0.156917
C14   C     C_R   0.875142 0.186715 0.604319 -0.188778
C15   C     C_R   0.879006 0.309077 0.655093 0.104336
C16   C     C_R   0.527603 0.061700 0.623550 0.150411
C17   C     C_R   0.528715 0.128717 0.501551 -0.089536
C18   C     C_R   0.552875 0.066552 0.379533 -0.197349
C19   C     C_R   0.550492 0.936798 0.378388 -0.148592
C20   C     C_R   0.524711 0.871336 0.499344 -0.101580
C21   C     C_R   0.525319 0.933868 0.622300 0.163011
C22   C     C_3   0.435392 0.925580 0.738312 -0.456800
C23   C     C_R   0.503614 0.740114 0.499283 0.902222
C24   C     C_3   0.438769 0.067532 0.740359 -0.462419
C25   C     C_R   0.459789 0.396885 0.072868 0.200909
C26   C     C_R   0.551782 0.596245 0.070737 -0.102024
C27   C     C_R   0.552528 0.595847 0.926739 -0.140574
C28   C     C_R   0.456801 0.398277 0.930246 0.216678
C29   C     C_3   0.326094 0.346946 0.929309 -0.518514
C30   C     C_3   0.333291 0.338367 0.082903 -0.469021
C31   C     C_R   0.739753 0.499496 0.500413 0.931895
C32   C     C_R   0.196615 0.928988 0.369146 0.330193
C33   C     C_R   0.145267 0.823185 0.433406 -0.231015
C34   C     C_R   0.128806 0.711372 0.361686 0.084500
C35   C     C_R   0.164311 0.706530 0.223892 0.214565
C36   C     C_R   0.222486 0.811427 0.162855 -0.206370
H1    H     H_    0.278711 0.003651 0.185613 0.160060
H2    H     H_    0.831302 0.993087 0.646897 0.184572
H3    H     H_    0.907828 0.167923 0.502623 0.196778
H4    H     H_    0.563408 0.117112 0.284128 0.180649
H5    H     H_    0.559690 0.889155 0.282513 0.195205
H6    H     H_    0.342238 0.887272 0.708415 0.209951
H7    H     H_    0.478101 0.881159 0.830084 0.224379
H8    H     H_    0.347358 0.111259 0.712487 0.232820
H9    H     H_    0.484644 0.105054 0.832771 0.218930
H10   H     H_    0.591463 0.675028 0.123956 0.189945
H11   H     H_    0.593530 0.673940 0.871497 0.181357
H12   H     H_    0.255853 0.416690 0.891692 0.217839
H13   H     H_    0.319104 0.253838 0.882019 0.204467
H14   H     H_    0.263744 0.397462 0.135484 0.248240
H15   H     H_    0.338952 0.240204 0.122202 0.207330
H16   H     H_    0.113505 0.829414 0.537443 0.170230
H17   H     H_    0.252164 0.808952 0.057906 0.144741
H18   H     H_    0.121868 0.343225 0.626560 0.183608
H19   H     H_    0.842657 0.424742 0.829469 0.156573
H20   H     H_    0.763173 0.249971 0.971603 0.160204
N1    N     N_R   0.499160 0.499140 0.142800 -0.112138
N2    N     N_R   0.499160 0.499180 0.857150 -0.112789
O1    O     O_R   0.500020 0.316790 0.614690 -0.617617
O2    O     O_R   0.500000 0.316760 0.385350 -0.622903
O3    O     O_R   0.316770 0.500030 0.614670 -0.627624
O4    O     O_R   0.316750 0.499990 0.385330 -0.600288
O5    O     O_R   0.500000 0.683240 0.614650 -0.627775
O6    O     O_R   0.499980 0.683210 0.385310 -0.617790
O7    O     O_R   0.683250 0.500010 0.614670 -0.622839
O8    O     O_R   0.683230 0.499970 0.385330 -0.590658
Zn1   Zn    Zn3+2 0.500010 0.500020 0.653130 0.951273
Zn2   Zn    Zn3+2 0.499990 0.499980 0.346870 0.976974
Br1   Br    Br    0.740229 0.973562 0.933271 -0.590255
Br2   Br    Br    0.201232 0.085573 0.460476 -0.634886
N3    N     N_3   0.137518 0.596920 0.146023 -0.459495
H21   H     H_    0.039905 0.590714 0.135581 0.214376
H22   H     H_    0.173813 0.606820 0.047958 0.169549
Br3   Br    Br    0.838032 0.735348 0.341971 -0.530376

loop_
_geom_bond_atom_site_label_1
_geom_bond_atom_site_label_2
_ccdc_geom_bond_type
C31   O8    A    
O8    Zn2   S    
C30   H15   S    
C16   C21   A    
C35   C36   A    
C7    C8    A    
C29   H13   S    
C33   H16   S    
C26   C27   A    
C24   H9    S    
O6    Zn2   S    
C28   C29   S    
C34   C35   A    
C1    O1    A    
C5    C6    A    
C27   H11   S    
C2    C32   A    
C18   C19   A    
C3    Br3   S    
C18   H4    S    
C36   H17   S    
O1    Zn1   S    
C14   H3    S    
C19   C20   A    
C16   C17   A    
O7    Zn1   S    
C9    H19   S    
C10   H20   S    
C9    C10   A    
C23   O5    A    
C30   H14   S    
C35   N3    S    
C16   C24   S    
C21   C22   S    
C25   N1    A    
C6    H18   S    
C33   C34   A    
C7    C12   S    
O5    Zn1   S    
C29   H12   S    
C3    C8    A    
C1    O2    A    
N3    H22   S    
C32   Br2   S    
C25   C28   A    
C29   C30   S    
C12   O4    A    
O3    Zn1   S    
C22   H7    S    
C20   C23   S    
C17   C18   A    
C8    C34   S    
C13   H2    S    
C23   O6    A    
C24   H8    S    
C22   C24   S    
N1    Zn2   S    
C3    C4    A    
C2    C36   A    
C25   C30   S    
C31   O7    A    
C4    C5    A    
C27   N2    A    
C11   Br1   S    
C6    C7    A    
C28   N2    A    
C1    C17   S    
O4    Zn2   S    
C32   C33   A    
C9    C15   A    
N3    H21   S    
C12   O3    A    
C11   C13   A    
C2    H1    S    
C22   H6    S    
C26   N1    A    
C5    C15   S    
C4    C31   S    
C10   C11   A    
C26   H10   S    
N2    Zn1   S    
C20   C21   A    
O2    Zn2   S    
C14   C15   A    
C13   C14   A    
C19   H5    S    
