data_mof_unit_61165.cif
_audit_creation_date              2012-12-10T18:00:53-0500
_audit_creation_method            fapswitch 2.2
_symmetry_space_group_name_H-M    P1
_symmetry_Int_Tables_number       1
_space_group_crystal_system       triclinic
_cell_length_a                    38.719628
_cell_length_b                    21.663685
_cell_length_c                    21.651358
_cell_angle_alpha                 90.0
_cell_angle_beta                  55.410828
_cell_angle_gamma                 89.99977
_cell_volume                      14951.2343248

loop_
_atom_site_label
_atom_site_type_symbol
_atom_type_description
_atom_site_fract_x
_atom_site_fract_y
_atom_site_fract_z
_atom_type_partial_charge
C1    C     C_R   0.998514 0.500030 0.381537 0.883246
C2    C     C_R   0.001487 0.500030 0.618462 0.883194
C3    C     C_R   0.498513 0.000030 0.381538 0.883210
C4    C     C_R   0.501487 0.000030 0.618462 0.883208
C5    C     C_3   0.708503 0.499704 0.789715 0.023764
C6    C     C_3   0.291496 0.499693 0.210298 0.023757
C7    C     C_3   0.208503 0.999697 0.789702 0.023749
C8    C     C_3   0.791497 0.999696 0.210295 0.023754
C9    C     C_3   0.763595 0.550146 0.763640 0.160863
C10   C     C_3   0.236384 0.551513 0.238936 0.160682
C11   C     C_3   0.263611 0.051323 0.761447 0.160754
C12   C     C_3   0.736388 0.051320 0.238548 0.160758
C13   C     C_3   0.736332 0.549986 0.732537 -0.020335
C14   C     C_3   0.263644 0.548444 0.269968 -0.020473
C15   C     C_3   0.236353 0.048681 0.730393 -0.020460
C16   C     C_3   0.763647 0.048682 0.269600 -0.020441
C17   C     C_1   0.836973 0.499814 0.661884 -0.018466
C18   C     C_1   0.163027 0.499807 0.338106 -0.018474
C19   C     C_1   0.336972 0.999809 0.661892 -0.018461
C20   C     C_1   0.663027 0.999809 0.338107 -0.018467
C21   C     C_1   0.663081 0.499756 0.835511 -0.019980
C22   C     C_1   0.336918 0.499753 0.164499 -0.019958
C23   C     C_1   0.163081 0.999756 0.835502 -0.019960
C24   C     C_1   0.836918 0.999755 0.164497 -0.019962
C25   C     C_R   0.022814 0.540703 0.259789 -0.264703
C26   C     C_R   0.977179 0.540693 0.740217 -0.264713
C27   C     C_R   0.522820 0.040694 0.259784 -0.264724
C28   C     C_R   0.477180 0.040694 0.740216 -0.264712
C29   C     C_R   0.023935 0.541044 0.195082 -0.013337
C30   C     C_R   0.976058 0.541034 0.804924 -0.013353
C31   C     C_R   0.523941 0.041035 0.195077 -0.013303
C32   C     C_R   0.476059 0.041035 0.804923 -0.013343
C33   C     C_R   0.998794 0.498959 0.187913 -0.156083
C34   C     C_R   0.001206 0.498958 0.812086 -0.156077
C35   C     C_R   0.498794 0.998958 0.187914 -0.156076
C36   C     C_R   0.501206 0.998958 0.812086 -0.156074
C37   C     C_R   0.971403 0.458113 0.246705 -0.022360
C38   C     C_R   0.028605 0.458122 0.753286 -0.022425
C39   C     C_R   0.471396 0.958122 0.246713 -0.022411
C40   C     C_R   0.528604 0.958121 0.753287 -0.022436
C41   C     C_R   0.968748 0.460253 0.313825 0.143782
C42   C     C_R   0.031261 0.460264 0.686165 0.143413
C43   C     C_R   0.468740 0.960264 0.313834 0.143469
C44   C     C_R   0.531260 0.960263 0.686166 0.143476
C45   C     C_R   0.918805 0.499999 0.581179 0.893340
C46   C     C_R   0.081194 0.499999 0.418818 0.893306
C47   C     C_R   0.418805 0.999999 0.581181 0.893313
C48   C     C_R   0.581194 0.999999 0.418819 0.893317
C49   C     C_R   0.996168 0.500225 0.317921 -0.050159
C50   C     C_R   0.003833 0.500225 0.682077 -0.050152
C51   C     C_R   0.496167 0.000225 0.317922 -0.050143
C52   C     C_R   0.503833 0.000225 0.682077 -0.050144
C53   C     C_R   0.500000 0.379676 1.000000 0.890834
C54   C     C_R   0.000000 0.879676 1.000000 0.890861
C55   C     C_R   0.581218 0.499914 0.918529 0.903126
C56   C     C_R   0.418781 0.499914 0.081472 0.903115
C57   C     C_R   0.081218 0.999914 0.918528 0.903119
C58   C     C_R   0.918782 0.999914 0.081471 0.903115
C59   C     C_R   0.500000 0.620157 1.000000 0.885650
C60   C     C_R   1.000000 0.120157 0.000000 0.885600
C61   C     C_R   0.000000 0.379715 1.000000 0.899605
C62   C     C_R   0.500000 0.879715 0.000000 0.899590
C63   C     C_R   0.999743 0.499368 0.120584 0.867794
C64   C     C_R   0.000257 0.499367 0.879416 0.867763
C65   C     C_R   0.499743 0.999367 0.120584 0.867769
C66   C     C_R   0.500257 0.999367 0.879416 0.867766
C67   C     C_R   1.000000 0.619934 0.000000 0.902015
C68   C     C_R   0.500000 0.119934 0.000000 0.902032
C69   C     C_R   0.475027 0.281344 0.068625 -0.026006
C70   C     C_R   0.524972 0.281343 0.931374 -0.026027
C71   C     C_R   0.975025 0.781344 0.068625 -0.026009
C72   C     C_R   0.024975 0.781344 0.931375 -0.025993
C73   C     C_R   0.977295 0.717225 0.069344 0.099556
C74   C     C_R   0.022705 0.717225 0.930656 0.099637
C75   C     C_R   0.477296 0.217225 0.069344 0.099607
C76   C     C_R   0.522702 0.217224 0.930656 0.099594
C77   C     C_R   1.000000 0.685765 0.000000 -0.048281
C78   C     C_R   0.500000 0.185765 1.000000 -0.048302
C79   C     C_3   0.736317 0.449187 0.732933 -0.021409
C80   C     C_3   0.263700 0.447790 0.264497 -0.021219
C81   C     C_3   0.236302 0.947988 0.735121 -0.021248
C82   C     C_3   0.763698 0.947990 0.264882 -0.021259
C83   C     C_R   0.499999 0.313150 1.000000 -0.202657
C84   C     C_R   0.000000 0.813151 0.000000 -0.202646
C85   C     C_R   0.517583 0.717951 0.031993 -0.169070
C86   C     C_R   0.482419 0.717951 0.968004 -0.169276
C87   C     C_R   0.017584 0.217950 0.031989 -0.169257
C88   C     C_R   0.982417 0.217951 0.968008 -0.169255
C89   C     C_R   0.018168 0.281911 0.031748 0.150134
C90   C     C_R   0.981835 0.281911 0.968247 0.150143
C91   C     C_R   0.518165 0.781911 0.031753 0.150121
C92   C     C_R   0.481836 0.781911 0.968245 0.150152
C93   C     C_R   0.000001 0.313657 0.999999 -0.031419
C94   C     C_R   0.500000 0.813657 0.999999 -0.031411
C95   C     C_R   0.500001 0.686403 0.999999 -0.113950
C96   C     C_R   0.000000 0.186403 0.999999 -0.113945
C97   C     C_3   0.764360 0.499472 0.675602 -0.114768
C98   C     C_3   0.235634 0.496549 0.324319 -0.114728
C99   C     C_3   0.264366 0.996978 0.675657 -0.114738
C100  C     C_3   0.735635 0.996983 0.324340 -0.114737
C101  C     C_1   0.874415 0.499941 0.624994 -0.173103
C102  C     C_1   0.125585 0.499939 0.374999 -0.173119
C103  C     C_1   0.374415 0.999940 0.625000 -0.173121
C104  C     C_1   0.625585 0.999940 0.374999 -0.173120
C105  C     C_1   0.625625 0.499828 0.873444 -0.160050
C106  C     C_1   0.374375 0.499828 0.126560 -0.160043
C107  C     C_1   0.125624 0.999829 0.873440 -0.160044
C108  C     C_1   0.874375 0.999828 0.126559 -0.160047
C109  C     C_3   0.763591 0.449448 0.764021 0.160732
C110  C     C_3   0.236431 0.450959 0.233484 0.160866
C111  C     C_3   0.263571 0.950731 0.766156 0.160893
C112  C     C_3   0.736428 0.950728 0.233847 0.160846
C113  C     C_3   0.791544 0.499690 0.706771 0.098995
C114  C     C_3   0.208455 0.499673 0.293223 0.098980
C115  C     C_3   0.291544 0.999678 0.706777 0.098945
C116  C     C_3   0.708456 0.999678 0.293223 0.098963
C117  C     C_3   0.735380 0.499912 0.821967 -0.185049
C118  C     C_3   0.264623 0.502847 0.178121 -0.185099
C119  C     C_3   0.235376 0.002419 0.821903 -0.185116
C120  C     C_3   0.764624 0.002413 0.178096 -0.185106
H1    H     H_    0.531374 0.692612 0.056108 0.162435
H2    H     H_    0.468629 0.692612 0.943888 0.162398
H3    H     H_    0.031377 0.192611 0.056102 0.162406
H4    H     H_    0.968625 0.192612 0.943894 0.162402
H5    H     H_    0.723145 0.500094 0.882395 0.155358
H6    H     H_    0.276861 0.505434 0.117761 0.155320
H7    H     H_    0.223134 0.004653 0.882282 0.155328
H8    H     H_    0.776863 0.004644 0.117718 0.155325
H9    H     H_    0.043048 0.571875 0.264844 0.163496
H10   H     H_    0.956939 0.571856 0.735167 0.163506
H11   H     H_    0.543059 0.071858 0.264834 0.163479
H12   H     H_    0.456941 0.071859 0.735166 0.163489
O1    O     O_R   0.000010 0.448280 0.408380 -0.615290
O2    O     O_R   0.999990 0.448280 0.591620 -0.615275
O3    O     O_R   0.500010 0.948280 0.408380 -0.615261
O4    O     O_R   0.499990 0.948280 0.591620 -0.615267
O5    O     O_R   0.034780 0.499900 0.056880 -0.614262
O6    O     O_R   0.965220 0.499900 0.943120 -0.614255
O7    O     O_R   0.534780 0.999900 0.056880 -0.614246
O8    O     O_R   0.465220 0.999900 0.943120 -0.614250
O9    O     O_R   0.965220 0.499940 0.126430 -0.617724
O10   O     O_R   0.034780 0.499940 0.873570 -0.617755
O11   O     O_R   0.465220 0.999940 0.126430 -0.617753
O12   O     O_R   0.534780 0.999940 0.873570 -0.617754
O13   O     O_R   0.034810 0.591520 0.965270 -0.613749
O14   O     O_R   0.965190 0.591520 0.034730 -0.613742
O15   O     O_R   0.534810 0.091520 0.965270 -0.613809
O16   O     O_R   0.465190 0.091520 0.034730 -0.613724
O17   O     O_R   0.000010 0.551730 0.408430 -0.623551
O18   O     O_R   0.999990 0.551730 0.591570 -0.623593
O19   O     O_R   0.500010 0.051730 0.408430 -0.623600
O20   O     O_R   0.499990 0.051730 0.591570 -0.623593
O21   O     O_R   0.938390 0.448280 0.561610 -0.618886
O22   O     O_R   0.061610 0.448280 0.438390 -0.618785
O23   O     O_R   0.438390 0.948280 0.561610 -0.618797
O24   O     O_R   0.561610 0.948280 0.438390 -0.618795
O25   O     O_R   0.938400 0.551730 0.561660 -0.612615
O26   O     O_R   0.061600 0.551730 0.438340 -0.612737
O27   O     O_R   0.438400 0.051730 0.561660 -0.612715
O28   O     O_R   0.561600 0.051730 0.438340 -0.612719
O29   O     O_R   0.500010 0.408260 0.948350 -0.615162
O30   O     O_R   0.499990 0.408260 0.051650 -0.615256
O31   O     O_R   0.000010 0.908260 0.948350 -0.615203
O32   O     O_R   0.999990 0.908260 0.051650 -0.615208
O33   O     O_R   0.561620 0.499890 0.886700 -0.605477
O34   O     O_R   0.438380 0.499890 0.113300 -0.605470
O35   O     O_R   0.061620 0.999890 0.886700 -0.605471
O36   O     O_R   0.938380 0.999890 0.113300 -0.605476
O37   O     O_R   0.561610 0.499990 0.990150 -0.620762
O38   O     O_R   0.438390 0.499990 0.009850 -0.620758
O39   O     O_R   0.061610 0.999990 0.990150 -0.620757
O40   O     O_R   0.938390 0.999990 0.009850 -0.620758
O41   O     O_R   0.500010 0.591500 0.948260 -0.625455
O42   O     O_R   0.499990 0.591500 0.051740 -0.625443
O43   O     O_R   0.000010 0.091500 0.948260 -0.625452
O44   O     O_R   0.999990 0.091500 0.051740 -0.625457
O45   O     O_R   0.034760 0.408280 0.965230 -0.618209
O46   O     O_R   0.965240 0.408280 0.034770 -0.618213
O47   O     O_R   0.534760 0.908280 0.965230 -0.618148
O48   O     O_R   0.465240 0.908280 0.034770 -0.618230
Zn1   Zn    Zn3+2 0.000000 0.430930 0.500000 0.970271
Zn2   Zn    Zn3+2 0.500000 0.930930 0.500000 0.970359
Zn3   Zn    Zn3+2 0.000000 0.569080 0.500000 0.976661
Zn4   Zn    Zn3+2 0.500000 0.069080 0.500000 0.976546
Zn5   Zn    Zn3+2 0.500010 0.499860 0.930960 0.988845
Zn6   Zn    Zn3+2 0.499990 0.499860 0.069040 0.988820
Zn7   Zn    Zn3+2 0.000010 0.999860 0.930960 0.988837
Zn8   Zn    Zn3+2 0.999990 0.999860 0.069040 0.988832
Zn9   Zn    Zn3+2 0.046450 0.499890 0.953590 0.991079
Zn10  Zn    Zn3+2 0.953550 0.499890 0.046410 0.991105
Zn11  Zn    Zn3+2 0.546450 0.999890 0.953590 0.991091
Zn12  Zn    Zn3+2 0.453550 0.999890 0.046410 0.991088
C121  C     C_1   0.780640 0.499174 0.595620 0.194816
N1    N     N_1   0.793500 0.498927 0.532594 -0.185633
C122  C     C_1   0.219342 0.493076 0.404212 0.194911
N2    N     N_1   0.206472 0.490330 0.467168 -0.186014
C123  C     C_1   0.280659 0.993971 0.595737 0.194900
N3    N     N_1   0.293528 0.991592 0.532762 -0.185967
C124  C     C_1   0.719343 0.993981 0.404258 0.194900
N4    N     N_1   0.706475 0.991606 0.467233 -0.185954
C125  C     C_3   0.935909 0.421697 0.380277 -0.845724
H13   H     H_    0.929953 0.437256 0.434260 0.239642
H14   H     H_    0.905250 0.425632 0.387348 0.242112
H15   H     H_    0.945751 0.372547 0.370756 0.246812
C126  C     C_3   0.064108 0.421725 0.619704 -0.845228
H16   H     H_    0.070053 0.437272 0.565727 0.239628
H17   H     H_    0.094769 0.425691 0.612622 0.242430
H18   H     H_    0.054284 0.372566 0.629225 0.246815
C127  C     C_3   0.435893 0.921722 0.380294 -0.845293
H19   H     H_    0.429948 0.937270 0.434271 0.239626
H20   H     H_    0.405233 0.925686 0.387376 0.242382
H21   H     H_    0.445719 0.872565 0.370772 0.246821
C128  C     C_3   0.564106 0.921721 0.619707 -0.845308
H22   H     H_    0.570052 0.937269 0.565729 0.239628
H23   H     H_    0.594767 0.925684 0.612625 0.242388
H24   H     H_    0.554280 0.872564 0.629228 0.246812
C129  C     C_1   0.446354 0.314106 0.138402 0.216573
N5    N     N_1   0.423466 0.340134 0.193954 -0.181179
C130  C     C_1   0.553642 0.314105 0.861596 0.216163
N6    N     N_1   0.576529 0.340132 0.806043 -0.180973
C131  C     C_1   0.946352 0.814107 0.138401 0.216533
N7    N     N_1   0.923462 0.840135 0.193952 -0.181083
C132  C     C_1   0.053649 0.814106 0.861599 0.216504
N8    N     N_1   0.076539 0.840133 0.806048 -0.181149
C133  C     C_3   0.955964 0.683747 0.144238 -0.832104
H25   H     H_    0.966717 0.635515 0.139370 0.234216
H26   H     H_    0.963353 0.707273 0.181002 0.236298
H27   H     H_    0.921464 0.683968 0.172254 0.250527
C134  C     C_3   0.044036 0.683746 0.855762 -0.832289
H28   H     H_    0.033281 0.635516 0.860630 0.234225
H29   H     H_    0.036649 0.707273 0.818996 0.236284
H30   H     H_    0.078536 0.683963 0.827748 0.250497
C135  C     C_3   0.455968 0.183747 0.144237 -0.832268
H31   H     H_    0.466721 0.135515 0.139368 0.234223
H32   H     H_    0.463359 0.207272 0.180999 0.236264
H33   H     H_    0.421467 0.183968 0.172257 0.250530
C136  C     C_3   0.544029 0.183746 0.855762 -0.832353
H34   H     H_    0.533277 0.135513 0.860632 0.234245
H35   H     H_    0.536636 0.207270 0.819002 0.236341
H36   H     H_    0.578530 0.183968 0.827740 0.250370
C137  C     C_3   0.037516 0.315246 0.066346 -0.873407
H37   H     H_    0.047564 0.282729 0.092954 0.235577
H38   H     H_    0.065577 0.341409 0.022548 0.257717
H39   H     H_    0.014431 0.347653 0.110196 0.231699
C138  C     C_3   0.962490 0.315248 0.933642 -0.873455
H40   H     H_    0.952443 0.282730 0.907033 0.235572
H41   H     H_    0.934431 0.341414 0.977436 0.257708
H42   H     H_    0.985579 0.347651 0.889790 0.231700
C139  C     C_3   0.537509 0.815247 0.066359 -0.873224
H43   H     H_    0.547557 0.782729 0.092967 0.235596
H44   H     H_    0.565569 0.841413 0.022565 0.257778
H45   H     H_    0.514421 0.847651 0.110210 0.231638
C140  C     C_3   0.462492 0.815248 0.933639 -0.873442
H46   H     H_    0.452446 0.782730 0.907029 0.235578
H47   H     H_    0.434432 0.841413 0.977433 0.257699
H48   H     H_    0.485580 0.847652 0.889789 0.231705
C141  C     C_1   0.720814 0.393816 0.716899 0.199032
N9    N     N_1   0.708575 0.350195 0.704304 -0.182150
C142  C     C_1   0.279225 0.390921 0.277714 0.199025
N10   N     N_1   0.291481 0.346122 0.288090 -0.182759
C143  C     C_1   0.220784 0.891326 0.721485 0.199031
N11   N     N_1   0.208534 0.846688 0.710781 -0.182681
C144  C     C_1   0.779218 0.891332 0.278522 0.199045
N12   N     N_1   0.791470 0.846699 0.289230 -0.182606
C145  C     C_1   0.720915 0.605163 0.716002 0.196023
N13   N     N_1   0.708758 0.648644 0.702998 -0.184381
C146  C     C_1   0.279036 0.601958 0.289249 0.196322
N14   N     N_1   0.291174 0.644129 0.304419 -0.184193
C147  C     C_1   0.220960 0.102452 0.711508 0.196286
N15   N     N_1   0.208822 0.144825 0.696651 -0.184206
C148  C     C_1   0.779042 0.102454 0.288480 0.196263
N16   N     N_1   0.791181 0.144827 0.303333 -0.184292
C149  C     C_3   0.779443 0.607399 0.780812 -0.886359
H49   H     H_    0.752397 0.635567 0.823989 0.246594
H50   H     H_    0.798474 0.593514 0.802099 0.245566
H51   H     H_    0.799113 0.635205 0.728992 0.249988
C150  C     C_3   0.220515 0.610339 0.224685 -0.886049
H52   H     H_    0.247551 0.639279 0.182954 0.246578
H53   H     H_    0.201494 0.598479 0.202740 0.245609
H54   H     H_    0.200830 0.636500 0.277867 0.250029
C151  C     C_3   0.279476 0.109933 0.776134 -0.886046
H55   H     H_    0.252439 0.138770 0.818079 0.246561
H56   H     H_    0.298496 0.097780 0.797992 0.245590
H57   H     H_    0.299161 0.136343 0.723149 0.250006
C152  C     C_3   0.720522 0.109925 0.223857 -0.886138
H58   H     H_    0.747560 0.138757 0.181909 0.246557
H59   H     H_    0.701502 0.097765 0.202002 0.245590
H60   H     H_    0.700839 0.136337 0.276841 0.250020
C153  C     C_3   0.779444 0.392429 0.781579 -0.886640
H61   H     H_    0.752400 0.364358 0.824934 0.247459
H62   H     H_    0.799122 0.364417 0.729941 0.249250
H63   H     H_    0.798468 0.406595 0.802781 0.245718
C154  C     C_3   0.220605 0.395678 0.213087 -0.886904
H64   H     H_    0.247663 0.368464 0.168339 0.247483
H65   H     H_    0.200938 0.366103 0.263271 0.249262
H66   H     H_    0.201578 0.411835 0.192645 0.245673
C155  C     C_3   0.279400 0.895182 0.786144 -0.886831
H67   H     H_    0.252345 0.867834 0.830693 0.247457
H68   H     H_    0.299069 0.865827 0.735746 0.249247
H69   H     H_    0.298425 0.911043 0.806707 0.245668
C156  C     C_3   0.720599 0.895179 0.213865 -0.886785
H70   H     H_    0.747654 0.867831 0.169319 0.247479
H71   H     H_    0.700930 0.865828 0.264268 0.249249
H72   H     H_    0.701572 0.911040 0.193304 0.245678
C157  C     C_1   0.050228 0.586174 0.137877 0.186821
N17   N     N_1   0.071182 0.622325 0.092165 -0.189652
C158  C     C_1   0.949757 0.586155 0.862136 0.186838
N18   N     N_1   0.928796 0.622298 0.907854 -0.189609
C159  C     C_1   0.550241 0.086157 0.137866 0.186807
N19   N     N_1   0.571201 0.122301 0.092149 -0.189812
C160  C     C_1   0.449759 0.086158 0.862134 0.186823
N20   N     N_1   0.428799 0.122303 0.907851 -0.189609
C161  C     C_1   0.946515 0.413356 0.237956 0.182139
N21   N     N_1   0.926704 0.377681 0.230996 -0.181946
C162  C     C_1   0.053500 0.413373 0.762026 0.182242
N22   N     N_1   0.073317 0.377704 0.768980 -0.181770
C163  C     C_1   0.446502 0.913372 0.237973 0.182236
N23   N     N_1   0.426684 0.877703 0.231018 -0.181829
C164  C     C_1   0.553498 0.913371 0.762028 0.182221
N24   N     N_1   0.573315 0.877701 0.768982 -0.181646

loop_
_geom_bond_atom_site_label_1
_geom_bond_atom_site_label_2
_ccdc_geom_bond_type
C61   O45   A    
C71   C131  S    
C125  H14   S    
C88   C90   A    
C132  N8    T    
C110  C118  S    
O23   Zn2   S    
O19   Zn4   S    
C64   O6    A    
C156  H70   S    
C151  H57   S    
C2    O2    A    
C55   C105  S    
C26   C50   A    
C36   C66   S    
C98   C114  S    
C148  N16   T    
C29   C33   A    
C133  H27   S    
C97   C121  S    
C9    C13   S    
C11   C15   S    
C12   C16   S    
O47   Zn11  S    
C85   H1    S    
C11   C115  S    
C40   C44   A    
C5    C13   S    
C26   H10   S    
C80   C98   S    
C92   C140  S    
C7    C15   S    
C124  N4    T    
C8    C16   S    
C138  H40   S    
C41   C49   A    
O44   Zn8   S    
C128  H23   S    
C25   C29   A    
C110  C154  S    
C79   C109  S    
C27   C31   A    
C7    C119  S    
C28   C32   A    
C112  C120  S    
C81   C99   S    
O10   Zn9   S    
C76   C136  S    
C134  H28   S    
C6    C80   S    
C23   C107  T    
C92   C94   A    
C56   C106  S    
C72   C84   A    
C40   C164  S    
C87   C89   A    
C60   O44   A    
C69   C129  S    
C16   C148  S    
C90   C93   A    
C20   C116  S    
C156  H72   S    
O34   Zn6   S    
C79   C97   S    
O9    Zn10  S    
O32   Zn8   S    
O12   Zn11  S    
C152  H59   S    
C91   C94   A    
C65   O11   A    
O38   Zn5   S    
C13   C97   S    
C43   C127  S    
C37   C161  S    
C86   C95   A    
C122  N2    T    
C65   O7    A    
C5    C21   S    
C121  N1    T    
C138  H42   S    
C73   C77   A    
C127  H21   S    
C2    O18   A    
C81   C143  S    
C67   C77   S    
C88   H4    S    
C149  H51   S    
C17   C113  S    
C47   O27   A    
C48   O28   A    
O41   Zn5   S    
C139  H43   S    
C131  N7    T    
C10   C118  S    
C32   C36   A    
C9    C149  S    
C76   C78   A    
C134  H30   S    
C143  N11   T    
C46   O26   A    
C90   C138  S    
C42   C126  S    
C111  C119  S    
C141  N9    T    
C18   C102  T    
C2    C50   S    
O15   Zn11  S    
C74   C77   A    
C67   O13   A    
C54   O31   A    
C5    C79   S    
C58   O36   A    
C135  H31   S    
C110  C114  S    
C58   C108  S    
C68   O16   A    
C44   C52   A    
C150  H52   S    
C155  H68   S    
C74   C134  S    
C1    O1    A    
C27   C51   A    
C14   C98   S    
C126  H17   S    
C4    O20   A    
C30   C34   A    
C79   C141  S    
C45   O25   A    
C10   C14   S    
C62   O47   A    
O24   Zn2   S    
C16   C100  S    
C129  N5    T    
C28   H12   S    
C154  H64   S    
C6    C14   S    
C33   C63   S    
C34   C64   S    
C127  H19   S    
C66   O8    A    
C80   C142  S    
C42   C50   A    
O1    Zn1   S    
C7    C81   S    
C26   C30   A    
C112  C116  S    
C14   C146  S    
C127  H20   S    
C139  H45   S    
C56   O38   A    
C140  H48   S    
C38   C162  S    
C151  H56   S    
C70   C130  S    
C137  H39   S    
C9    C113  S    
C136  H35   S    
C87   H3    S    
C85   C95   A    
C7    C23   S    
C149  H50   S    
C10   C150  S    
C37   C41   A    
C123  N3    T    
C135  H33   S    
O43   Zn7   S    
C61   O46   A    
C150  H54   S    
O4    Zn2   S    
C117  H5    S    
C12   C116  S    
C119  H7    S    
O16   Zn12  S    
C88   C96   A    
O36   Zn8   S    
C100  C116  S    
C59   O42   A    
C54   C84   S    
C109  C117  S    
C144  N12   T    
C109  C153  S    
C128  H22   S    
C31   C159  S    
O39   Zn8   S    
C8    C82   S    
O37   Zn6   S    
C154  H66   S    
O7    Zn11  S    
C99   C115  S    
O46   Zn10  S    
C61   C93   S    
C53   O30   A    
C66   O12   A    
C35   C65   S    
O40   Zn7   S    
C6    C22   S    
O22   Zn1   S    
C153  H63   S    
C9    C117  S    
C155  H67   S    
O29   Zn5   S    
C86   H2    S    
C1    O17   A    
C24   C108  T    
O27   Zn4   S    
C10   C114  S    
C4    O4    A    
C48   O24   A    
C11   C119  S    
C162  N22   T    
C147  N15   T    
C156  H71   S    
C68   C78   S    
C63   O5    A    
C46   O22   A    
C47   C103  S    
C44   C128  S    
C72   C74   A    
C130  N6    T    
C3    C51   S    
C159  N19   T    
C72   C132  S    
C33   C37   A    
C158  N18   T    
C82   C112  S    
C58   O40   A    
C30   C158  S    
C152  H58   S    
C146  N14   T    
C112  C156  S    
C63   O9    A    
C70   C83   A    
C45   C101  S    
C60   C96   S    
O21   Zn1   S    
C138  H41   S    
C31   C35   A    
C45   O21   A    
C55   O33   A    
C41   C125  S    
C71   C73   A    
C91   C139  S    
C128  H24   S    
O13   Zn9   S    
C13   C145  S    
C120  H8    S    
C38   C42   A    
C57   O35   A    
C53   C83   S    
C134  H29   S    
C43   C51   A    
C161  N21   T    
C140  H46   S    
C64   O10   A    
C69   C75   A    
C3    O3    A    
C39   C163  S    
C25   C49   A    
C164  N24   T    
C157  N17   T    
C56   O34   A    
O17   Zn3   S    
C60   O43   A    
O25   Zn3   S    
C54   O32   A    
C55   O37   A    
C21   C105  T    
C160  N20   T    
C8    C24   S    
C27   H11   S    
C125  H13   S    
C35   C39   A    
C25   H9    S    
C18   C114  S    
C85   C91   A    
C126  H16   S    
C46   C102  S    
C4    C52   S    
C15   C147  S    
C137  H37   S    
C152  H60   S    
C62   O48   A    
C48   C104  S    
O31   Zn7   S    
C17   C101  T    
C133  H26   S    
C12   C120  S    
C19   C103  T    
C81   C111  S    
C111  C155  S    
O11   Zn12  S    
O20   Zn4   S    
C145  N13   T    
C109  C113  S    
C89   C93   A    
O6    Zn10  S    
C59   C95   S    
C139  H44   S    
O45   Zn9   S    
C36   C40   A    
O48   Zn12  S    
O30   Zn6   S    
C39   C43   A    
C155  H69   S    
C151  H55   S    
C22   C106  T    
O33   Zn5   S    
C5    C117  S    
C137  H38   S    
C69   C83   A    
C12   C152  S    
C140  H47   S    
C19   C115  S    
O35   Zn7   S    
C87   C96   A    
C99   C123  S    
C67   O14   A    
C133  H25   S    
C29   C157  S    
C135  H32   S    
C68   O15   A    
O5    Zn9   S    
C57   C107  S    
C150  H53   S    
C70   C76   A    
O8    Zn12  S    
C125  H15   S    
C89   C137  S    
C136  H36   S    
O2    Zn1   S    
C97   C113  S    
C142  N10   T    
C8    C120  S    
C153  H61   S    
C71   C84   A    
O26   Zn3   S    
C126  H18   S    
C34   C38   A    
C82   C100  S    
C15   C99   S    
C59   O41   A    
O18   Zn3   S    
C20   C104  T    
C32   C160  S    
C3    O19   A    
C62   C94   S    
C154  H65   S    
C86   C92   A    
O42   Zn6   S    
C73   C133  S    
C28   C52   A    
C53   O29   A    
C47   O23   A    
C153  H62   S    
O28   Zn4   S    
C98   C122  S    
C75   C135  S    
C163  N23   T    
C75   C78   A    
C100  C124  S    
C80   C110  S    
C82   C144  S    
C11   C151  S    
O14   Zn10  S    
C111  C115  S    
C118  H6    S    
O3    Zn2   S    
C136  H34   S    
C1    C49   S    
C6    C118  S    
C57   O39   A    
C149  H49   S    
