data_mof_unit_40707.cif
_audit_creation_date              2012-12-10T16:59:59-0500
_audit_creation_method            fapswitch 2.2
_symmetry_space_group_name_H-M    P1
_symmetry_Int_Tables_number       1
_space_group_crystal_system       triclinic
_cell_length_a                    23.53652
_cell_length_b                    10.925235
_cell_length_c                    9.66983
_cell_angle_alpha                 90.390999
_cell_angle_beta                  90.664183
_cell_angle_gamma                 90.470038
_cell_volume                      2486.20928137

loop_
_atom_site_label
_atom_site_type_symbol
_atom_type_description
_atom_site_fract_x
_atom_site_fract_y
_atom_site_fract_z
_atom_type_partial_charge
C1    C     C_R   0.497527 0.265237 0.499094 0.863750
C2    C     C_R   0.970334 0.274531 0.489057 0.497074
C3    C     C_R   0.029921 0.277148 0.487154 -0.244566
C4    C     C_R   0.060035 0.388370 0.492066 -0.089699
C5    C     C_R   0.030130 0.499251 0.495530 -0.015115
C6    C     C_R   0.060202 0.611435 0.499405 0.002295
C7    C     C_R   0.030180 0.721881 0.502102 -0.158911
C8    C     C_R   0.971001 0.721167 0.500826 -0.156338
C9    C     C_R   0.119677 0.391593 0.492841 0.574552
C10   C     C_R   0.119787 0.610177 0.500406 0.538895
C11   C     C_R   0.238224 0.542432 0.380729 -0.186149
C12   C     C_R   0.390937 0.501103 0.499196 0.822793
C13   C     C_R   0.297655 0.545098 0.380269 0.468681
C14   C     C_R   0.328340 0.503501 0.497357 -0.146771
C15   C     C_R   0.298537 0.464537 0.614470 -0.277433
C16   C     C_R   0.239340 0.463943 0.614371 -0.105661
C17   C     C_R   0.209057 0.502450 0.497461 0.286177
C18   C     C_R   0.759984 0.475463 0.377430 -0.191670
C19   C     C_R   0.700943 0.476155 0.379535 -0.277346
C20   C     C_R   0.672031 0.502702 0.502264 -0.171252
C21   C     C_R   0.703676 0.530834 0.624234 0.353887
C22   C     C_R   0.763756 0.525343 0.622699 0.377696
C23   C     C_R   0.501993 0.734902 0.500848 0.747028
C24   C     C_R   0.791353 0.499724 0.498094 0.270372
C25   C     C_2   0.483568 0.930239 0.398926 -0.385204
C26   C     C_2   0.508581 0.867680 0.501761 0.307124
C27   C     C_2   0.491444 0.063670 0.383070 0.567830
C28   C     C_2   0.489799 0.133439 0.498400 -0.326183
C29   C     C_2   0.470639 0.421440 0.920407 0.371343
C30   C     C_2   0.463200 0.437643 0.076828 0.413242
C31   C     C_R   0.609184 0.501213 0.500815 0.841053
C32   C     C_R   0.881103 0.607965 0.496628 0.603111
C33   C     C_R   0.879893 0.389199 0.490338 0.595417
C34   C     C_R   0.939832 0.385866 0.490618 -0.130212
C35   C     C_R   0.970121 0.498217 0.494450 -0.080722
C36   C     C_R   0.940576 0.610014 0.497152 -0.001260
Cu1   Cu    Cu3+1 0.500010 0.500020 0.638630 1.004021
Cu2   Cu    Cu3+1 0.499990 0.499980 0.361370 1.023272
H1    H     H_    0.677877 0.455232 0.284615 0.198517
H2    H     H_    0.456653 0.882841 0.323375 0.129423
H3    H     H_    0.481275 0.092677 0.598064 0.149185
H4    H     H_    0.514935 0.576005 0.895876 0.130634
H5    H     H_    0.052441 0.191222 0.481397 0.199860
H6    H     H_    0.535410 0.531267 0.106248 0.138167
H7    H     H_    0.052271 0.809248 0.505066 0.188404
H8    H     H_    0.949197 0.808048 0.502859 0.184682
H9    H     H_    0.214671 0.571950 0.290187 0.159476
H10   H     H_    0.321008 0.433004 0.705731 0.199176
H11   H     H_    0.216904 0.433291 0.705103 0.158873
H12   H     H_    0.781579 0.455449 0.281711 0.177906
N1    N     N_R   0.852231 0.498875 0.494012 -0.444146
N2    N     N_R   0.148157 0.501344 0.497211 -0.456897
N3    N     N_2   0.499380 0.498660 0.846910 -0.279426
N4    N     N_2   0.499370 0.498630 0.153040 -0.292781
O1    O     O_R   0.500010 0.321960 0.617040 -0.527090
O2    O     O_2   0.849243 0.284328 0.487816 -0.469861
O3    O     O_2   0.149025 0.286060 0.488442 -0.527287
O4    O     O_2   0.149206 0.716707 0.505332 -0.537860
O5    O     O_R   0.499990 0.321920 0.382900 -0.495084
O6    O     O_R   0.417890 0.499980 0.617100 -0.563090
O7    O     O_R   0.417870 0.499940 0.382950 -0.477016
O8    O     O_R   0.500010 0.678080 0.617100 -0.599392
O9    O     O_R   0.499990 0.678040 0.382960 -0.599384
O10   O     O_R   0.582130 0.500060 0.617050 -0.524388
O11   O     O_R   0.582110 0.500020 0.382900 -0.597528
O12   O     O_2   0.852174 0.714125 0.498763 -0.525876
O13   O     O_3   0.942186 0.163033 0.479305 -0.531936
C37   C     C_3   0.946596 0.102735 0.607487 -0.214421
H13   H     H_    0.918891 0.020132 0.603766 0.205221
H14   H     H_    0.931697 0.161506 0.694213 0.167081
H15   H     H_    0.990771 0.071711 0.627729 0.134029
O14   O     O_3   0.676200 0.560820 0.745344 -0.576565
C38   C     C_3   0.670810 0.689235 0.751695 -0.283739
H16   H     H_    0.645334 0.724195 0.662851 0.175065
H17   H     H_    0.713094 0.735563 0.755786 0.182914
H18   H     H_    0.648182 0.713569 0.847904 0.175766
O15   O     O_3   0.796833 0.544795 0.739999 -0.713796
H19   H     H_    0.772182 0.552356 0.821779 0.357224
O16   O     O_3   0.549181 0.924601 0.586906 -0.580063
C39   C     C_3   0.537095 0.905625 0.727938 -0.324522
H20   H     H_    0.557041 0.820053 0.764841 0.180107
H21   H     H_    0.490670 0.904955 0.749682 0.150503
H22   H     H_    0.556288 0.982071 0.788959 0.185273
O17   O     O_3   0.494257 0.118965 0.253455 -0.541769
C40   C     C_3   0.518973 0.041880 0.153514 -0.294548
H23   H     H_    0.488195 0.970555 0.117575 0.150933
H24   H     H_    0.558942 0.999772 0.192584 0.170256
H25   H     H_    0.530078 0.097967 0.062348 0.183276
O18   O     O_3   0.445016 0.323732 0.852661 -0.693575
H26   H     H_    0.436652 0.259470 0.921409 0.308793
O19   O     O_3   0.417643 0.383525 0.141696 -0.638365
H27   H     H_    0.387756 0.365690 0.071344 0.316119
O20   O     O_3   0.325228 0.584108 0.262915 -0.550737
C41   C     C_3   0.332574 0.712138 0.271892 -0.270256
H28   H     H_    0.355958 0.743358 0.179459 0.184921
H29   H     H_    0.358394 0.738999 0.364642 0.133883
H30   H     H_    0.290924 0.759669 0.272545 0.170608

loop_
_geom_bond_atom_site_label_1
_geom_bond_atom_site_label_2
_ccdc_geom_bond_type
C4    C9    A    
O20   C41   S    
C38   H16   S    
C11   H9    S    
C19   C20   A    
C10   N2    A    
C29   O18   S    
Cu1   O8    S    
C7    C8    A    
O15   H19   S    
C30   N4    D    
C3    H5    S    
Cu1   Cu2   S    
C18   C24   A    
C7    H7    S    
C27   O17   S    
C10   O4    S    
C18   C19   A    
C1    O5    A    
H4    N3    S    
C5    C6    A    
C39   H20   S    
C15   C16   A    
C28   H3    S    
C34   C35   A    
C8    C36   A    
C23   C26   S    
C23   O8    A    
C35   C36   A    
C37   H13   S    
C1    C28   S    
Cu2   O7    S    
Cu1   N3    S    
C2    C34   A    
C24   N1    S    
C23   O9    A    
C21   C22   A    
C38   H17   S    
C9    N2    A    
C15   H10   S    
C39   H22   S    
C17   N2    S    
C40   H24   S    
C21   O14   S    
O13   C37   S    
C16   H11   S    
C39   H21   S    
C2    O13   S    
O19   H27   S    
O14   C38   S    
C41   H30   S    
C25   C26   D    
C40   H23   S    
Cu2   O5    S    
C13   O20   S    
Cu1   O1    S    
C32   N1    A    
C29   C30   S    
Cu2   N4    S    
Cu2   O11   S    
C33   C34   A    
O17   C40   S    
C41   H29   S    
C19   H1    S    
C12   C14   S    
C38   H18   S    
C22   C24   A    
C33   N1    A    
C3    C4    A    
C32   C36   A    
Cu1   O10   S    
C18   H12   S    
C32   O12   S    
Cu2   O9    S    
C40   H25   S    
C31   O11   A    
C11   C17   A    
C31   O10   A    
C22   O15   S    
C30   O19   S    
C6    C10   A    
C6    C7    A    
C25   C27   S    
C26   O16   S    
C2    C3    A    
C1    O1    A    
C25   H2    S    
C12   O7    A    
C11   C13   A    
C16   C17   A    
C29   N3    D    
C33   O2    S    
C37   H15   S    
C5    C35   A    
C9    O3    S    
C41   H28   S    
C8    H8    S    
Cu1   O6    S    
O16   C39   S    
C12   O6    A    
H6    N4    S    
C4    C5    A    
C20   C21   A    
C37   H14   S    
C27   C28   D    
C14   C15   A    
O18   H26   S    
C13   C14   A    
C20   C31   S    
