data_mof_unit_21056.cif
_audit_creation_date              2012-12-11T16:27:39-0500
_audit_creation_method            fapswitch 2.2
_symmetry_space_group_name_H-M    P1
_symmetry_Int_Tables_number       1
_space_group_crystal_system       triclinic
_cell_length_a                    30.494777
_cell_length_b                    22.550174
_cell_length_c                    17.987857
_cell_angle_alpha                 90.000041
_cell_angle_beta                  123.033751
_cell_angle_gamma                 89.99997
_cell_volume                      10370.0283544

loop_
_atom_site_label
_atom_site_type_symbol
_atom_type_description
_atom_site_fract_x
_atom_site_fract_y
_atom_site_fract_z
_atom_type_partial_charge
C1    C     C_R   0.531284 0.609235 0.703162 -0.044902
C2    C     C_R   0.635270 0.260564 0.520569 0.003047
C3    C     C_R   0.740590 0.767722 0.840237 0.420111
C4    C     C_R   0.292650 0.858080 0.022011 0.411589
C5    C     C_R   0.759410 0.267721 0.159763 0.420111
C6    C     C_R   0.707350 0.858080 0.977989 0.411589
C7    C     C_R   0.240590 0.267722 0.840237 0.420112
C8    C     C_R   0.847942 0.357280 0.079432 -0.037486
C9    C     C_R   0.204847 0.766352 0.108644 -0.079280
C10   C     C_R   0.152058 0.357280 0.920567 -0.037485
C11   C     C_R   0.795153 0.766352 0.891356 -0.079279
C12   C     C_R   0.347942 0.857280 0.079432 -0.037486
C13   C     C_R   0.678414 0.652655 0.423493 0.027387
C14   C     C_R   0.704847 0.266352 0.108644 -0.079279
C15   C     C_R   0.652058 0.857280 0.920568 -0.037486
C16   C     C_R   0.295153 0.266352 0.891356 -0.079280
C17   C     C_R   0.595065 0.576643 0.423458 0.458072
C18   C     C_R   0.415231 0.398811 0.574145 0.523943
C19   C     C_R   0.404935 0.576643 0.576542 0.458072
C20   C     C_R   0.584769 0.398811 0.425855 0.523943
C21   C     C_R   0.095065 0.076643 0.423458 0.458072
C22   C     C_R   0.915231 0.898811 0.574145 0.523942
C23   C     C_R   0.904935 0.076643 0.576542 0.458072
C24   C     C_R   0.364730 0.260564 0.479431 0.003047
C25   C     C_R   0.084769 0.898811 0.425855 0.523943
C26   C     C_R   0.396287 0.610819 0.300028 -0.114406
C27   C     C_R   0.615797 0.410594 0.736888 -0.156107
C28   C     C_R   0.603713 0.610819 0.699972 -0.114406
C29   C     C_R   0.384203 0.410594 0.263111 -0.156107
C30   C     C_R   0.896287 0.110819 0.300028 -0.114406
C31   C     C_R   0.115797 0.910594 0.736888 -0.156107
C32   C     C_R   0.103713 0.110819 0.699972 -0.114406
C33   C     C_R   0.884203 0.910594 0.263111 -0.156107
C34   C     C_R   0.574639 0.643860 0.724023 0.087416
C35   C     C_R   0.821586 0.152655 0.576507 0.027387
C36   C     C_R   0.405979 0.391673 0.216772 0.072742
C37   C     C_R   0.425361 0.643860 0.275977 0.087416
C38   C     C_R   0.594021 0.391673 0.783228 0.072742
C39   C     C_R   0.074639 0.143860 0.724023 0.087416
C40   C     C_R   0.905979 0.891673 0.216772 0.072742
C41   C     C_R   0.925361 0.143860 0.275977 0.087416
C42   C     C_R   0.094021 0.891673 0.783228 0.072743
C43   C     C_R   0.644101 0.591263 0.494321 0.005582
C44   C     C_R   0.375762 0.369404 0.500829 -0.036974
C45   C     C_R   0.355899 0.591263 0.505679 0.005582
C46   C     C_R   0.135270 0.760564 0.520569 0.003046
C47   C     C_R   0.624238 0.369404 0.499171 -0.036975
C48   C     C_R   0.144101 0.091262 0.494321 0.005582
C49   C     C_R   0.875762 0.869404 0.500829 -0.036975
C50   C     C_R   0.855899 0.091262 0.505679 0.005582
C51   C     C_R   0.124238 0.869404 0.499171 -0.036975
C52   C     C_R   0.218921 0.616973 0.449661 -0.218326
C53   C     C_R   0.700886 0.262261 0.456853 -0.270326
C54   C     C_R   0.781079 0.616973 0.550339 -0.218327
C55   C     C_R   0.299114 0.262261 0.543147 -0.270326
C56   C     C_R   0.718921 0.116973 0.449661 -0.218326
C57   C     C_R   0.178414 0.152655 0.423493 0.027387
C58   C     C_R   0.200885 0.762261 0.456853 -0.270325
C59   C     C_R   0.281079 0.116973 0.550339 -0.218326
C60   C     C_R   0.799114 0.762261 0.543146 -0.270326
C61   C     C_R   0.260600 0.588777 0.452724 0.477945
C62   C     C_R   0.680915 0.315183 0.464644 0.564400
C63   C     C_R   0.739400 0.588777 0.547276 0.477946
C64   C     C_R   0.319085 0.315183 0.535356 0.564400
C65   C     C_R   0.760600 0.088777 0.452724 0.477945
C66   C     C_R   0.180915 0.815183 0.464644 0.564400
C67   C     C_R   0.239400 0.088777 0.547276 0.477946
C68   C     C_R   0.864730 0.760564 0.479431 0.003047
C69   C     C_R   0.819085 0.815183 0.535356 0.564400
C70   C     C_R   0.312101 0.609778 0.512174 0.036855
C71   C     C_R   0.648064 0.314617 0.496663 -0.052167
C72   C     C_R   0.687899 0.609778 0.487826 0.036854
C73   C     C_R   0.351936 0.314617 0.503337 -0.052167
C74   C     C_R   0.812101 0.109778 0.512174 0.036854
C75   C     C_R   0.148064 0.814617 0.496663 -0.052167
C76   C     C_R   0.187899 0.109778 0.487826 0.036854
C77   C     C_R   0.851936 0.814617 0.503337 -0.052166
C78   C     C_R   0.280043 0.675745 0.577883 -0.197859
C79   C     C_R   0.657991 0.208056 0.516732 -0.115015
C80   C     C_R   0.719957 0.675745 0.422116 -0.197860
C81   C     C_R   0.456009 0.414693 0.259888 0.008555
C82   C     C_R   0.342009 0.208055 0.483268 -0.115015
C83   C     C_R   0.780043 0.175745 0.577884 -0.197860
C84   C     C_R   0.157991 0.708056 0.516732 -0.115015
C85   C     C_R   0.219957 0.175745 0.422116 -0.197860
C86   C     C_R   0.842009 0.708055 0.483268 -0.115015
C87   C     C_R   0.228994 0.662352 0.509626 0.063797
C88   C     C_R   0.691450 0.209319 0.486576 0.038135
C89   C     C_R   0.771006 0.662352 0.490374 0.063798
C90   C     C_R   0.308550 0.209319 0.513423 0.038135
C91   C     C_R   0.728994 0.162352 0.509626 0.063797
C92   C     C_R   0.468716 0.609234 0.296838 -0.044902
C93   C     C_R   0.191450 0.709319 0.486576 0.038135
C94   C     C_R   0.271006 0.162352 0.490374 0.063798
C95   C     C_R   0.808550 0.709319 0.513423 0.038135
C96   C     C_R   0.410398 0.704015 0.235819 -0.024602
C97   C     C_R   0.621195 0.359883 0.868351 -0.056564
C98   C     C_R   0.589602 0.704015 0.764181 -0.024602
C99   C     C_R   0.378804 0.359883 0.131649 -0.056564
C100  C     C_R   0.910398 0.204015 0.235819 -0.024602
C101  C     C_R   0.121195 0.859883 0.868351 -0.056564
C102  C     C_R   0.089602 0.204015 0.764181 -0.024602
C103  C     C_R   0.543991 0.414693 0.740112 0.008554
C104  C     C_R   0.878805 0.859883 0.131649 -0.056564
C105  C     C_R   0.425078 0.798793 0.187994 -0.211399
C106  C     C_R   0.623322 0.287970 0.969721 -0.210705
C107  C     C_R   0.574922 0.798793 0.812006 -0.211399
C108  C     C_R   0.376677 0.287970 0.030278 -0.210705
C109  C     C_R   0.925078 0.298793 0.187994 -0.211399
C110  C     C_R   0.123322 0.787970 0.969721 -0.210705
C111  C     C_R   0.074922 0.298793 0.812005 -0.211399
C112  C     C_R   0.876678 0.787970 0.030278 -0.210705
C113  C     C_R   0.445080 0.746079 0.236702 0.484927
C114  C     C_R   0.031284 0.109234 0.703162 -0.044902
C115  C     C_R   0.595564 0.317405 0.888912 0.477327
C116  C     C_R   0.554920 0.746079 0.763298 0.484927
C117  C     C_R   0.404436 0.317405 0.111087 0.477326
C118  C     C_R   0.945080 0.246079 0.236702 0.484928
C119  C     C_R   0.095564 0.817405 0.888912 0.477326
C120  C     C_R   0.054920 0.246079 0.763298 0.484927
C121  C     C_R   0.904435 0.817405 0.111087 0.477326
C122  C     C_R   0.357923 0.720004 0.195522 -0.176918
C123  C     C_R   0.674813 0.369492 0.927612 -0.186606
C124  C     C_R   0.642077 0.720004 0.804478 -0.176918
C125  C     C_R   0.956009 0.914693 0.259888 0.008555
C126  C     C_R   0.325187 0.369492 0.072387 -0.186605
C127  C     C_R   0.857923 0.220004 0.195522 -0.176918
C128  C     C_R   0.174813 0.869492 0.927612 -0.186606
C129  C     C_R   0.142077 0.220004 0.804478 -0.176917
C130  C     C_R   0.825187 0.869493 0.072387 -0.186606
C131  C     C_R   0.339375 0.775892 0.158214 0.124778
C132  C     C_R   0.705109 0.331724 0.000289 0.106641
C133  C     C_R   0.660625 0.775892 0.841786 0.124778
C134  C     C_R   0.294890 0.331724 0.999711 0.106641
C135  C     C_R   0.839375 0.275892 0.158214 0.124778
C136  C     C_R   0.968715 0.109234 0.296838 -0.044902
C137  C     C_R   0.205109 0.831724 0.000289 0.106641
C138  C     C_R   0.160625 0.275892 0.841786 0.124778
C139  C     C_R   0.794890 0.831724 0.999711 0.106641
C140  C     C_R   0.371340 0.812253 0.143761 0.012301
C141  C     C_R   0.677766 0.294793 0.026137 0.030380
C142  C     C_R   0.628660 0.812253 0.856238 0.012301
C143  C     C_R   0.322234 0.294793 0.973863 0.030380
C144  C     C_R   0.871340 0.312253 0.143761 0.012301
C145  C     C_R   0.177766 0.794793 0.026137 0.030381
C146  C     C_R   0.128660 0.312253 0.856238 0.012301
C147  C     C_R   0.043991 0.914693 0.740112 0.008554
C148  C     C_R   0.822234 0.794793 0.973863 0.030380
C149  C     C_R   0.286994 0.791709 0.123802 -0.102061
C150  C     C_R   0.761064 0.329203 0.048220 -0.101470
C151  C     C_R   0.713005 0.791709 0.876197 -0.102061
C152  C     C_R   0.238936 0.329204 0.951780 -0.101470
C153  C     C_R   0.786994 0.291709 0.123802 -0.102061
C154  C     C_R   0.261064 0.829204 0.048220 -0.101470
C155  C     C_R   0.213006 0.291709 0.876197 -0.102061
C156  C     C_R   0.738936 0.829204 0.951780 -0.101470
C157  C     C_R   0.644348 0.579782 0.570197 -0.113730
C158  C     C_R   0.321586 0.652655 0.576507 0.027387
C159  C     C_R   0.367658 0.397462 0.426286 -0.147716
C160  C     C_R   0.355652 0.579782 0.429802 -0.113731
C161  C     C_R   0.632342 0.397462 0.573714 -0.147715
C162  C     C_R   0.144348 0.079782 0.570197 -0.113730
C163  C     C_R   0.867658 0.897462 0.426286 -0.147714
C164  C     C_R   0.855652 0.079782 0.429802 -0.113731
C165  C     C_R   0.132342 0.897462 0.573714 -0.147714
C166  C     C_R   0.792650 0.358080 0.022011 0.411589
C167  C     C_R   0.259410 0.767721 0.159763 0.420111
C168  C     C_R   0.207350 0.358080 0.977989 0.411589
Cl1   Cl    Cl    0.529671 0.297121 0.814948 -0.587600
Cl2   Cl    Cl    0.292372 0.743648 0.271773 -0.672241
Cl3   Cl    Cl    0.231808 0.379541 0.088874 -0.686248
Cl4   Cl    Cl    0.707627 0.743649 0.728226 -0.672241
Cl5   Cl    Cl    0.268191 0.879540 0.911125 -0.686248
Cl6   Cl    Cl    0.792372 0.243648 0.271773 -0.672241
Cl7   Cl    Cl    0.731808 0.879541 0.088874 -0.686248
Cl8   Cl    Cl    0.207628 0.243648 0.728226 -0.672241
Cl9   Cl    Cl    0.581631 0.552885 0.319756 -0.588000
Cl10  Cl    Cl    0.426907 0.392988 0.680659 -0.507355
Cl11  Cl    Cl    0.418369 0.552885 0.680244 -0.588000
Cl12  Cl    Cl    0.513238 0.736528 0.297870 -0.675358
Cl13  Cl    Cl    0.573093 0.392988 0.319341 -0.507355
Cl14  Cl    Cl    0.081631 0.052885 0.319756 -0.588000
Cl15  Cl    Cl    0.926907 0.892988 0.680659 -0.507355
Cl16  Cl    Cl    0.918369 0.052885 0.680244 -0.588000
Cl17  Cl    Cl    0.073092 0.892988 0.319341 -0.507355
Cl18  Cl    Cl    0.246252 0.528761 0.380177 -0.584815
Cl19  Cl    Cl    0.702261 0.381640 0.442397 -0.487169
Cl20  Cl    Cl    0.753748 0.528761 0.619823 -0.584815
Cl21  Cl    Cl    0.297739 0.381640 0.557603 -0.487169
Cl22  Cl    Cl    0.746252 0.028761 0.380177 -0.584815
Cl23  Cl    Cl    0.470328 0.297121 0.185052 -0.587600
Cl24  Cl    Cl    0.202261 0.881640 0.442397 -0.487169
Cl25  Cl    Cl    0.253748 0.028761 0.619823 -0.584816
Cl26  Cl    Cl    0.797739 0.881640 0.557603 -0.487169
Cl27  Cl    Cl    0.486762 0.736528 0.702130 -0.675358
Cl28  Cl    Cl    0.029671 0.797121 0.814948 -0.587600
Cl29  Cl    Cl    0.013238 0.236528 0.297870 -0.675358
Cl30  Cl    Cl    0.970328 0.797121 0.185051 -0.587600
Cl31  Cl    Cl    0.986762 0.236528 0.702130 -0.675358
Cl32  Cl    Cl    0.768191 0.379541 0.911125 -0.686248
H1    H     H_    0.500953 0.620559 0.713941 0.195248
H2    H     H_    0.329829 0.687351 0.187791 0.157239
H3    H     H_    0.308215 0.407572 0.083324 0.193697
H4    H     H_    0.670171 0.687351 0.812209 0.157239
H5    H     H_    0.191785 0.907572 0.916675 0.193697
H6    H     H_    0.829829 0.187351 0.187791 0.157239
H7    H     H_    0.808215 0.907572 0.083324 0.193698
H8    H     H_    0.170171 0.187351 0.812209 0.157239
H9    H     H_    0.451571 0.827959 0.183039 0.182677
H10   H     H_    0.602330 0.257584 0.986181 0.190971
H11   H     H_    0.548429 0.827959 0.816961 0.182677
H12   H     H_    0.477540 0.420528 0.229064 0.204593
H13   H     H_    0.397670 0.257584 0.013819 0.190971
H14   H     H_    0.951571 0.327959 0.183039 0.182677
H15   H     H_    0.102330 0.757584 0.986181 0.190971
H16   H     H_    0.048429 0.327959 0.816961 0.182677
H17   H     H_    0.897670 0.757584 0.013818 0.190971
H18   H     H_    0.678137 0.579245 0.637484 0.176055
H19   H     H_    0.338166 0.387035 0.358195 0.163456
H20   H     H_    0.321863 0.579245 0.362516 0.176055
H21   H     H_    0.661833 0.387035 0.641804 0.163456
H22   H     H_    0.178137 0.079245 0.637484 0.176055
H23   H     H_    0.499046 0.620559 0.286059 0.195248
H24   H     H_    0.838167 0.887034 0.358195 0.163456
H25   H     H_    0.821863 0.079245 0.362516 0.176055
H26   H     H_    0.161833 0.887035 0.641804 0.163456
H27   H     H_    0.361343 0.624271 0.296654 0.143466
H28   H     H_    0.656559 0.408411 0.759138 0.169932
H29   H     H_    0.638657 0.624271 0.703346 0.143466
H30   H     H_    0.343441 0.408411 0.240861 0.169932
H31   H     H_    0.861343 0.124271 0.296654 0.143466
H32   H     H_    0.156559 0.908411 0.759138 0.169932
H33   H     H_    0.138657 0.124271 0.703346 0.143466
H34   H     H_    0.522460 0.420528 0.770936 0.204593
H35   H     H_    0.843441 0.908411 0.240861 0.169932
H36   H     H_    0.179037 0.606317 0.397434 0.180772
H37   H     H_    0.728326 0.263069 0.436216 0.190500
H38   H     H_    0.820963 0.606317 0.602566 0.180772
H39   H     H_    0.271674 0.263069 0.563784 0.190500
H40   H     H_    0.679037 0.106317 0.397434 0.180772
H41   H     H_    0.228326 0.763069 0.436216 0.190500
H42   H     H_    0.320963 0.106317 0.602566 0.180772
H43   H     H_    0.771673 0.763069 0.563783 0.190500
H44   H     H_    0.787367 0.211531 0.623650 0.153988
H45   H     H_    0.000953 0.120559 0.713941 0.195248
H46   H     H_    0.151804 0.667157 0.541408 0.152506
H47   H     H_    0.212633 0.211531 0.376350 0.153988
H48   H     H_    0.848196 0.667157 0.458592 0.152506
H49   H     H_    0.287367 0.711531 0.623650 0.153987
H50   H     H_    0.651804 0.167157 0.541408 0.152506
H51   H     H_    0.712633 0.711531 0.376350 0.153988
H52   H     H_    0.348196 0.167157 0.458591 0.152506
H53   H     H_    0.370104 0.723320 0.620097 0.183523
H54   H     H_    0.382560 0.673483 0.699446 0.191254
H55   H     H_    0.564697 0.277221 0.501980 0.131803
H56   H     H_    0.977540 0.920528 0.229064 0.204593
H57   H     H_    0.616256 0.283170 0.608587 0.129213
H58   H     H_    0.629896 0.723320 0.379903 0.183523
H59   H     H_    0.617440 0.673483 0.300554 0.191254
H60   H     H_    0.435302 0.277221 0.498020 0.131803
H61   H     H_    0.383744 0.283170 0.391412 0.129213
H62   H     H_    0.870104 0.223320 0.620097 0.183523
H63   H     H_    0.882560 0.173483 0.699446 0.191254
H64   H     H_    0.064698 0.777221 0.501980 0.131803
H65   H     H_    0.116256 0.783170 0.608587 0.129213
H66   H     H_    0.129896 0.223320 0.379903 0.183523
H67   H     H_    0.999046 0.120559 0.286059 0.195248
H68   H     H_    0.117440 0.173483 0.300555 0.191254
H69   H     H_    0.935303 0.777221 0.498021 0.131803
H70   H     H_    0.883744 0.783169 0.391413 0.129213
H71   H     H_    0.905504 0.417988 0.124021 0.119333
H72   H     H_    0.857987 0.429391 0.019995 0.191523
H73   H     H_    0.189116 0.692604 0.154650 0.162673
H74   H     H_    0.185192 0.757228 0.199249 0.198685
H75   H     H_    0.094496 0.417988 0.875979 0.119333
H76   H     H_    0.142013 0.429391 0.980005 0.191523
H77   H     H_    0.810883 0.692604 0.845349 0.162674
H78   H     H_    0.022460 0.920528 0.770936 0.204593
H79   H     H_    0.814807 0.757228 0.800751 0.198685
H80   H     H_    0.405504 0.917988 0.124021 0.119333
H81   H     H_    0.357987 0.929390 0.019995 0.191523
H82   H     H_    0.689116 0.192604 0.154650 0.162673
H83   H     H_    0.685192 0.257228 0.199249 0.198685
H84   H     H_    0.594496 0.917988 0.875979 0.119333
H85   H     H_    0.642012 0.929391 0.980005 0.191523
H86   H     H_    0.310883 0.192604 0.845350 0.162673
H87   H     H_    0.314807 0.257228 0.800751 0.198685
H88   H     H_    0.691785 0.407572 0.916675 0.193697
N1    N     N_R   0.532910 0.558440 0.665240 -0.055990
N2    N     N_R   0.402970 0.441090 0.454460 -0.072872
N3    N     N_R   0.402970 0.558910 0.454460 -0.074291
N4    N     N_R   0.597030 0.441090 0.545540 -0.072872
N5    N     N_R   0.097030 0.058910 0.545540 -0.074292
N6    N     N_R   0.902970 0.941090 0.454460 -0.072872
N7    N     N_R   0.902970 0.058910 0.454460 -0.074291
N8    N     N_R   0.097030 0.941090 0.545540 -0.072873
N9    N     N_R   0.566200 0.559270 0.454460 -0.094978
N10   N     N_R   0.433800 0.440730 0.545540 -0.103634
N11   N     N_R   0.433800 0.559270 0.545540 -0.094978
N12   N     N_R   0.467090 0.441560 0.334760 -0.071058
N13   N     N_R   0.566200 0.440730 0.454460 -0.103634
N14   N     N_R   0.066200 0.059270 0.454460 -0.094978
N15   N     N_R   0.933800 0.940730 0.545540 -0.103634
N16   N     N_R   0.933800 0.059270 0.545540 -0.094978
N17   N     N_R   0.066200 0.940730 0.454460 -0.103634
N18   N     N_R   0.421050 0.559750 0.334770 -0.052501
N19   N     N_R   0.578950 0.440250 0.665230 -0.058786
N20   N     N_R   0.578950 0.559750 0.665230 -0.052501
N21   N     N_R   0.421050 0.440250 0.334770 -0.058786
N22   N     N_R   0.921050 0.059750 0.334770 -0.052501
N23   N     N_R   0.467090 0.558440 0.334760 -0.055990
N24   N     N_R   0.078950 0.940250 0.665230 -0.058786
N25   N     N_R   0.078950 0.059750 0.665230 -0.052501
N26   N     N_R   0.921050 0.940250 0.334770 -0.058786
N27   N     N_3   0.372459 0.677985 0.634056 -0.158742
N28   N     N_3   0.600328 0.258163 0.550520 -0.192914
N29   N     N_3   0.627540 0.677985 0.365944 -0.158742
N30   N     N_3   0.399672 0.258163 0.449479 -0.192914
N31   N     N_3   0.872459 0.177985 0.634056 -0.158742
N32   N     N_3   0.100328 0.758163 0.550521 -0.192914
N33   N     N_3   0.127540 0.177985 0.365944 -0.158742
N34   N     N_R   0.532910 0.441560 0.665240 -0.071058
N35   N     N_3   0.899672 0.758163 0.449480 -0.192914
N36   N     N_3   0.880263 0.395632 0.064545 -0.170547
N37   N     N_3   0.176551 0.736691 0.140624 -0.190146
N38   N     N_3   0.119737 0.395633 0.935455 -0.170547
N39   N     N_3   0.823449 0.736691 0.859376 -0.190146
N40   N     N_3   0.380263 0.895632 0.064545 -0.170548
N41   N     N_3   0.676551 0.236690 0.140624 -0.190146
N42   N     N_3   0.619737 0.895633 0.935455 -0.170547
N43   N     N_3   0.323449 0.236691 0.859376 -0.190146
N44   N     N_R   0.032910 0.058440 0.665240 -0.055990
N45   N     N_R   0.967090 0.941560 0.334760 -0.071058
N46   N     N_R   0.967090 0.058440 0.334760 -0.055990
N47   N     N_R   0.032910 0.941560 0.665240 -0.071058
N48   N     N_R   0.597030 0.558910 0.545540 -0.074291
Ni1   Ni    Ni4+2 0.483090 0.500000 0.604440 0.301025
Ni2   Ni    Ni4+2 0.516910 0.500000 0.395560 0.301025
Ni3   Ni    Ni4+2 0.983090 0.000000 0.604440 0.301025
Ni4   Ni    Ni4+2 0.016910 0.000000 0.395560 0.301025
Ni5   Ni    Ni4+2 0.586780 0.500000 0.604440 0.239803
Ni6   Ni    Ni4+2 0.413220 0.500000 0.395560 0.239803
Ni7   Ni    Ni4+2 0.086780 0.000000 0.604440 0.239803
Ni8   Ni    Ni4+2 0.913220 0.000000 0.395560 0.239803

loop_
_geom_bond_atom_site_label_1
_geom_bond_atom_site_label_2
_ccdc_geom_bond_type
C61   C70   A    
C31   C42   A    
C100  C127  A    
C132  C150  A    
C5    Cl6   S    
C133  C151  A    
H84   N42   S    
C157  N48   A    
C124  C133  A    
C136  H67   S    
C10   N38   S    
C57   C76   A    
C29   H30   S    
N12   Ni2   S    
C52   C61   A    
C48   C162  A    
C54   C63   A    
C106  H10   S    
H82   N41   S    
C131  C140  A    
C134  C143  A    
C116  Cl27  S    
C80   H51   S    
C149  C167  A    
C97   C115  A    
C110  C145  A    
C108  H13   S    
H58   N29   S    
C21   C48   A    
C22   Cl15  S    
C45   C160  A    
C42   C147  A    
C56   H40   S    
C109  C118  A    
C165  N8    A    
C25   N17   A    
C50   C164  A    
C161  N4    A    
C54   H38   S    
N24   Ni7   S    
C83   H44   S    
C37   C96   S    
C17   C43   A    
C18   C44   A    
C15   C142  A    
C26   H27   S    
C41   C100  S    
C1    N1    A    
N23   Ni2   S    
C47   C71   S    
N6    N15   A    
C25   Cl17  S    
C22   C49   A    
C46   C84   A    
C103  H34   S    
C4    Cl5   S    
C131  C149  A    
C2    C71   A    
C19   Cl11  S    
C163  N6    A    
C52   H36   S    
H69   N35   S    
C17   Cl9   S    
C68   C77   A    
C60   H43   S    
N5    Ni7   S    
C13   C72   A    
N4    Ni5   S    
C83   C91   A    
C106  C115  A    
C158  N27   S    
C12   N40   S    
C105  C140  A    
H71   N36   S    
C157  H18   S    
C57   C85   A    
H61   N30   S    
C22   N15   A    
C36   C99   S    
C84   C93   A    
C24   C73   A    
C114  N44   A    
C20   C47   A    
C3    C11   A    
C123  H88   S    
C60   C95   A    
C126  C134  A    
C10   C168  A    
C44   C159  A    
C164  N7    A    
C78   C87   A    
C30   H31   S    
C123  C132  A    
C48   C76   S    
C69   C77   A    
N13   Ni2   S    
C101  C128  A    
H55   N28   S    
C98   C124  A    
C133  C142  A    
C33   N26   A    
N24   N47   A    
N25   N44   A    
C105  C113  A    
H54   N27   S    
C8    N36   S    
C55   C90   A    
C50   C74   S    
C11   C148  A    
C114  H45   S    
C150  C166  A    
C120  Cl31  S    
C84   H46   S    
N2    Ni6   S    
C59   C67   A    
H87   N43   S    
C78   C158  A    
C168  Cl3   S    
C57   N33   S    
C66   Cl24  S    
C64   C73   A    
C30   C41   A    
C164  H25   S    
C2    C79   A    
N15   Ni3   S    
C109  C144  A    
C28   N20   A    
C46   C75   A    
C1    C34   A    
C99   C126  A    
H59   N29   S    
C21   Cl14  S    
C17   N9    A    
C139  C148  A    
C33   C40   A    
C15   N42   S    
C109  H14   S    
C86   C95   A    
C111  C146  A    
C53   H37   S    
C129  H8    S    
C65   C74   A    
N6    Ni8   S    
H62   N31   S    
C38   C103  A    
C99   C117  A    
C16   N43   S    
C88   C91   S    
C36   C81   A    
C7    Cl8   S    
C113  Cl12  S    
N4    N13   A    
H81   N40   S    
C63   C72   A    
C10   C146  A    
N14   Ni4   S    
C26   N18   A    
C79   H50   S    
C51   C165  A    
C4    C12   A    
C42   C101  S    
C122  C131  A    
C39   C102  S    
H66   N33   S    
C132  C141  A    
C37   C92   A    
C108  C117  A    
C43   C157  A    
C110  C119  A    
C19   C45   A    
C126  H3    S    
N18   N23   A    
C159  N2    A    
C112  C121  A    
C97   C123  A    
N22   Ni8   S    
C160  H20   S    
C60   C69   A    
C138  C146  A    
C40   C125  A    
C87   C93   S    
C49   C77   S    
C62   C71   A    
C2    N28   S    
C121  Cl30  S    
C49   C163  A    
N18   Ni6   S    
C14   N41   S    
N46   Ni4   S    
C18   Cl10  S    
C85   H47   S    
H75   N38   S    
N1    Ni1   S    
C6    C156  A    
C46   N32   S    
C20   Cl13  S    
C92   N23   A    
C138  C155  A    
C4    C154  A    
C35   C74   A    
C103  N34   A    
H65   N32   S    
N2    N10   A    
C1    H1    S    
N19   Ni5   S    
C64   Cl21  S    
C163  H24   S    
C59   H42   S    
N17   Ni4   S    
C137  C145  A    
C58   C93   A    
C127  C135  A    
N3    Ni6   S    
C3    Cl4   S    
C107  H11   S    
C6    Cl7   S    
C27   C38   A    
N8    Ni7   S    
N8    N17   A    
C105  H9    S    
C21   N14   A    
C32   C39   A    
C80   C89   A    
C23   N16   A    
C117  Cl23  S    
N12   N21   A    
C56   C91   A    
C150  C153  A    
H70   N35   S    
C12   C140  A    
C59   C94   A    
C162  N5    A    
C33   H35   S    
C13   C80   A    
C28   C34   A    
C104  C130  A    
H76   N38   S    
C29   N21   A    
C130  C139  A    
N44   Ni3   S    
C79   C88   A    
C152  C168  A    
C90   C94   S    
C32   H33   S    
C16   C143  A    
C13   N29   S    
C111  H16   S    
C81   N12   A    
C35   C83   A    
C23   C50   A    
C35   N31   S    
H85   N42   S    
N25   Ni7   S    
C70   C158  A    
N19   N34   A    
C89   C95   S    
C125  H56   S    
C149  C154  A    
C152  C155  A    
C134  C152  A    
C31   H32   S    
C151  C156  A    
H63   N31   S    
C5    C14   A    
C7    C16   A    
C124  H4    S    
C159  H19   S    
C18   N10   A    
C96   C113  A    
H57   N28   S    
C100  C118  A    
C128  H5    S    
C147  H78   S    
C102  C120  A    
C106  C141  A    
C82   H52   S    
N20   Ni5   S    
C86   H48   S    
C45   C70   S    
C92   H23   S    
N26   Ni8   S    
C26   C37   A    
C20   N13   A    
C82   C90   A    
N16   Ni3   S    
C96   C122  A    
H53   N27   S    
C122  H2    S    
C110  H15   S    
C32   N25   A    
C66   C75   A    
C9    C145  A    
C69   Cl26  S    
C34   C98   S    
C27   N19   A    
C137  C154  A    
C44   C73   S    
C47   C161  A    
C81   H12   S    
C7    C155  A    
C65   Cl22  S    
C78   H49   S    
H83   N41   S    
C28   H29   S    
C108  C143  A    
C62   Cl19  S    
C147  N47   A    
H73   N37   S    
C43   C72   S    
C68   C86   A    
C102  C129  A    
C115  Cl1   S    
N9    N48   A    
N1    N20   A    
C29   C36   A    
H77   N39   S    
C125  N45   A    
C127  H6    S    
C51   C75   S    
C68   N35   S    
C27   H28   S    
N9    Ni2   S    
C56   C65   A    
H60   N30   S    
C119  Cl28  S    
C24   C82   A    
C165  H26   S    
C24   N30   S    
C130  H7    S    
N26   N45   A    
C6    C15   A    
C58   C66   A    
C129  C138  A    
C162  H22   S    
C112  H17   S    
N3    N11   A    
H74   N37   S    
C14   C141  A    
N10   Ni1   S    
N7    Ni8   S    
C38   C97   S    
C167  Cl2   S    
C107  C116  A    
C101  C119  A    
H79   N39   S    
C9    C167  A    
C54   C89   A    
C104  C121  A    
N45   Ni4   S    
C112  C148  A    
C161  H21   S    
C111  C120  A    
C58   H41   S    
C128  C137  A    
C25   C51   A    
N48   Ni5   S    
C40   C104  S    
C85   C94   A    
C98   C116  A    
C39   C114  A    
C55   C64   A    
C8    C144  A    
C107  C142  A    
C136  N46   A    
C30   N22   A    
N21   Ni6   S    
C8    C166  A    
H64   N32   S    
H72   N36   S    
C135  C144  A    
C9    N37   S    
N11   Ni1   S    
C11   N39   S    
C160  N3    A    
H80   N40   S    
C52   C87   A    
C31   N24   A    
H68   N33   S    
C3    C151  A    
C135  C153  A    
C23   Cl16  S    
N34   Ni1   S    
N47   Ni3   S    
H86   N43   S    
C139  C156  A    
C5    C153  A    
C61   Cl18  S    
C19   N11   A    
C53   C88   A    
C166  Cl32  S    
C53   C62   A    
C63   Cl20  S    
C67   C76   A    
C55   H39   S    
N5    N14   A    
C67   Cl25  S    
C118  Cl29  S    
C41   C136  A    
N7    N16   A    
N22   N46   A    
