data_mof_unit_9098.cif
_audit_creation_date              2012-12-10T17:32:14-0500
_audit_creation_method            fapswitch 2.2
_symmetry_space_group_name_H-M    P1
_symmetry_Int_Tables_number       1
_space_group_crystal_system       triclinic
_cell_length_a                    12.364675
_cell_length_b                    13.315573
_cell_length_c                    15.077251
_cell_angle_alpha                 76.67699
_cell_angle_beta                  101.615373
_cell_angle_gamma                 117.227166
_cell_volume                      2134.67071365

loop_
_atom_site_label
_atom_site_type_symbol
_atom_type_description
_atom_site_fract_x
_atom_site_fract_y
_atom_site_fract_z
_atom_type_partial_charge
C1    C     C_R   0.854865 0.286657 0.510635 0.867735
C2    C     C_R   0.097293 0.494841 0.109950 0.091602
C3    C     C_R   0.797223 0.499292 0.011553 -0.122258
C4    C     C_R   0.798058 0.499882 0.919202 -0.175927
C5    C     C_R   0.897820 0.498824 0.889688 0.102626
C6    C     C_R   0.997651 0.496617 0.953413 0.095528
C7    C     C_R   0.098165 0.494896 0.924169 0.097624
C8    C     C_R   0.197135 0.493019 0.987878 -0.181886
C9    C     C_R   0.196763 0.493116 0.080276 -0.137455
C10   C     C_R   0.899452 0.500092 0.797384 -0.169955
C11   C     C_R   0.999155 0.498366 0.768074 -0.069542
C12   C     C_R   0.999739 0.499468 0.671118 0.840770
C13   C     C_R   0.098039 0.495383 0.831604 -0.197921
C14   C     C_R   0.291624 0.983540 0.585423 -0.133393
C15   C     C_R   0.228410 0.830838 0.498991 -0.042518
C16   C     C_R   0.809247 0.113469 0.450279 -0.183551
C17   C     C_R   0.725027 0.011509 0.420548 -0.123360
C18   C     C_R   0.603951 0.963250 0.439102 -0.127423
C19   C     C_R   0.566160 0.012995 0.493259 0.012779
C20   C     C_R   0.656193 0.110626 0.531301 -0.042114
C21   C     C_R   0.442540 0.969543 0.511292 0.070015
C22   C     C_R   0.413221 0.021426 0.569529 0.033554
C23   C     C_R   0.145280 0.712782 0.489349 0.799779
C24   C     C_R   0.506138 0.105848 0.615957 -0.257322
C25   C     C_R   0.626721 0.148631 0.598809 0.575061
C26   C     C_R   0.347347 0.874004 0.476113 -0.178996
C27   C     C_R   0.199298 0.888746 0.549859 -0.182275
C28   C     C_R   0.774608 0.166053 0.502640 -0.043460
C29   C     C_R   0.350839 0.336872 0.652389 0.492393
C30   C     C_R   0.755501 0.637036 0.369407 0.776517
C31   C     C_R   0.650910 0.652176 0.331587 -0.414054
C32   C     C_R   0.545189 0.594037 0.375662 0.614227
C33   C     C_R   0.546556 0.527624 0.463820 -0.050909
C34   C     C_R   0.999271 0.499306 0.328824 0.855292
C35   C     C_R   0.653042 0.507278 0.495550 -0.008641
C36   C     C_R   0.445711 0.474584 0.519276 -0.233677
C37   C     C_R   0.451087 0.396643 0.600593 -0.296463
C38   C     C_R   0.556815 0.380030 0.629607 0.640748
C39   C     C_R   0.651928 0.429897 0.575821 -0.205551
C40   C     C_R   0.342189 0.499123 0.501814 0.722195
C41   C     C_R   0.247756 0.357097 0.625734 0.583472
C42   C     C_R   0.096642 0.495453 0.202100 -0.280885
C43   C     C_R   0.997240 0.497578 0.231684 -0.203241
C44   C     C_R   0.896673 0.498092 0.168222 0.588380
C45   C     C_R   0.896383 0.497884 0.075605 -0.018747
C46   C     C_R   0.997079 0.496393 0.046399 -0.012491
Cu1   Cu    Cu3+1 0.098270 0.475420 0.521130 1.068202
Cu2   Cu    Cu3+1 0.901730 0.524580 0.478870 1.043978
H1    H     H_    0.542992 0.886843 0.410494 0.160217
H2    H     H_    0.175409 0.494355 0.809067 0.177789
N1    N     N_R   0.246280 0.438190 0.553160 -0.338800
N2    N     N_R   0.754320 0.561190 0.447410 -0.251311
O1    O     O_R   0.972510 0.318130 0.526570 -0.543378
O2    O     O_R   0.806530 0.359650 0.490890 -0.591567
O3    O     O_R   0.082980 0.479210 0.647590 -0.539252
O4    O     O_R   0.917000 0.520730 0.611900 -0.625414
O5    O     O_R   0.193470 0.640350 0.509110 -0.538570
O6    O     O_R   0.027490 0.681870 0.473430 -0.547818
O7    O     O_R   0.083000 0.479270 0.388100 -0.566928
O8    O     O_R   0.917020 0.520790 0.352410 -0.472365
H3    H     H_    0.174233 0.495124 0.250664 0.238493
H4    H     H_    0.484900 0.135475 0.668139 0.252686
H5    H     H_    0.268948 0.023855 0.629096 0.178509
H6    H     H_    0.363476 0.826727 0.435190 0.175004
H7    H     H_    0.900063 0.154379 0.428303 0.151701
H8    H     H_    0.752350 0.972274 0.379180 0.156200
F1    F     F_    0.715804 0.219768 0.653927 -0.654578
F2    F     F_    0.150351 0.298782 0.674721 -0.587214
F3    F     F_    0.571508 0.318408 0.712621 -0.606379
F4    F     F_    0.351222 0.257923 0.727655 -0.568192
F5    F     F_    0.798429 0.497622 0.196138 -0.638810
F6    F     F_    0.340249 0.590645 0.441293 -0.598790
F7    F     F_    0.856376 0.693191 0.324141 -0.611801
F8    F     F_    0.441112 0.593635 0.325497 -0.619243
H9    H     H_    0.650033 0.705234 0.265407 0.210080
H10   H     H_    0.722922 0.403676 0.598685 0.259406
H11   H     H_    0.718986 0.500321 0.032534 0.207597
H12   H     H_    0.720756 0.501274 0.870841 0.177972
H13   H     H_    0.822708 0.501954 0.748566 0.176694
H14   H     H_    0.274843 0.491724 0.966211 0.162647
H15   H     H_    0.274239 0.491943 0.128507 0.181349
H16   H     H_    0.107573 0.855029 0.568728 0.155602

loop_
_geom_bond_atom_site_label_1
_geom_bond_atom_site_label_2
_ccdc_geom_bond_type
C16   C28   A    
C23   O6    A    
C21   C26   A    
C19   C20   A    
C25   F1    S    
C1    O2    A    
C7    C8    A    
C45   C46   A    
C2    C46   A    
Cu2   O2    S    
C17   H8    S    
C36   C37   A    
C19   C21   A    
C32   F8    S    
C38   C39   A    
C20   C25   A    
C33   C36   A    
C44   F5    S    
C23   O5    A    
C18   C19   A    
C1    O1    A    
C26   H6    S    
C15   C27   A    
C31   C32   A    
C8    C9    A    
C1    C28   S    
C14   C27   A    
C6    C46   A    
Cu1   O1    S    
C15   C23   S    
C38   F3    S    
C21   C22   A    
C34   O8    A    
Cu2   O8    S    
C41   F2    S    
C36   C40   A    
C24   C25   A    
C30   F7    S    
C16   C17   A    
C15   C26   A    
Cu1   N1    S    
C20   C28   A    
C3    C45   A    
C35   C39   A    
C43   C44   A    
C4    H12   S    
C37   C38   A    
Cu1   O5    S    
C31   H9    S    
Cu1   Cu2   S    
C7    C13   A    
C30   C31   A    
C11   C12   S    
C17   C18   A    
C39   H10   S    
C42   H3    S    
C12   O4    A    
C34   O7    A    
C22   C24   A    
C42   C43   A    
C3    C4    A    
C3    H11   S    
C44   C45   A    
Cu1   O3    S    
C29   F4    S    
Cu2   O4    S    
C30   N2    A    
C24   H4    S    
C40   F6    S    
C29   C41   A    
C27   H16   S    
C34   C43   S    
C4    C5    A    
C10   H13   S    
Cu2   O6    S    
C6    C7    A    
C40   N1    A    
C32   C33   A    
C14   C22   A    
C5    C10   A    
C11   C13   A    
C5    C6    A    
C2    C42   A    
C14   H5    S    
C33   C35   A    
C12   O3    A    
C10   C11   A    
Cu1   O7    S    
C13   H2    S    
Cu2   N2    S    
C29   C37   A    
C35   N2    A    
C8    H14   S    
C16   H7    S    
C2    C9    A    
C41   N1    A    
C18   H1    S    
C9    H15   S    
