data_mof_unit_59820.cif
_audit_creation_date              2012-12-11T16:56:13-0500
_audit_creation_method            fapswitch 2.2
_symmetry_space_group_name_H-M    P1
_symmetry_Int_Tables_number       1
_space_group_crystal_system       triclinic
_cell_length_a                    6.959499
_cell_length_b                    14.533721
_cell_length_c                    16.196038
_cell_angle_alpha                 90.460835
_cell_angle_beta                  90.07249
_cell_angle_gamma                 90.000649
_cell_volume                      1638.13310616

loop_
_atom_site_label
_atom_site_type_symbol
_atom_type_description
_atom_site_fract_x
_atom_site_fract_y
_atom_site_fract_z
_atom_type_partial_charge
O1    O     O_R   0.505830 0.583360 0.413880 -0.546138
O2    O     O_R   0.175830 0.595460 0.585520 -0.545965
O3    O     O_R   0.005520 0.416640 0.586120 -0.543095
C1    C     C_R   0.344718 0.617441 0.614420 0.701260
O4    O     O_R   0.176120 0.594390 0.414490 -0.498875
O5    O     O_R   0.005810 0.415570 0.413870 -0.537863
C2    C     C_R   0.344691 0.615917 0.385631 0.784956
O6    O     O_R   0.505540 0.584430 0.586130 -0.537930
O7    O     O_3   0.339200 0.441330 0.500000 -0.384508
V1    V     V_3+5 0.064350 0.510880 0.500000 1.517298
O8    O     O_R   0.676100 0.404540 0.414480 -0.548233
C3    C     C_R   0.845084 0.382145 0.386080 0.708967
O9    O     O_R   0.675810 0.405610 0.585510 -0.543872
C4    C     C_R   0.845228 0.383006 0.612858 0.731364
V2    V     V_3+5 0.564340 0.489120 0.500000 1.457544
O10   O     O_3   0.839360 0.558670 0.500000 -0.353719
C5    C     C_2   0.724112 0.205582 0.782108 0.504406
C6    C     C_2   0.883814 0.187073 0.827126 0.323717
C7    C     C_2   0.711510 0.279993 0.719665 -0.155231
C8    C     C_2   0.862081 0.310964 0.676000 -0.336482
H1    H     H_    0.569067 0.306779 0.706577 0.175701
H2    H     H_    0.003715 0.281644 0.684502 0.213278
C9    C     C_R   0.726064 0.245500 0.191437 0.117670
C10   C     C_R   0.882639 0.185542 0.183455 -0.106295
C11   C     C_R   0.034977 0.196463 0.239996 -0.167328
H3    H     H_    0.158248 0.151484 0.236509 0.132430
C12   C     C_R   0.023121 0.260772 0.305409 -0.167183
H4    H     H_    0.138772 0.264289 0.349942 0.129661
C13   C     C_R   0.857922 0.315525 0.316544 -0.101544
C14   C     C_R   0.713929 0.308847 0.256356 0.122185
C15   C     C_3   0.504184 0.292448 0.266765 -0.423685
C16   C     C_3   0.517312 0.223802 0.195772 -0.398951
H5    H     H_    0.417292 0.354305 0.251809 0.187900
H6    H     H_    0.471038 0.259880 0.326942 0.172491
H7    H     H_    0.438620 0.246120 0.139622 0.187978
H8    H     H_    0.490998 0.151505 0.214625 0.167460
C17   C     C_R   0.507997 0.681774 0.741277 0.111228
C18   C     C_R   0.353182 0.682215 0.685795 -0.105222
C19   C     C_R   0.201371 0.743510 0.702993 -0.162610
H9    H     H_    0.078568 0.746331 0.662250 0.145551
C20   C     C_R   0.212582 0.806353 0.769661 -0.158803
H10   H     H_    0.097524 0.855467 0.778257 0.131378
C21   C     C_R   0.376264 0.810135 0.821093 -0.112451
C22   C     C_R   0.519590 0.744241 0.806989 0.103164
C23   C     C_3   0.730014 0.757284 0.795223 -0.412820
C24   C     C_3   0.717547 0.688892 0.723981 -0.395070
H11   H     H_    0.814930 0.731458 0.848388 0.177520
H12   H     H_    0.765188 0.828301 0.775290 0.176255
H13   H     H_    0.794547 0.623351 0.736101 0.171818
H14   H     H_    0.746262 0.720001 0.662744 0.188113
C25   C     C_R   0.496293 0.752554 0.316384 -0.010103
C26   C     C_R   0.351932 0.685350 0.318847 -0.265117
C27   C     C_R   0.209643 0.688326 0.256583 0.622900
C28   C     C_R   0.220842 0.752902 0.192048 -0.254821
H15   H     H_    0.112592 0.751353 0.143982 0.145164
C29   C     C_R   0.377392 0.814172 0.186194 -0.160633
C30   C     C_R   0.509828 0.814571 0.251398 0.007218
C31   C     C_3   0.723876 0.809531 0.250171 -0.423794
C32   C     C_3   0.708903 0.742336 0.321431 0.537824
H16   H     H_    0.791695 0.876199 0.267518 0.194590
H17   H     H_    0.779324 0.777379 0.192463 0.144464
H18   H     H_    0.758073 0.671355 0.307355 0.124222
O11   O     O_R   0.229930 0.912420 0.917160 -0.545657
O12   O     O_R   0.559420 0.902500 0.088780 -0.545117
O13   O     O_R   0.729660 0.081330 0.089380 -0.543142
C33   C     C_R   0.390450 0.880459 0.117185 0.714056
O14   O     O_R   0.559650 0.901420 0.917750 -0.540265
O15   O     O_R   0.729880 0.080250 0.917130 -0.517813
C34   C     C_R   0.390514 0.879609 0.888687 0.721955
O16   O     O_R   0.229700 0.913500 0.089410 -0.548417
O17   O     O_3   0.396250 0.055540 0.003280 -0.350652
V3    V     V_3+5 0.671130 0.986010 0.003260 1.463705
O18   O     O_R   0.059600 0.091310 0.917720 -0.503101
C35   C     C_R   0.890550 0.113835 0.890057 0.711708
O19   O     O_R   0.059370 0.092380 0.088750 -0.546199
C36   C     C_R   0.890686 0.114559 0.117343 0.685190
V4    V     V_3+5 0.171120 0.007820 0.003230 1.499927
O20   O     O_3   0.896130 0.938240 0.003240 -0.387297
F1    F     F_    0.560175 0.156781 0.795012 -0.668299
F2    F     F_    0.069390 0.623631 0.253807 -0.717529
F3    F     F_    0.044742 0.239349 0.819281 -0.683224
F4    F     F_    0.780702 0.778436 0.394542 -0.659167

loop_
_geom_bond_atom_site_label_1
_geom_bond_atom_site_label_2
_ccdc_geom_bond_type
C3    C13   S    
C12   C13   A    
C20   H10   S    
C7    C8    D    
C32   F4    S    
C1    O6    A    
C19   C20   A    
C33   O16   A    
C27   C28   A    
C26   C27   A    
C24   H13   S    
C17   C18   A    
O13   C36   A    
C16   H8    S    
C7    H1    S    
C2    C26   S    
O5    C3    A    
C18   C19   A    
C31   H16   S    
V2    O10   S    
C5    F1    S    
C6    F3    S    
C29   C30   A    
O14   V3    S    
O18   C35   A    
V3    O20   S    
O8    V2    S    
O11   C34   A    
C9    C10   A    
C15   H5    S    
C25   C30   A    
O7    V1    S    
C31   H17   S    
C6    C35   S    
O9    C4    A    
O16   V4    S    
C20   C21   A    
C11   H3    S    
C23   H11   S    
C28   C29   A    
C25   C26   A    
C9    C14   A    
C4    C8    S    
C27   F2    S    
C10   C11   A    
C19   H9    S    
O4    C2    A    
C10   C36   S    
C31   C32   S    
V4    O20   S    
O14   C34   A    
O12   C33   A    
O2    C1    A    
O19   C36   A    
C16   H7    S    
C13   C14   A    
C15   C16   S    
O15   V3    S    
C5    C6    D    
C15   H6    S    
O19   V4    S    
O3    C4    A    
O1    V2    S    
C1    C18   S    
O6    V2    S    
O9    V2    S    
C21   C22   A    
C25   C32   S    
O2    V1    S    
O17   V4    S    
C22   C23   S    
O11   V4    S    
C23   H12   S    
C28   H15   S    
C32   H18   S    
O1    C2    A    
C8    H2    S    
O5    V1    S    
O8    C3    A    
C11   C12   A    
O13   V3    S    
C24   H14   S    
C9    C16   S    
C17   C22   A    
O7    V2    S    
O17   V3    S    
O3    V1    S    
V1    O10   S    
C30   C31   S    
C14   C15   S    
C29   C33   S    
C5    C7    S    
O12   V3    S    
C23   C24   S    
O4    V1    S    
C21   C34   S    
C12   H4    S    
O18   V4    S    
C17   C24   S    
O15   C35   A    
