data_mof_unit_57930.cif
_audit_creation_date              2012-12-10T19:25:38-0500
_audit_creation_method            fapswitch 2.2
_symmetry_space_group_name_H-M    P1
_symmetry_Int_Tables_number       1
_space_group_crystal_system       triclinic
_cell_length_a                    17.810695
_cell_length_b                    16.448824
_cell_length_c                    14.992605
_cell_angle_alpha                 89.80325
_cell_angle_beta                  89.421141
_cell_angle_gamma                 89.396075
_cell_volume                      4391.81587386

loop_
_atom_site_label
_atom_site_type_symbol
_atom_type_description
_atom_site_fract_x
_atom_site_fract_y
_atom_site_fract_z
_atom_type_partial_charge
C1    C     C_R   0.355192 0.500588 0.507892 0.979225
C2    C     C_R   0.644737 0.499533 0.491778 0.963098
C3    C     C_R   0.372683 0.564006 0.046702 0.452165
C4    C     C_R   0.639620 0.508092 0.953455 0.451872
C5    C     C_R   0.845911 0.574296 0.490754 0.310668
C6    C     C_R   0.155239 0.423391 0.512445 0.306197
C7    C     C_R   0.153398 0.568087 0.475982 0.321168
C8    C     C_R   0.845351 0.428104 0.519630 0.266028
C9    C     C_R   0.768569 0.572165 0.469976 0.172798
C10   C     C_R   0.232202 0.428113 0.533615 0.317965
C11   C     C_R   0.229242 0.574070 0.500644 0.194231
C12   C     C_R   0.769569 0.424789 0.494862 0.271417
C13   C     C_R   0.728492 0.498510 0.482813 -0.317522
C14   C     C_R   0.271371 0.501618 0.516857 -0.331554
C15   C     C_R   0.884816 0.501070 0.509037 -0.227736
C16   C     C_R   0.115150 0.494830 0.490492 -0.242738
C17   C     C_1   0.966152 0.498237 0.503462 0.240432
C18   C     C_1   0.033801 0.496097 0.496356 0.246642
C19   C     C_R   0.529409 0.827683 0.573376 0.303705
C20   C     C_R   0.527759 0.171252 0.425874 0.248746
C21   C     C_R   0.472762 0.829526 0.427019 0.308512
C22   C     C_R   0.474398 0.171442 0.575270 0.246703
C23   C     C_R   0.527553 0.741983 0.571419 0.056213
C24   C     C_R   0.525802 0.257000 0.427333 0.064701
C25   C     C_R   0.473784 0.743727 0.428372 0.098596
C26   C     C_R   0.475088 0.257161 0.573098 0.110191
C27   C     C_R   0.501159 0.873077 0.500435 -0.148652
C28   C     C_R   0.501309 0.126871 0.500713 -0.122478
C29   C     C_1   0.501426 0.962762 0.500777 0.248419
C30   C     C_1   0.501467 0.037182 0.500843 0.247415
C31   C     C_R   0.498037 0.500126 0.328729 0.968153
C32   C     C_R   0.502618 0.499758 0.671402 0.955052
C33   C     C_R   0.568133 0.479698 0.815516 0.219592
C34   C     C_R   0.430627 0.510277 0.185721 0.232482
C35   C     C_R   0.502600 0.500330 0.768255 -0.216204
C36   C     C_R   0.498414 0.501121 0.232153 -0.220785
C37   C     C_R   0.437015 0.526621 0.812442 0.374085
C38   C     C_R   0.567747 0.496192 0.187624 0.366312
C39   C     C_R   0.436463 0.532144 0.906253 -0.040800
C40   C     C_R   0.569931 0.502632 0.093939 -0.039648
C41   C     C_R   0.503335 0.515943 0.953244 -0.023519
C42   C     C_R   0.502342 0.515988 0.047200 -0.025250
C43   C     C_R   0.571437 0.500186 0.906639 -0.097115
C44   C     C_R   0.433853 0.529581 0.093983 -0.088877
C45   C     C_R   0.373350 0.561240 0.953660 -0.197934
C46   C     C_R   0.638252 0.504716 0.046427 -0.197845
Cu1   Cu    Cu3+1 0.500000 0.580420 0.500000 1.083855
Cu2   Cu    Cu3+1 0.500000 0.419580 0.500000 1.122901
H1    H     H_    0.325782 0.587114 0.918942 0.211866
H2    H     H_    0.691006 0.509789 0.081023 0.209661
H3    H     H_    0.549360 0.707699 0.627133 0.187999
H4    H     H_    0.545346 0.290431 0.369810 0.179858
H5    H     H_    0.452858 0.710813 0.371786 0.187285
H6    H     H_    0.454774 0.290750 0.630198 0.184965
N1    N     N_R   0.500000 0.701220 0.500000 -0.229983
N2    N     N_R   0.500000 0.298780 0.500000 -0.213631
O1    O     O_R   0.391260 0.567930 0.500000 -0.564015
O2    O     O_R   0.608740 0.432070 0.500000 -0.509263
O3    O     O_R   0.608740 0.567930 0.500000 -0.576055
O4    O     O_R   0.391260 0.432070 0.500000 -0.514348
O5    O     O_R   0.499990 0.567920 0.370260 -0.582308
O6    O     O_R   0.500010 0.432080 0.629740 -0.563636
O7    O     O_R   0.500010 0.567920 0.629740 -0.580969
O8    O     O_R   0.499990 0.432080 0.370260 -0.586998
S1    S     S_3+6 0.635047 0.410390 0.767295 0.099969
O9    O     O_2   0.682499 0.453789 0.699214 -0.221380
O10   O     O_2   0.684730 0.373069 0.837015 -0.195240
O11   O     O_3   0.590875 0.333782 0.716626 -0.476558
H7    H     H_    0.558743 0.309313 0.763646 0.333800
S2    S     S_3+6 0.346386 0.472418 0.235849 0.066105
O12   O     O_2   0.311112 0.536045 0.294882 -0.240305
O13   O     O_2   0.291345 0.447667 0.165940 -0.199105
O14   O     O_3   0.365435 0.390045 0.298701 -0.497842
H8    H     H_    0.389130 0.350519 0.257107 0.350179
O15   O     O_3   0.374176 0.543188 0.761830 -0.665075
H9    H     H_    0.329404 0.523013 0.794280 0.351816
O16   O     O_3   0.631387 0.482518 0.237802 -0.675218
H10   H     H_    0.666077 0.446539 0.203835 0.347422
S3    S     S_3+6 0.307190 0.632623 0.096661 0.101372
O17   O     O_2   0.233269 0.591629 0.112693 -0.164476
O18   O     O_2   0.336913 0.664537 0.183033 -0.228845
O19   O     O_3   0.293197 0.711506 0.026866 -0.496450
H11   H     H_    0.257986 0.748303 0.059117 0.397884
S4    S     S_3+6 0.721859 0.548889 0.903251 0.103554
O20   O     O_2   0.781652 0.484229 0.894283 -0.173783
O21   O     O_2   0.705011 0.585070 0.813372 -0.234465
O22   O     O_3   0.754298 0.622629 0.969608 -0.487905
H12   H     H_    0.800032 0.642724 0.938939 0.403561
S5    S     S_3+6 0.892134 0.668601 0.506954 0.129481
O23   O     O_2   0.953236 0.658626 0.574679 -0.232803
O24   O     O_2   0.925623 0.696316 0.419856 -0.159276
O25   O     O_3   0.831694 0.740036 0.544607 -0.454999
H13   H     H_    0.860699 0.791082 0.544592 0.409701
S6    S     S_3+6 0.111302 0.327587 0.498665 0.141783
O26   O     O_2   0.073637 0.303483 0.584666 -0.160554
O27   O     O_2   0.053742 0.333779 0.426255 -0.237127
O28   O     O_3   0.174164 0.255397 0.469169 -0.421000
H14   H     H_    0.145754 0.203954 0.470191 0.400330
S7    S     S_3+6 0.111041 0.646058 0.410270 0.145210
O29   O     O_2   0.052420 0.610422 0.350947 -0.228122
O30   O     O_2   0.075289 0.709048 0.469658 -0.153615
O31   O     O_3   0.176216 0.690600 0.345242 -0.435421
H15   H     H_    0.148854 0.734166 0.312912 0.404324
S8    S     S_3+6 0.885807 0.346919 0.581977 0.145331
O32   O     O_2   0.926214 0.289022 0.520536 -0.177918
O33   O     O_2   0.940266 0.380169 0.648193 -0.216714
O34   O     O_3   0.818487 0.296661 0.638201 -0.392252
H16   H     H_    0.845131 0.251536 0.668783 0.403023
S9    S     S_3+6 0.726108 0.655633 0.410939 0.142803
O35   O     O_2   0.783576 0.700306 0.356283 -0.133684
O36   O     O_2   0.667623 0.624904 0.348238 -0.216828
O37   O     O_3   0.685158 0.721496 0.482515 -0.449407
H17   H     H_    0.689145 0.695915 0.542188 0.360190
S10   S     S_3+6 0.274911 0.349171 0.598484 0.094234
O38   O     O_2   0.312396 0.288836 0.537096 -0.228400
O39   O     O_2   0.332401 0.384519 0.659549 -0.315344
O40   O     O_3   0.211133 0.300956 0.662197 -0.426862
H18   H     H_    0.238736 0.254365 0.688732 0.411756
S11   S     S_3+6 0.264259 0.671740 0.531264 0.141460
O41   O     O_2   0.201037 0.726165 0.562027 -0.141338
O42   O     O_2   0.318462 0.663668 0.607094 -0.209996
O43   O     O_3   0.307405 0.716440 0.444019 -0.439547
H19   H     H_    0.317331 0.672509 0.400398 0.376127
S12   S     S_3+6 0.733059 0.330075 0.457482 0.124572
O44   O     O_2   0.688065 0.291046 0.531049 -0.149452
O45   O     O_2   0.683320 0.344374 0.378424 -0.294923
O46   O     O_3   0.801710 0.265336 0.425636 -0.396260
H20   H     H_    0.825398 0.291385 0.372897 0.367580
S13   S     S_3+6 0.566167 0.875426 0.668697 0.085431
O47   O     O_2   0.617153 0.943471 0.641060 -0.218212
O48   O     O_2   0.501999 0.909153 0.723386 -0.179052
O49   O     O_3   0.614722 0.807862 0.730498 -0.505488
H21   H     H_    0.630817 0.838662 0.783526 0.408910
S14   S     S_3+6 0.562093 0.122082 0.328764 0.106790
O50   O     O_2   0.614123 0.053402 0.353847 -0.167964
O51   O     O_2   0.496948 0.088296 0.278456 -0.211850
O52   O     O_3   0.609033 0.187601 0.262810 -0.447308
H22   H     H_    0.569977 0.215679 0.227182 0.347328
S15   S     S_3+6 0.437308 0.879760 0.331639 0.095939
O53   O     O_2   0.387722 0.950028 0.359087 -0.223744
O54   O     O_2   0.502335 0.910726 0.277217 -0.181579
O55   O     O_3   0.387478 0.815113 0.269604 -0.474317
H23   H     H_    0.372360 0.846989 0.216443 0.406119
S16   S     S_3+6 0.440863 0.122528 0.672806 0.093503
O56   O     O_2   0.388735 0.055100 0.648311 -0.182744
O57   O     O_2   0.506429 0.087052 0.722444 -0.198009
O58   O     O_3   0.394316 0.188675 0.739178 -0.479275
H24   H     H_    0.433619 0.215963 0.774104 0.349135

loop_
_geom_bond_atom_site_label_1
_geom_bond_atom_site_label_2
_ccdc_geom_bond_type
C24   H4    S    
O22   H12   S    
C19   S13   S    
C27   C29   S    
C41   C42   A    
C31   O5    A    
O58   H24   S    
S4    O22   S    
C11   S11   S    
S14   O52   S    
S8    O33   D    
S10   O38   D    
C33   S1    S    
C39   C41   A    
C4    C46   A    
O16   H10   S    
C40   C46   A    
C7    S7    S    
S12   O45   D    
C35   C37   A    
C25   H5    S    
S9    O36   D    
Cu1   O7    S    
S15   O55   S    
Cu2   O8    S    
O28   H14   S    
Cu2   N2    S    
O14   H8    S    
C2    C13   S    
C9    C13   A    
O37   H17   S    
C7    C11   A    
C33   C35   A    
C23   H3    S    
C20   C24   A    
O11   H7    S    
C6    S6    S    
C12   S12   S    
O34   H16   S    
S2    O12   D    
S5    O24   D    
C19   C27   A    
C34   S2    S    
C10   S10   S    
C39   C45   A    
S13   O49   S    
C40   C42   A    
C37   O15   S    
C3    S3    S    
C22   C28   A    
C41   C43   A    
S6    O26   D    
C42   C44   A    
S16   O58   S    
C26   H6    S    
S8    O32   D    
Cu2   O4    S    
S11   O42   D    
C9    S9    S    
S15   O53   D    
C3    C44   A    
C33   C43   A    
C32   C35   S    
C34   C44   A    
S4    O20   D    
S16   O57   D    
C10   C14   A    
C1    O4    A    
S3    O18   D    
C2    O3    A    
O49   H21   S    
S14   O51   D    
C20   C28   A    
S6    O28   S    
S1    O10   D    
C6    C16   A    
C3    C45   A    
Cu2   O2    S    
C19   C23   A    
O15   H9    S    
C5    C9    A    
C29   C30   T    
C1    O1    A    
Cu1   O1    S    
Cu2   O6    S    
Cu1   Cu2   S    
C4    S4    S    
C45   H1    S    
C8    C12   A    
S1    O11   S    
S2    O14   S    
C17   C18   T    
S5    O25   S    
S6    O27   D    
C8    S8    S    
S12   O46   S    
C7    C16   A    
S7    O30   D    
O19   H11   S    
C8    C15   A    
S9    O37   S    
C21   S15   S    
O46   H20   S    
Cu1   N1    S    
S13   O47   D    
S11   O43   S    
C15   C17   S    
C21   C25   A    
C31   C36   S    
C31   O8    A    
C25   N1    A    
C32   O7    A    
S4    O21   D    
S16   O56   D    
C26   N2    A    
Cu1   O5    S    
S3    O19   S    
S10   O39   D    
S11   O41   D    
C2    O2    A    
C23   N1    A    
S14   O50   D    
C38   O16   S    
C24   N2    A    
O52   H22   S    
C46   H2    S    
S7    O29   D    
C28   C30   S    
O43   H19   S    
C32   O6    A    
C37   C39   A    
O40   H18   S    
C38   C40   A    
S15   O54   D    
C36   C38   A    
O25   H13   S    
C11   C14   A    
C4    C43   A    
C34   C36   A    
C21   C27   A    
O31   H15   S    
C5    C15   A    
S10   O40   S    
C6    C10   A    
Cu1   O3    S    
S3    O17   D    
S7    O31   S    
C12   C13   A    
C16   C18   S    
S1    O9    D    
C22   C26   A    
C22   S16   S    
O55   H23   S    
S2    O13   D    
C1    C14   S    
C20   S14   S    
S5    O23   D    
S9    O35   D    
S8    O34   S    
C5    S5    S    
S12   O44   D    
S13   O48   D    
