data_mof_unit_37342.cif
_audit_creation_date              2012-12-10T18:29:40-0500
_audit_creation_method            fapswitch 2.2
_symmetry_space_group_name_H-M    P1
_symmetry_Int_Tables_number       1
_space_group_crystal_system       triclinic
_cell_length_a                    11.531275
_cell_length_b                    15.053554
_cell_length_c                    15.50313
_cell_angle_alpha                 81.053314
_cell_angle_beta                  90.979296
_cell_angle_gamma                 104.062639
_cell_volume                      2578.1230562

loop_
_atom_site_label
_atom_site_type_symbol
_atom_type_description
_atom_site_fract_x
_atom_site_fract_y
_atom_site_fract_z
_atom_type_partial_charge
C1    C     C_R   0.483965 0.441412 0.661957 0.846288
C2    C     C_R   0.517887 0.558697 0.338092 0.856968
C3    C     C_R   0.558726 0.369551 0.927871 0.111949
C4    C     C_R   0.538580 0.653568 0.064572 0.111329
C5    C     C_R   0.535545 0.522401 0.951862 0.028449
C6    C     C_R   0.563311 0.501163 0.040468 0.026227
C7    C     C_R   0.598645 0.417798 0.069080 -0.347112
C8    C     C_R   0.524050 0.613149 0.919435 -0.337519
C9    C     C_R   0.597194 0.352489 0.013611 0.426750
C10   C     C_R   0.528185 0.679174 0.974601 0.427200
C11   C     C_R   0.636507 0.823301 0.666749 0.340263
C12   C     C_R   0.448723 0.195985 0.322161 0.370730
C13   C     C_R   0.640137 0.748535 0.622521 0.069882
C14   C     C_R   0.409073 0.261696 0.361616 0.076651
C15   C     C_R   0.516075 0.800485 0.511300 0.144482
C16   C     C_R   0.448233 0.193073 0.503273 0.165833
C17   C     C_R   0.547704 0.889661 0.537950 -0.144267
C18   C     C_R   0.490047 0.123453 0.468543 -0.122811
C19   C     C_R   0.592560 0.896635 0.622570 0.000617
C20   C     C_R   0.492414 0.127470 0.375837 -0.013672
C21   C     C_R   0.535289 0.971379 0.483915 0.066520
C22   C     C_R   0.526898 0.049359 0.521122 0.053931
C23   C     C_R   0.717746 0.500925 0.500319 0.893432
C24   C     C_R   0.282232 0.498957 0.499955 0.896433
C25   C     C_R   0.567562 0.054357 0.606408 -0.360506
C26   C     C_R   0.552978 0.982636 0.393530 -0.367940
C27   C     C_R   0.601455 0.979641 0.657380 0.506341
C28   C     C_R   0.533535 0.060210 0.338900 0.510586
C29   C     C_1   0.838938 0.502276 0.501258 -0.194564
C30   C     C_1   0.160925 0.497102 0.500268 -0.196779
C31   C     C_1   0.940891 0.500939 0.501384 0.003998
C32   C     C_1   0.058912 0.498206 0.500878 -0.003129
C33   C     C_R   0.489867 0.406576 0.754686 -0.054761
C34   C     C_R   0.533511 0.595673 0.245166 -0.047642
C35   C     C_R   0.557059 0.305303 0.870506 -0.125737
C36   C     C_R   0.529508 0.715083 0.122522 -0.125746
C37   C     C_R   0.526513 0.325264 0.783590 -0.238040
C38   C     C_R   0.526653 0.686124 0.212418 -0.238482
C39   C     C_R   0.479520 0.465326 0.813404 -0.242082
C40   C     C_R   0.551553 0.537022 0.188383 -0.240929
C41   C     C_R   0.524176 0.453198 0.897661 0.041118
C42   C     C_R   0.554532 0.564034 0.097883 0.044233
H1    H     H_    0.585965 0.119358 0.630750 0.146393
H2    H     H_    0.587603 0.932545 0.365339 0.142525
H3    H     H_    0.555787 0.467916 0.216419 0.153132
H4    H     H_    0.440645 0.522730 0.790187 0.155051
H5    H     H_    0.514383 0.733034 0.255926 0.152067
H6    H     H_    0.536919 0.279549 0.738576 0.147908
H7    H     H_    0.585008 0.241766 0.891309 0.199525
H8    H     H_    0.519681 0.784368 0.098736 0.200527
H9    H     H_    0.633097 0.403469 0.133452 0.147029
H10   H     H_    0.515375 0.635759 0.850767 0.132280
N1    N     N_R   0.566020 0.731700 0.552730 -0.132004
N2    N     N_R   0.433980 0.268300 0.447270 -0.149471
O1    O     O_R   0.466720 0.383110 0.605620 -0.625515
O2    O     O_R   0.533280 0.616890 0.394380 -0.629149
O3    O     O_R   0.509090 0.531900 0.639510 -0.617254
O4    O     O_R   0.490910 0.468100 0.360490 -0.633562
O5    O     O_R   0.644370 0.425610 0.483050 -0.591292
O6    O     O_R   0.355630 0.574390 0.516950 -0.618253
O7    O     O_R   0.686740 0.574390 0.516930 -0.625144
O8    O     O_R   0.313260 0.425610 0.483070 -0.629135
Zn1   Zn    Zn3+2 0.471710 0.400660 0.477370 0.921029
Zn2   Zn    Zn3+2 0.528290 0.599340 0.522630 0.918416
O9    O     O_3   0.632715 0.271604 0.042079 -0.745479
H11   H     H_    0.655641 0.269635 0.104160 0.364532
O10   O     O_3   0.517239 0.767679 0.942258 -0.748013
H12   H     H_    0.507867 0.773834 0.878073 0.363021
O11   O     O_3   0.644280 0.987439 0.740447 -0.675016
H13   H     H_    0.642228 0.048970 0.754853 0.324097
O12   O     O_3   0.553094 0.070441 0.249699 -0.684086
H14   H     H_    0.580375 0.016752 0.235335 0.326295
C43   C     C_3   0.383498 0.175945 0.591249 -0.364188
C44   C     C_3   0.283141 0.086289 0.603657 -0.400081
C45   C     C_3   0.211483 0.076280 0.687981 -0.822904
H15   H     H_    0.270759 0.074123 0.745129 0.268782
H16   H     H_    0.168889 0.135238 0.686368 0.263042
H17   H     H_    0.140232 0.010849 0.695442 0.258719
H18   H     H_    0.221731 0.087300 0.547602 0.224422
H19   H     H_    0.320172 0.024505 0.606558 0.239813
H20   H     H_    0.338812 0.233054 0.593585 0.237701
H21   H     H_    0.444192 0.178069 0.646887 0.178971
C46   C     C_3   0.413642 0.777606 0.448890 -0.364706
C47   C     C_3   0.293544 0.771619 0.493491 -0.341614
C48   C     C_3   0.190011 0.750485 0.431225 -0.861941
H22   H     H_    0.199050 0.808351 0.375809 0.264571
H23   H     H_    0.188498 0.685547 0.405241 0.264254
H24   H     H_    0.104058 0.742020 0.466505 0.251813
H25   H     H_    0.278356 0.716513 0.551690 0.241250
H26   H     H_    0.294675 0.838548 0.515778 0.219078
H27   H     H_    0.422635 0.827537 0.388057 0.179301
H28   H     H_    0.411475 0.712699 0.424946 0.248790
C49   C     C_3   0.323978 0.314482 0.314341 -0.382945
C50   C     C_3   0.206147 0.248719 0.293531 -0.392474
C51   C     C_3   0.117898 0.302824 0.252013 -0.841642
H29   H     H_    0.096163 0.347072 0.297401 0.260849
H30   H     H_    0.156366 0.347214 0.190150 0.266705
H31   H     H_    0.033981 0.253673 0.237286 0.262024
H32   H     H_    0.222382 0.202946 0.247798 0.265207
H33   H     H_    0.165135 0.204264 0.354786 0.226981
H34   H     H_    0.299649 0.360083 0.356054 0.265796
H35   H     H_    0.366186 0.359308 0.253891 0.186017
C52   C     C_3   0.751748 0.711191 0.635900 -0.363915
C53   C     C_3   0.738728 0.624793 0.706413 -0.297741
C54   C     C_3   0.852295 0.626879 0.758968 -0.906750
H36   H     H_    0.929200 0.631520 0.714870 0.267130
H37   H     H_    0.871999 0.687053 0.794838 0.274235
H38   H     H_    0.839788 0.562352 0.807238 0.263455
H39   H     H_    0.663713 0.618905 0.752255 0.217684
H40   H     H_    0.720908 0.561344 0.675777 0.246954
H41   H     H_    0.786666 0.701291 0.573262 0.212315
H42   H     H_    0.825542 0.767653 0.654036 0.201830
O13   O     O_3   0.690745 0.831889 0.746282 -0.691724
H43   H     H_    0.696407 0.770067 0.775920 0.334531
O14   O     O_3   0.439971 0.194400 0.233269 -0.696745
H44   H     H_    0.439396 0.256899 0.202416 0.328206

loop_
_geom_bond_atom_site_label_1
_geom_bond_atom_site_label_2
_ccdc_geom_bond_type
C53   H40   S    
C21   C26   A    
C4    C36   A    
C49   C50   S    
C43   C44   S    
C51   H29   S    
C25   H1    S    
C51   H31   S    
C26   H2    S    
C39   C41   A    
C10   O10   S    
C23   O5    A    
C46   H28   S    
C54   H37   S    
C11   C19   A    
C33   C39   A    
C34   C40   A    
C15   N1    A    
C35   C37   A    
C5    C6    A    
N1    Zn2   S    
N2    Zn1   S    
O14   H44   S    
C52   H41   S    
C46   C47   S    
C22   C25   A    
O1    Zn1   S    
C35   H7    S    
O2    Zn2   S    
C3    C35   A    
C13   C52   S    
C19   C27   A    
C8    H10   S    
C14   C49   S    
C27   O11   S    
C12   O14   S    
C2    C34   S    
C40   C42   A    
C34   C38   A    
C21   C22   A    
C50   C51   S    
C47   H26   S    
C43   H20   S    
C53   C54   S    
C13   N1    A    
C48   H23   S    
C40   H3    S    
C54   H38   S    
C44   C45   S    
C1    C33   S    
O10   H12   S    
C47   C48   S    
C49   H34   S    
C15   C46   S    
C20   C28   A    
C48   H22   S    
C33   C37   A    
C16   C43   S    
C52   H42   S    
O7    Zn2   S    
C45   H15   S    
O8    Zn1   S    
C3    C9    A    
C1    O3    A    
C31   C32   S    
C50   H33   S    
C24   O6    A    
C12   C20   A    
C2    O4    A    
C37   H6    S    
C45   H16   S    
C38   H5    S    
C39   H4    S    
C16   C18   A    
C14   N2    A    
C12   C14   A    
C44   H18   S    
C24   C30   S    
C47   H25   S    
C4    C10   A    
C23   C29   S    
C43   H21   S    
C36   H8    S    
O3    Zn2   S    
O13   H43   S    
C48   H24   S    
O4    Zn1   S    
C15   C17   A    
C5    C41   A    
C3    C41   A    
C24   O8    A    
C18   C22   A    
C26   C28   A    
C49   H35   S    
C5    C8    A    
C51   H30   S    
C6    C7    A    
C25   C27   A    
C46   H27   S    
C54   H36   S    
O5    Zn1   S    
O6    Zn2   S    
C16   N2    A    
C36   C38   A    
C1    O1    A    
C7    H9    S    
O12   H14   S    
C29   C31   T    
C2    O2    A    
C30   C32   T    
C11   C13   A    
C53   H39   S    
C4    C42   A    
C50   H32   S    
C17   C19   A    
C18   C20   A    
O11   H13   S    
C11   O13   S    
C45   H17   S    
C9    O9    S    
C28   O12   S    
C7    C9    A    
C23   O7    A    
C8    C10   A    
O9    H11   S    
C6    C42   A    
C52   C53   S    
C44   H19   S    
C17   C21   A    
