data_mof_unit_57757.cif
_audit_creation_date              2013-03-05T15:44:33-0500
_audit_creation_method            fapswitch 2.2
_symmetry_space_group_name_H-M    P1
_symmetry_Int_Tables_number       1
_space_group_crystal_system       triclinic
_cell_length_a                    27.806491
_cell_length_b                    10.895085
_cell_length_c                    9.707968
_cell_angle_alpha                 89.517307
_cell_angle_beta                  90.418849
_cell_angle_gamma                 90.566699
_cell_volume                      2940.74351196

loop_
_atom_site_label
_atom_site_type_symbol
_atom_site_description
_atom_site_fract_x
_atom_site_fract_y
_atom_site_fract_z
_atom_type_partial_charge
O1    O     O_R   0.500010 0.321960 0.617040 -0.579944
O2    O     O_R   0.499990 0.321920 0.382900 -0.579558
C1    C     C_R   0.501446 0.265368 0.501068 0.875962
O3    O     O_R   0.430270 0.500040 0.617060 -0.587604
O4    O     O_R   0.430260 0.500000 0.382910 -0.578234
C2    C     C_R   0.407623 0.500416 0.499900 0.821591
Cu1   Cu    Cu3+1 0.500010 0.500020 0.638630 0.967534
Cu2   Cu    Cu3+1 0.499990 0.499980 0.361370 1.007237
O5    O     O_R   0.500010 0.678080 0.617100 -0.569923
O6    O     O_R   0.499990 0.678040 0.382960 -0.515826
O7    O     O_R   0.569740 0.500000 0.617090 -0.589815
O8    O     O_R   0.569730 0.499960 0.382940 -0.562072
C3    C     C_R   0.501699 0.734693 0.499036 0.912559
C4    C     C_R   0.592516 0.500306 0.500392 0.836388
C5    C     C_R   0.178140 0.397355 0.486376 0.634454
O9    O     O_2   0.203688 0.298875 0.449350 -0.450069
N1    N     N_R   0.202386 0.504475 0.512686 -0.457109
C6    C     C_R   0.178884 0.610158 0.541878 0.600828
C7    C     C_R   0.278693 0.556114 0.395275 0.438571
C8    C     C_R   0.328929 0.555317 0.393790 -0.316675
C9    C     C_R   0.330471 0.449830 0.614088 -0.242515
C10   C     C_R   0.280284 0.451697 0.619833 -0.000896
C11   C     C_R   0.254056 0.505576 0.509845 0.190595
C12   C     C_R   0.102351 0.502936 0.517258 -0.085557
C13   C     C_R   0.127226 0.391801 0.493681 -0.148490
C14   C     C_R   0.100052 0.281351 0.478751 0.375349
C15   C     C_R   0.128662 0.611903 0.542713 -0.025793
C16   C     C_R   0.354903 0.501197 0.501674 -0.086528
H1    H     H_    0.350573 0.408149 0.698108 0.156127
C17   C     C_R   0.645498 0.502281 0.500831 -0.030425
C18   C     C_R   0.973990 0.403225 0.469545 0.069910
C19   C     C_R   0.975545 0.618313 0.544969 0.030178
C20   C     C_R   0.949398 0.511953 0.505369 0.072423
C21   C     C_R   0.946846 0.303395 0.417280 -0.202482
C22   C     C_R   0.897106 0.306812 0.410527 -0.161853
C23   C     C_R   0.872356 0.409753 0.455238 -0.012046
C24   C     C_R   0.898215 0.513865 0.501259 -0.057892
C25   C     C_R   0.872833 0.619397 0.542171 -0.069208
C26   C     C_R   0.821914 0.612644 0.546614 0.530000
N2    N     N_R   0.798001 0.510623 0.500358 -0.462651
C27   C     C_R   0.822025 0.411014 0.453341 0.518086
C28   C     C_R   0.721541 0.500249 0.625500 -0.100516
C29   C     C_R   0.671377 0.497516 0.625691 -0.204626
C30   C     C_R   0.670732 0.509915 0.376000 -0.151723
C31   C     C_R   0.720845 0.512849 0.376138 -0.099440
C32   C     C_R   0.746411 0.508040 0.500761 0.351791
O10   O     O_2   0.797122 0.312622 0.406820 -0.567268
C33   C     C_R   0.024815 0.398178 0.483987 -0.019820
C34   C     C_R   0.051178 0.505993 0.515148 0.079109
C35   C     C_R   0.026797 0.617210 0.543272 0.044539
C36   C     C_R   0.049916 0.287052 0.472494 -0.281582
H2    H     H_    0.652933 0.491530 0.723411 0.165164
H3    H     H_    0.741148 0.496068 0.722187 0.143696
H4    H     H_    0.878095 0.227708 0.369813 0.175458
H5    H     H_    0.963098 0.222106 0.376483 0.145781
H6    H     H_    0.030699 0.201297 0.464147 0.186704
O11   O     O_2   0.204275 0.713341 0.569969 -0.492045
C37   C     C_R   0.104537 0.720968 0.567952 -0.076589
H7    H     H_    0.347934 0.597977 0.308867 0.168407
H8    H     H_    0.124143 0.805648 0.587063 0.235651
C38   C     C_R   0.949470 0.723298 0.582617 -0.242903
C39   C     C_R   0.899276 0.726138 0.579004 0.003801
O12   O     O_2   0.796252 0.705697 0.598381 -0.519601
C40   C     C_R   0.054774 0.723938 0.568123 -0.184097
H9    H     H_    0.967107 0.806633 0.615013 0.143882
H10   H     H_    0.651817 0.514141 0.278195 0.173893
H11   H     H_    0.739894 0.519154 0.279401 0.144138
H12   H     H_    0.039639 0.812866 0.585428 0.172935
C41   C     C_2   0.526651 0.935906 0.403714 0.442053
C42   C     C_2   0.501572 0.867346 0.495868 -0.427278
H13   H     H_    0.477656 0.908559 0.569458 0.121447
C43   C     C_2   0.520661 0.069623 0.398477 -0.235873
C44   C     C_2   0.506352 0.133535 0.507337 -0.367335
H14   H     H_    0.530282 0.117297 0.304021 0.175842
H15   H     H_    0.501575 0.090758 0.607584 0.161268
C45   C     C_2   0.465913 0.451059 0.920795 -0.093802
N3    N     N_2   0.499480 0.498660 0.846910 -0.281230
H16   H     H_    0.434984 0.411312 0.868153 0.158585
H17   H     H_    0.530338 0.528852 0.895063 0.205465
C46   C     C_2   0.468143 0.440384 0.075394 0.049040
N4    N     N_2   0.499460 0.498630 0.153040 -0.291545
H18   H     H_    0.522574 0.559795 0.106303 0.226554
S1    S     S_3+6 0.248021 0.620669 0.251944 0.012678
O13   O     O_2   0.200598 0.556767 0.228517 -0.293064
O14   O     O_2   0.238989 0.754116 0.278856 -0.230445
O15   O     O_3   0.281373 0.607802 0.108887 -0.556888
H19   H     H_    0.302035 0.682355 0.106360 0.348757
C47   C     C_R   0.876631 0.846447 0.604068 0.171986
C48   C     C_R   0.852881 0.908282 0.496166 -0.092423
C49   C     C_R   0.832163 0.022590 0.518870 -0.109953
C50   C     C_R   0.835953 0.077293 0.648259 -0.077738
C51   C     C_R   0.860245 0.017247 0.755474 -0.132440
C52   C     C_R   0.880599 0.902188 0.733640 -0.131065
H20   H     H_    0.850132 0.867368 0.395068 0.128060
H21   H     H_    0.813291 0.068757 0.435882 0.181021
H22   H     H_    0.820154 0.166235 0.665349 0.153145
H23   H     H_    0.863286 0.059835 0.855522 0.138703
H24   H     H_    0.899338 0.856460 0.817406 0.131019
S2    S     S_3+6 0.567701 0.872792 0.284785 0.022850
O16   O     O_2   0.597496 0.775711 0.354302 -0.266225
O17   O     O_2   0.540354 0.816257 0.166739 -0.317896
O18   O     O_3   0.604753 0.983182 0.223596 -0.502121
H25   H     H_    0.587870 0.018378 0.142431 0.344764
C53   C     C_R   0.256064 0.394173 0.740224 0.106203
C54   C     C_R   0.265957 0.271814 0.776949 -0.090664
C55   C     C_R   0.243359 0.217025 0.890388 -0.100288
C56   C     C_R   0.210600 0.283583 0.967722 -0.096157
C57   C     C_R   0.200654 0.405266 0.932243 -0.051055
C58   C     C_R   0.223693 0.460977 0.820191 -0.119495
H26   H     H_    0.290894 0.218625 0.717147 0.145415
H27   H     H_    0.251103 0.122778 0.917985 0.160909
H28   H     H_    0.192973 0.240971 0.055180 0.166179
H29   H     H_    0.175158 0.456653 0.991777 0.185507
H30   H     H_    0.216591 0.556345 0.796984 0.168009
C59   C     C_R   0.430929 0.358543 0.134539 0.177708
C60   C     C_R   0.441335 0.235148 0.162515 -0.111329
C61   C     C_R   0.405125 0.154508 0.207166 -0.157355
C62   C     C_R   0.357807 0.195328 0.217873 -0.120739
C63   C     C_R   0.346589 0.316183 0.181823 -0.112531
C64   C     C_R   0.382924 0.397173 0.138674 -0.157380
H31   H     H_    0.477334 0.201382 0.147693 0.125598
H32   H     H_    0.413622 0.059944 0.231217 0.150980
H33   H     H_    0.329697 0.132711 0.251357 0.169534
H34   H     H_    0.309720 0.346819 0.186307 0.190736
H35   H     H_    0.373750 0.489715 0.107553 0.149158
S3    S     S_3+6 0.125593 0.131864 0.475626 0.052556
O19   O     O_2   0.160279 0.117500 0.594053 -0.210053
O20   O     O_2   0.087399 0.033825 0.487944 -0.337277
O21   O     O_3   0.154962 0.112035 0.326714 -0.439306
H36   H     H_    0.130941 0.130305 0.253723 0.329857

loop_
_geom_bond_atom_site_label_1
_geom_bond_atom_site_label_2
_geom_bond_distance
_ccdc_geom_bond_type
C54   H26   1.083139 S    
S3    O19   1.503416 D    
C35   C40   1.414066 A    
C56   H28   1.082401 S    
C30   H10   1.082933 S    
C7    C8    1.397164 A    
C12   C15   1.411003 A    
N4    H18   1.026526 S    
Cu1   Cu2   2.691631 S    
C63   H34   1.082580 S    
C60   C61   1.398593 A    
N2    C32   1.434562 S    
N1    C11   1.437151 S    
S1    O13   1.501806 D    
O4    C2    1.302583 A    
C40   H12   1.075132 S    
C23   C24   1.411030 A    
C45   H16   1.085492 S    
C19   C38   1.412413 A    
C36   H6    1.075093 S    
C28   H3    1.082879 S    
C14   S3    1.783800 S    
C53   C58   1.405470 A    
O7    C4    1.301910 A    
C29   H2    1.082888 S    
C5    C13   1.418695 A    
C55   C56   1.396958 A    
C37   H8    1.083635 S    
C5    O9    1.345519 S    
C10   C53   1.484308 S    
C57   C58   1.397678 A    
Cu1   O5    1.949455 S    
C21   C22   1.385031 A    
C28   C32   1.400440 A    
C48   H20   1.083240 S    
O5    C3    1.297941 A    
C62   C63   1.397257 A    
C50   H22   1.082473 S    
C33   C36   1.409111 A    
C2    C16   1.466300 S    
C22   C23   1.395608 A    
C31   H11   1.082915 S    
C56   C57   1.396737 A    
C18   C20   1.420647 A    
C42   H13   1.082821 S    
C38   C39   1.396557 A    
Cu1   N3    2.022064 S    
C21   H5    1.077917 S    
O1    Cu1   1.953023 S    
C9    C10   1.397393 A    
C22   H4    1.082651 S    
C44   H15   1.083965 S    
C17   C30   1.406208 A    
C23   C27   1.399714 A    
O18   H25   0.990646 S    
C4    C17   1.473161 S    
O3    Cu1   1.948980 S    
C7    S1    1.770947 S    
C53   C54   1.406339 A    
C51   H23   1.082321 S    
C55   H27   1.082319 S    
N3    H17   1.026704 S    
C37   C40   1.384463 A    
C60   H31   1.080896 S    
Cu2   N4    2.022583 S    
C49   H21   1.081510 S    
C12   C13   1.421432 A    
C43   H14   1.083978 S    
C50   C51   1.398068 A    
C64   H35   1.082477 S    
C46   N4    1.310256 D    
C8    C16   1.397567 A    
S3    O21   1.682102 S    
C13   C14   1.422468 A    
C31   C32   1.399618 A    
C39   C47   1.482494 S    
O6    C3    1.289733 A    
C20   C24   1.423857 A    
O1    C1    1.289236 A    
C57   H29   1.081388 S    
C41   C43   1.468401 S    
Cu1   O7    1.951709 S    
C61   H32   1.082476 S    
C24   C25   1.416233 A    
C6    O11   1.350303 S    
S2    O16   1.502577 D    
C46   C59   1.475569 S    
Cu2   O8    1.948974 S    
S1    O15   1.683209 S    
N1    C6    1.362446 A    
C27   O10   1.349655 S    
C18   C21   1.413363 A    
C45   N3    1.283972 D    
C8    H7    1.081680 S    
C19   C35   1.425544 A    
C58   H30   1.081118 S    
C41   S2    1.776783 S    
O3    C2    1.296043 A    
N2    C27   1.363633 A    
S1    O14   1.503250 D    
C9    C16   1.399548 A    
O8    C4    1.300402 A    
C59   C64   1.404560 A    
C18   C33   1.420742 A    
C17   C29   1.405964 A    
C28   C29   1.394931 A    
C26   N2    1.367003 A    
C30   C31   1.393486 A    
C7    C11   1.415265 A    
O21   H36   0.990552 S    
C12   C34   1.423651 A    
C5    N1    1.367047 A    
C47   C52   1.404552 A    
C33   C34   1.412237 A    
S3    O20   1.503458 D    
S2    O17   1.503599 D    
O15   H19   0.990509 S    
O2    Cu2   1.949455 S    
C6    C15   1.396882 A    
C45   C46   1.505234 S    
C43   C44   1.335689 D    
C15   C37   1.394676 A    
O4    Cu2   1.951712 S    
C63   C64   1.399000 A    
C26   O12   1.348226 S    
C54   C55   1.398419 A    
C19   C20   1.416312 A    
O2    C1    1.298145 A    
C61   C62   1.397928 A    
C49   C50   1.397696 A    
C25   C26   1.418003 A    
C9    H1    1.084475 S    
C51   C52   1.398919 A    
C62   H33   1.082327 S    
C41   C42   1.353584 D    
C1    C44   1.444869 S    
C38   H9    1.075882 S    
S2    O18   1.683219 S    
C47   C48   1.405012 A    
Cu2   O6    1.953023 S    
C34   C35   1.423709 A    
C3    C42   1.445366 S    
C10   C11   1.415316 A    
C48   C49   1.397194 A    
C14   C36   1.396947 A    
C52   H24   1.083110 S    
C59   C60   1.401888 A    
C25   C39   1.416759 A    
