data_mof_unit_46012.cif
_audit_creation_date              2012-10-26T20:34:01-0400
_audit_creation_method            fapswitch 2.2
_symmetry_space_group_name_H-M    P1
_symmetry_Int_Tables_number       1
_space_group_crystal_system       triclinic
_cell_length_a                    15.945207
_cell_length_b                    9.161438
_cell_length_c                    7.8362
_cell_angle_alpha                 89.389366
_cell_angle_beta                  90.275086
_cell_angle_gamma                 90.683122
_cell_volume                      1144.56125817

loop_
_atom_site_label
_atom_site_type_symbol
_atom_type_description
_atom_site_fract_x
_atom_site_fract_y
_atom_site_fract_z
_atom_type_partial_charge
C1    C     C_R   0.499961 0.220104 0.500553 0.544512
C2    C     C_3   0.047240 0.460510 0.322696 -0.175976
C3    C     C_3   0.949301 0.404136 0.638370 -0.174430
C4    C     C_3   0.949554 0.476204 0.324573 -0.158441
C5    C     C_1   0.748963 0.509194 0.501885 0.104723
C6    C     C_1   0.251007 0.499961 0.498394 0.097751
C7    C     C_3   0.083601 0.514764 0.498189 -0.094683
C8    C     C_3   0.916650 0.519575 0.506164 -0.096539
C9    C     C_3   0.952265 0.679940 0.558629 0.327131
C10   C     C_3   0.055334 0.682292 0.525831 0.344879
C11   C     C_2   0.909348 0.253435 0.627453 0.248208
C12   C     C_1   0.824100 0.515706 0.504225 0.076806
C13   C     C_2   0.902132 0.350674 0.240756 0.254913
C14   C     C_2   0.088513 0.263895 0.658779 0.304441
C15   C     C_2   0.081029 0.314822 0.264084 0.230822
C16   C     C_1   0.175899 0.505001 0.497579 0.066302
C17   C     C_R   0.340108 0.498319 0.499594 0.558405
C18   C     C_R   0.659884 0.502001 0.500425 0.552966
C19   C     C_1   0.500032 0.934730 0.499253 -0.003110
C20   C     C_1   0.500000 0.065266 0.500754 -0.011065
C21   C     C_R   0.500055 0.779900 0.499449 0.564587
C22   C     C_3   0.047430 0.412023 0.645053 -0.153205
Cu1   Cu    Cu3+1 0.500000 0.500010 0.669080 1.114697
Cu2   Cu    Cu3+1 0.500000 0.500010 0.330920 1.104521
H1    H     H_    0.071008 0.532418 0.219362 0.229785
H2    H     H_    0.916391 0.238285 0.272517 0.193762
H3    H     H_    0.068302 0.175683 0.577676 0.200890
H4    H     H_    0.129733 0.259985 0.335353 0.113184
H5    H     H_    0.063507 0.462867 0.767036 0.251489
H6    H     H_    0.936049 0.570447 0.243433 0.224135
H7    H     H_    0.925857 0.433613 0.764096 0.198964
H8    H     H_    0.186928 0.709111 0.928925 0.402001
H9    H     H_    0.154149 0.002988 0.334794 0.372840
H10   H     H_    0.955331 0.558533 0.978566 0.353060
H11   H     H_    0.776576 0.938284 0.490654 0.359372
H12   H     H_    0.862943 0.226849 0.531460 0.114600
N1    N     N_1   0.500000 0.499970 0.076820 -0.060842
N2    N     N_1   0.500000 0.499970 0.923180 -0.060678
O1    O     O_R   0.500000 0.288400 0.642760 -0.496980
O2    O     O_2   0.081473 0.903475 0.761142 -0.111709
O3    O     O_3   0.143236 0.656447 0.862802 -0.492469
O4    O     O_2   0.171723 0.742568 0.273223 -0.318501
O5    O     O_2   0.028407 0.790489 0.191239 -0.148454
O6    O     O_3   0.101981 0.970059 0.392283 -0.448123
O7    O     O_2   0.922547 0.876431 0.817941 -0.048380
O8    O     O_2   0.835719 0.659376 0.818286 -0.256569
O9    O     O_3   0.987699 0.638220 0.924458 -0.473496
O10   O     O_2   0.939388 0.966702 0.450863 -0.216629
O11   O     O_2   0.871460 0.790019 0.262439 -0.222009
O12   O     O_R   0.500000 0.288400 0.357240 -0.500035
O13   O     O_3   0.799953 0.848587 0.543040 -0.473340
O14   O     O_2   0.922503 0.163462 0.739971 -0.352104
O15   O     O_2   0.847922 0.374773 0.133816 -0.455023
O16   O     O_2   0.143894 0.241634 0.763752 -0.401263
O17   O     O_2   0.060947 0.265277 0.125477 -0.392604
O18   O     O_R   0.379440 0.500020 0.642850 -0.487628
O19   O     O_R   0.379440 0.500020 0.357150 -0.499335
O20   O     O_R   0.620560 0.500020 0.642850 -0.485658
O21   O     O_R   0.620560 0.500020 0.357150 -0.486914
O22   O     O_R   0.500000 0.711620 0.642810 -0.489557
O23   O     O_R   0.500000 0.711620 0.357190 -0.492891
O24   O     O_2   0.204663 0.811173 0.623088 -0.262360
S1    S     S_3+6 0.120923 0.767025 0.696478 0.128781
S2    S     S_3+6 0.088630 0.794395 0.337811 0.108775
S3    S     S_3+6 0.923000 0.715807 0.782859 0.141469
S4    S     S_3+6 0.892420 0.824106 0.444857 0.112231

loop_
_geom_bond_atom_site_label_1
_geom_bond_atom_site_label_2
_ccdc_geom_bond_type
C8    C9    S    
Cu1   O20   S    
C2    C4    S    
H8    O3    S    
Cu2   O23   S    
H10   O9    S    
C22   H5    S    
C14   H3    S    
C7    C10   S    
Cu1   N2    S    
C9    C10   S    
C21   O23   A    
C10   S1    S    
C8    C12   S    
C4    C8    S    
C5    C18   S    
O10   S4    D    
C10   S2    S    
C14   C22   S    
C19   C20   T    
Cu2   N1    S    
H11   O13   S    
Cu1   O18   S    
C15   O17   D    
O6    S2    S    
C3    H7    S    
C2    C15   S    
C17   O18   A    
C15   H4    S    
O24   S1    D    
O2    S1    D    
C21   O22   A    
Cu2   O21   S    
Cu1   O1    S    
C11   H12   S    
C14   O16   D    
N1    N2    T    
C18   O20   A    
O5    S2    D    
C2    H1    S    
C13   O15   D    
O7    S3    D    
Cu1   O22   S    
C9    S3    S    
C13   H2    S    
C3    C11   S    
O11   S4    D    
O3    S1    S    
Cu1   Cu2   S    
C6    C16   T    
C7    C22   S    
O4    S2    D    
C18   O21   A    
O8    S3    D    
C3    C8    S    
C1    O12   A    
C4    C13   S    
Cu2   O12   S    
C6    C17   S    
C1    O1    A    
C9    S4    S    
C7    C16   S    
C3    C22   S    
C11   O14   D    
C19   C21   S    
H9    O6    S    
O9    S3    S    
C4    H6    S    
C2    C7    S    
C17   O19   A    
Cu2   O19   S    
C1    C20   S    
O13   S4    S    
C5    C12   T    
