data_mof_unit_46770.cif
_audit_creation_date              2013-03-05T15:45:59-0500
_audit_creation_method            fapswitch 2.2
_symmetry_space_group_name_H-M    P1
_symmetry_Int_Tables_number       1
_space_group_crystal_system       triclinic
_cell_length_a                    8.438151
_cell_length_b                    15.027008
_cell_length_c                    19.152841
_cell_angle_alpha                 95.933539
_cell_angle_beta                  95.039788
_cell_angle_gamma                 97.828133
_cell_volume                      2380.22444523

loop_
_atom_site_label
_atom_site_type_symbol
_atom_site_description
_atom_site_fract_x
_atom_site_fract_y
_atom_site_fract_z
_atom_type_partial_charge
P1    P     P_3+3 0.990670 0.707470 0.561860 0.481348
O1    O     O_2   0.164990 0.721870 0.541490 -0.337294
O2    O     O_3   0.893010 0.608480 0.539150 -0.414050
O3    O     O_3   0.389100 0.667490 0.413860 -0.389546
O4    O     O_2   0.327816 0.822521 0.481360 -0.388042
O5    O     O_3   0.025957 0.740319 0.652652 -0.560336
O6    O     O_3   0.361859 0.832610 0.352582 -0.584868
H1    H     H_    0.589900 0.818190 0.318748 -0.029357
C1    C     C_3   0.407015 0.811395 0.231681 0.169308
H2    H     H_    0.286648 0.832859 0.222190 0.168798
P2    P     P_3+3 0.340140 0.430100 0.338890 0.518280
P3    P     P_3+3 0.933366 0.619858 0.285092 0.523073
O7    O     O_2   0.172070 0.457600 0.329050 -0.345575
O8    O     O_3   0.964370 0.622050 0.377340 -0.398472
O9    O     O_2   0.059160 0.566737 0.252712 -0.345988
O10   O     O_3   0.311692 0.310426 0.323563 -0.623252
O11   O     O_3   0.984200 0.730660 0.264649 -0.497348
C2    C     C_3   0.963416 0.791031 0.323321 0.337529
H3    H     H_    0.049712 0.784796 0.369232 0.158510
H4    H     H_    0.838816 0.778130 0.338023 0.022069
C3    C     C_3   0.994949 0.887979 0.305989 -0.631700
H5    H     H_    0.970499 0.934933 0.351146 0.220363
H6    H     H_    0.121839 0.905709 0.296011 0.268514
C4    C     C_3   0.670370 0.293331 0.310114 0.678853
H7    H     H_    0.610359 0.340531 0.343117 0.038575
C5    C     C_3   0.561316 0.203201 0.287477 -0.577422
H8    H     H_    0.505559 0.179067 0.333576 0.225685
H9    H     H_    0.464519 0.210126 0.246530 0.235243
H10   H     H_    0.631728 0.151743 0.265275 0.291532
Ba1   Ba    Ba6+2 0.161750 0.544670 0.467760 1.620500
C6    C     C_3   0.024830 0.667005 0.691591 0.226038
H11   H     H_    0.117807 0.625536 0.675859 0.042756
H12   H     H_    0.905089 0.625197 0.682775 0.133216
C7    C     C_3   0.063352 0.705639 0.770008 0.177376
H13   H     H_    0.195868 0.726458 0.780404 0.138408
C8    C     C_3   0.158748 0.271360 0.289587 0.606088
H14   H     H_    0.065679 0.304150 0.314050 0.128395
C9    C     C_3   0.144563 0.281736 0.209843 -0.250509
H15   H     H_    0.099117 0.346000 0.201865 0.144793
H16   H     H_    0.264929 0.284126 0.190197 0.136405
P4    P     P_3+3 0.819620 0.292520 0.438080 0.537582
O12   O     O_2   0.645300 0.278070 0.458480 -0.382684
O13   O     O_3   0.917280 0.391520 0.460790 -0.324338
O14   O     O_3   0.421200 0.332510 0.586090 -0.305866
O15   O     O_3   0.810894 0.274184 0.345911 -0.583459
P5    P     P_3+3 0.879191 0.378540 0.714768 0.469768
O16   O     O_3   0.383620 0.545480 0.584560 -0.357156
O17   O     O_3   0.845920 0.377940 0.622610 -0.360299
O18   O     O_2   0.777635 0.447167 0.746464 -0.345337
O19   O     O_3   0.787353 0.276648 0.740322 -0.507330
Ba2   Ba    Ba6+2 0.648430 0.455320 0.532180 1.673266
P6    P     P_3+3 0.436017 0.787527 0.427437 0.415875
C10   C     C_3   0.480505 0.849734 0.306341 0.566800
O20   O     O_3   0.426680 0.454510 0.415380 -0.321992
C11   C     C_3   0.549891 0.730253 0.642522 0.468116
H17   H     H_    0.675844 0.718475 0.637805 0.077992
H18   H     H_    0.475592 0.707587 0.591368 0.099994
C12   C     C_3   0.547328 0.831387 0.658553 -0.878697
H19   H     H_    0.617086 0.857797 0.710057 0.293713
H20   H     H_    0.601138 0.867775 0.616797 0.204256
H21   H     H_    0.421333 0.844680 0.660424 0.261751
P7    P     P_3+3 0.463578 0.568591 0.673464 0.512294
O21   O     O_2   0.638220 0.542340 0.670930 -0.362918
O22   O     O_3   0.488328 0.685810 0.697624 -0.519517
H22   H     H_    0.916886 0.896761 0.258387 0.304727
C13   C     C_3   0.877805 0.206006 0.724943 0.647583
H23   H     H_    0.004727 0.230161 0.717161 0.008435
C14   C     C_3   0.879318 0.146916 0.785987 -0.376665
H24   H     H_    0.754327 0.117646 0.793203 0.226937
H25   H     H_    0.947363 0.089991 0.773019 0.201227
P8    P     P_3+3 0.378210 0.215336 0.585739 0.521261
C15   C     C_3   0.394623 0.258848 0.719738 0.465245
H26   H     H_    0.270492 0.273568 0.707511 -0.004585
O23   O     O_2   0.500090 0.174646 0.541181 -0.379349
O24   O     O_3   0.430596 0.190039 0.671005 -0.533477
H27   H     H_    0.481702 0.321432 0.719927 0.149798
H28   H     H_    0.384842 0.283032 0.832292 0.220228
C16   C     C_3   0.408098 0.228345 0.792932 -0.924800
H29   H     H_    0.530681 0.212333 0.806740 0.290644
H30   H     H_    0.318873 0.167248 0.794682 0.253729
C17   C     C_R   0.643768 0.832487 0.466825 0.168297
H31   H     H_    0.672617 0.701459 0.495267 0.155344
H32   H     H_    0.494637 0.975594 0.440400 0.188998
C18   C     C_R   0.892035 0.792212 0.517880 0.328678
C19   C     C_R   0.083016 0.228125 0.509637 0.007686
C20   C     C_R   0.167787 0.170441 0.546512 0.114951
C21   C     C_R   0.092854 0.082613 0.553965 0.052189
C22   C     C_R   0.943669 0.047030 0.512578 0.044705
C23   C     C_R   0.853784 0.110311 0.481043 -0.085976
C24   C     C_R   0.876393 0.951998 0.503483 0.073672
C25   C     C_R   0.712487 0.925389 0.475554 -0.024799
C26   C     C_R   0.621976 0.991838 0.456718 -0.146678
C27   C     C_R   0.694764 0.079499 0.452757 0.064716
C28   C     C_R   0.966786 0.881852 0.519171 -0.325532
C29   C     C_R   0.731596 0.769274 0.492724 -0.533171
C30   C     C_R   0.922865 0.203207 0.481391 0.115095
H33   H     H_    0.094626 0.895424 0.533484 0.204356
H34   H     H_    0.621342 0.122699 0.428304 0.166557
C31   C     C_R   0.613719 0.542521 0.299948 -0.141095
C32   C     C_R   0.463144 0.490581 0.276016 0.232445
C33   C     C_R   0.414117 0.478489 0.202732 -0.289422
C34   C     C_R   0.517988 0.509139 0.153401 0.096813
C35   C     C_R   0.676502 0.548839 0.178592 -0.147503
C36   C     C_R   0.724109 0.566952 0.251387 0.267123
C37   C     C_R   0.459102 0.573415 0.036974 0.300747
C38   C     C_R   0.391984 0.562339 0.965451 0.110930
C39   C     C_R   0.342703 0.474095 0.929502 0.162442
C40   C     C_R   0.341944 0.399989 0.968774 -0.191973
C41   C     C_R   0.397180 0.412026 0.040981 -0.112266
C42   C     C_R   0.460607 0.498153 0.075833 -0.066400
C43   C     C_R   0.142799 0.417415 0.823074 -0.333027
C44   C     C_R   0.090771 0.417146 0.751238 0.220175
C45   C     C_R   0.349003 0.500811 0.733334 0.118504
C46   C     C_R   0.405751 0.497037 0.804623 0.214492
C47   C     C_R   0.298944 0.458934 0.850943 -0.097471
C48   C     C_R   0.193915 0.459214 0.707639 -0.491726
H35   H     H_    0.294456 0.446580 0.183471 0.142968
H36   H     H_    0.299939 0.332152 0.943351 0.150636
H37   H     H_    0.394038 0.353295 0.069478 0.188935
H38   H     H_    0.058130 0.392311 0.858177 0.186785
H39   H     H_    0.763000 0.565900 0.141908 0.185236
H40   H     H_    0.148202 0.465867 0.654418 0.212305
C49   C     C_3   0.013819 0.635458 0.818807 -0.897453
H41   H     H_    0.088314 0.581462 0.813270 0.212119
H42   H     H_    0.030121 0.666621 0.874563 0.284975
H43   H     H_    0.887046 0.605401 0.805072 0.332368
N1    N     N_R   0.983504 0.784875 0.786066 0.299835
O25   O     O_R   0.827387 0.777154 0.780849 -0.326964
O26   O     O_R   0.068627 0.863695 0.806195 -0.350401
N2    N     N_R   0.131629 0.175459 0.300486 0.249167
O27   O     O_R   0.019108 0.145466 0.337911 -0.386769
O28   O     O_R   0.209526 0.117755 0.267931 -0.316601
C50   C     C_3   0.383151 0.707977 0.223749 -0.844062
H44   H     H_    0.500948 0.683826 0.222335 0.227211
H45   H     H_    0.325156 0.682032 0.268849 0.276123
H46   H     H_    0.303776 0.679816 0.175070 0.283140
N3    N     N_R   0.033214 0.208448 0.168190 0.299521
O29   O     O_R   0.083242 0.157925 0.117830 -0.284998
O30   O     O_R   0.882380 0.195444 0.179188 -0.282310
N4    N     N_R   0.526056 0.947276 0.307804 0.208027
O31   O     O_R   0.415464 0.999358 0.303752 -0.375455
O32   O     O_R   0.674675 0.980801 0.303061 -0.400023
N5    N     N_R   0.509832 0.847059 0.180275 0.303956
O33   O     O_R   0.459362 0.902954 0.138794 -0.238325
O34   O     O_R   0.657786 0.831346 0.180848 -0.307145
C51   C     C_3   0.798523 0.147861 0.657776 -0.918934
H47   H     H_    0.864588 0.090528 0.645731 0.203501
H48   H     H_    0.673759 0.118683 0.664315 0.295754
H49   H     H_    0.797302 0.189352 0.613254 0.260001
C52   C     C_3   0.957549 0.199772 0.855538 -0.809350
H50   H     H_    0.887483 0.254203 0.872319 0.275631
H51   H     H_    0.960202 0.153531 0.897106 0.290288
H52   H     H_    0.082934 0.229359 0.849995 0.228263
N6    N     N_R   0.165985 0.311943 0.496549 0.253037
O35   O     O_R   0.281130 0.310203 0.456264 -0.308553
O36   O     O_R   0.163525 0.383201 0.540783 -0.366683
C53   C     C_3   0.156155 0.038600 0.616331 -0.867341
H53   H     H_    0.067437 0.984502 0.631428 0.243322
H54   H     H_    0.270194 0.012819 0.606097 0.269380
H55   H     H_    0.176873 0.088489 0.664182 0.246439
N7    N     N_R   0.565781 0.538229 0.831865 0.247887
O37   O     O_R   0.613675 0.622434 0.824686 -0.353433
O38   O     O_R   0.653071 0.497136 0.873893 -0.376020
C54   C     C_3   0.370775 0.646439 0.930036 -0.668269
H56   H     H_    0.486439 0.692861 0.935187 0.301030
H57   H     H_    0.328504 0.633505 0.873580 0.197854
H58   H     H_    0.279038 0.681522 0.954965 0.251053
N8    N     N_R   0.524400 0.662244 0.069478 0.230124
O39   O     O_R   0.679285 0.686550 0.074944 -0.326657
O40   O     O_R   0.432239 0.724717 0.069774 -0.357375
C55   C     C_3   0.661531 0.574331 0.376458 -0.681878
H59   H     H_    0.709359 0.646979 0.381044 0.172278
H60   H     H_    0.570527 0.579553 0.410882 0.253437
H61   H     H_    0.740388 0.529285 0.399669 0.262564
N9    N     N_R   0.714574 0.337043 0.248258 0.212259
O41   O     O_R   0.624862 0.320467 0.188188 -0.417910
O42   O     O_R   0.845883 0.394548 0.253372 -0.417028

loop_
_geom_bond_atom_site_label_1
_geom_bond_atom_site_label_2
_geom_bond_distance
_ccdc_geom_bond_type
C13   C14   1.539698 S    
C21   C22   1.432709 A    
C33   C34   1.413697 A    
P5    C44   1.851188 S    
C10   N4    1.460525 S    
P4    O12   1.547573 D    
C51   H49   1.107303 S    
C43   C44   1.406420 A    
C15   H27   1.111285 S    
O16   P7    1.757073 S    
N7    O37   1.299912 A    
C1    N5    1.463488 S    
C49   H41   1.094351 S    
N9    O42   1.298691 A    
C19   C20   1.403040 A    
P1    C18   1.846933 S    
H32   C26   1.079632 S    
N3    O30   1.300130 A    
P5    O18   1.539186 D    
C5    H8    1.106871 S    
C53   H53   1.107132 S    
C48   H40   1.077185 S    
O3    P6    1.780010 S    
C4    O15   1.396343 S    
C54   H56   1.110095 S    
C37   C42   1.417533 A    
N4    O32   1.300819 A    
O6    P6    1.750622 S    
P3    C36   1.864904 S    
C9    H15   1.106389 S    
C17   C29   1.386448 A    
C19   C30   1.396765 A    
C16   H30   1.110585 S    
C49   H42   1.109894 S    
P4    C30   1.915742 S    
C31   C55   1.495790 S    
C38   C39   1.419892 A    
C12   H20   1.109646 S    
N5    O33   1.301543 A    
C2    C3    1.520938 S    
C40   C41   1.405218 A    
O14   P8    1.747884 S    
C2    H3    1.111479 S    
P1    Ba1   3.438693 S    
C15   C16   1.518990 S    
O17   Ba2   2.750647 S    
C6    H11   1.109287 S    
P2    Ba1   3.435438 S    
C14   H24   1.112090 S    
C52   H52   1.108925 S    
P3    O11   1.754793 S    
C50   H46   1.108350 S    
P7    O22   1.753503 S    
C39   C40   1.406408 A    
C6    H12   1.104203 S    
O4    P6    1.536532 D    
C38   C54   1.518799 S    
C1    H2    1.112472 S    
N6    O36   1.298602 A    
O12   Ba2   2.878297 S    
C45   C48   1.394963 A    
Ba1   O20   2.962711 S    
C12   H21   1.111108 S    
N8    O40   1.297948 A    
C31   C36   1.413211 A    
C53   H54   1.110623 S    
C3    H5    1.110523 S    
C54   H57   1.097302 S    
P4    O13   1.597106 S    
P6    C17   1.854268 S    
O8    Ba1   2.749964 S    
C15   O24   1.402928 S    
N7    O38   1.301651 A    
C24   C28   1.423870 A    
C51   H48   1.106818 S    
C55   H61   1.109745 S    
P5    O17   1.761635 S    
P8    O24   1.747622 S    
C51   H47   1.103893 S    
P1    O5    1.745763 S    
Ba1   Ba2   4.598279 S    
C40   H36   1.081895 S    
O7    Ba1   2.851408 S    
Ba2   O21   2.851651 S    
N4    O31   1.299302 A    
P7    C45   1.858755 S    
C25   C26   1.394389 A    
O2    Ba2   2.858032 S    
C20   C21   1.410513 A    
C7    N1    1.464758 S    
C46   N7    1.435482 S    
O16   Ba2   2.961854 S    
C28   H33   1.075619 S    
C12   H19   1.109272 S    
H28   C16   1.106332 S    
C21   C53   1.515578 S    
C43   H38   1.080816 S    
P1    O2    1.596980 S    
C18   C29   1.381187 A    
O2    Ba1   2.966031 S    
N2    O28   1.299312 A    
N1    O26   1.301009 A    
P7    O21   1.580054 D    
C8    N2    1.467467 S    
P8    C20   1.872644 S    
C55   H60   1.060757 S    
P2    O10   1.771644 S    
Ba1   O16   2.786018 S    
N9    O41   1.301970 A    
P3    O9    1.546814 D    
C7    H13   1.113812 S    
C11   O22   1.406123 S    
C11   H17   1.110786 S    
O11   C2    1.408462 S    
C6    C7    1.543050 S    
C18   C28   1.404228 A    
C4    H7    1.104737 S    
O19   C13   1.411286 S    
C55   H59   1.102867 S    
C39   C47   1.503573 S    
N6    O35   1.294026 A    
P2    O20   1.562689 S    
O14   Ba2   2.815348 S    
N8    O39   1.300184 A    
C22   C24   1.449926 A    
C53   H55   1.107531 S    
C3    H6    1.105762 S    
C50   H44   1.105178 S    
C52   H51   1.110248 S    
Ba1   O13   2.857362 S    
C34   C42   1.506647 S    
C1    C10   1.528972 S    
O6    C10   1.409119 S    
N1    O25   1.300641 A    
C35   H39   1.080965 S    
C44   C48   1.393328 A    
C41   H37   1.083172 S    
C45   C46   1.416099 A    
N3    O29   1.300921 A    
N5    O34   1.301136 A    
C8    H14   1.096081 S    
H31   C29   1.079298 S    
C3    H22   1.107061 S    
C16   H29   1.109353 S    
C54   H58   1.108678 S    
C4    C5    1.529087 S    
P3    O8    1.759423 S    
C15   H26   1.109780 S    
C49   H43   1.100864 S    
H1    C10   1.112285 S    
P8    O23   1.541903 D    
C43   C47   1.412032 A    
C46   C47   1.425515 A    
C2    H4    1.109085 S    
C37   C38   1.419812 A    
P5    O19   1.755796 S    
C5    H9    1.104757 S    
C37   N8    1.428476 S    
O1    Ba1   2.877719 S    
Ba2   O20   2.785410 S    
C33   H35   1.073149 S    
C23   C30   1.436742 A    
C11   H18   1.110806 S    
N2    O27   1.299315 A    
C31   C32   1.409681 A    
O10   C8    1.414467 S    
C9    H16   1.111065 S    
P2    O7    1.531784 D    
O13   Ba2   2.966762 S    
C24   C25   1.426200 A    
P1    O1    1.547343 D    
C8    C9    1.547107 S    
C26   C27   1.388054 A    
C9    N3    1.461809 S    
C13   H23   1.110993 S    
O5    C6    1.392231 S    
C19   N6    1.412560 S    
C23   C27   1.399842 A    
C34   C35   1.409795 A    
C13   C51   1.524163 S    
C14   C52   1.524805 S    
C17   C25   1.423832 A    
C22   C23   1.441890 A    
C5    H10   1.110548 S    
C14   H25   1.112666 S    
C11   C12   1.522497 S    
C35   C36   1.404520 A    
C50   H45   1.108849 S    
C7    C49   1.520788 S    
P4    O15   1.751759 S    
C52   H50   1.110247 S    
P2    C32   1.882112 S    
C32   C33   1.413871 A    
C41   C42   1.406050 A    
C4    N9    1.464898 S    
C27   H34   1.070536 S    
P4    Ba2   3.439217 S    
O3    Ba1   2.815977 S    
C1    C50   1.529484 S    
