data_mof_unit_21750.cif
_audit_creation_date              2013-03-05T15:42:20-0500
_audit_creation_method            fapswitch 2.2
_symmetry_space_group_name_H-M    P1
_symmetry_Int_Tables_number       1
_space_group_crystal_system       triclinic
_cell_length_a                    16.886893
_cell_length_b                    16.735536
_cell_length_c                    19.471274
_cell_angle_alpha                 117.818749
_cell_angle_beta                  62.298825
_cell_angle_gamma                 100.89404
_cell_volume                      4306.27097273

loop_
_atom_site_label
_atom_site_type_symbol
_atom_site_description
_atom_site_fract_x
_atom_site_fract_y
_atom_site_fract_z
_atom_type_partial_charge
C1    C     C_R   0.041844 0.759301 0.009942 -0.138212
H1    H     H_    0.084345 0.807412 0.036212 0.090238
N1    N     N_R   0.036080 0.671900 0.995420 -0.039406
C2    C     C_R   0.765773 0.415834 0.163578 -0.007319
N2    N     N_R   0.834710 0.454650 0.119760 -0.047166
C3    C     C_R   0.806240 0.558475 0.957673 -0.128568
H2    H     H_    0.819432 0.598267 0.923732 0.091390
N3    N     N_R   0.867430 0.509300 0.948100 -0.045831
C4    C     C_R   0.952756 0.672801 0.248640 -0.105715
H3    H     H_    0.910723 0.651197 0.298294 0.096869
N4    N     N_R   0.003360 0.617250 0.167070 -0.040377
C5    C     C_R   0.738082 0.484816 0.038896 -0.067940
H4    H     H_    0.688250 0.460346 0.083427 0.094712
N5    N     N_R   0.825450 0.461270 0.995400 -0.028646
C6    C     C_R   0.023215 0.752970 0.173748 -0.120826
H5    H     H_    0.049057 0.808088 0.156741 0.088321
N6    N     N_R   0.045340 0.665280 0.119770 -0.041517
C7    C     C_R   0.844585 0.485727 0.238782 -0.153341
H6    H     H_    0.877909 0.499130 0.278679 0.108270
N7    N     N_R   0.883740 0.497640 0.167070 -0.051781
C8    C     C_R   0.963847 0.690324 0.933676 -0.128104
H7    H     H_    0.933880 0.675212 0.890914 0.083781
N8    N     N_R   0.987050 0.628910 0.948110 -0.040186
C9    C     C_R   0.992052 0.774463 0.976743 0.058655
C10   C     C_R   0.769955 0.434003 0.239654 -0.014262
C11   C     C_R   0.724433 0.547830 0.017645 0.023657
C12   C     C_R   0.961410 0.759427 0.254593 0.067616
C13   C     C_R   0.246072 0.575270 0.017930 -0.144517
H8    H     H_    0.279834 0.629456 0.001035 0.090997
N9    N     N_R   0.174550 0.538730 0.004600 -0.043066
C14   C     C_R   0.920918 0.261693 0.835192 -0.110855
H9    H     H_    0.873640 0.219505 0.862740 0.126414
N10   N     N_R   0.954660 0.334720 0.880230 -0.037466
C15   C     C_R   0.174298 0.451954 0.751220 -0.130697
H10   H     H_    0.155924 0.409109 0.699249 0.099673
N11   N     N_R   0.116260 0.502360 0.832930 -0.042873
C16   C     C_R   0.051881 0.307561 0.051014 -0.128478
H11   H     H_    0.092524 0.321084 0.084499 0.114360
N12   N     N_R   0.012950 0.371090 0.051890 -0.048701
C17   C     C_R   0.973812 0.238619 0.974429 -0.074119
H12   H     H_    0.941842 0.188026 0.936531 0.105420
N13   N     N_R   0.963920 0.328100 0.004580 -0.033443
C18   C     C_R   0.251530 0.522771 0.829608 -0.129056
H13   H     H_    0.302643 0.545461 0.852342 0.096369
N14   N     N_R   0.165290 0.545350 0.880240 -0.042588
C19   C     C_R   0.182087 0.493175 0.090221 -0.114360
H14   H     H_    0.160827 0.464619 0.135005 0.137521
N15   N     N_R   0.132570 0.490700 0.051900 -0.046514
C20   C     C_R   0.988331 0.340568 0.759298 -0.147592
H15   H     H_    0.003260 0.371837 0.717261 0.093253
N16   N     N_R   0.996640 0.382750 0.832930 -0.044968
Ni1   Ni    Ni4+2 0.104370 0.604370 0.000010 0.210259
Ni2   Ni    Ni4+2 0.895630 0.395630 0.999990 0.278463
Ni3   Ni    Ni4+2 0.991920 0.505780 0.891500 0.211702
Ni4   Ni    Ni4+2 0.008080 0.494220 0.108500 0.221138
C21   C     C_R   0.252512 0.549877 0.073508 0.098575
C22   C     C_R   0.939538 0.264186 0.758958 0.062428
C23   C     C_R   0.260246 0.462734 0.747609 0.074649
C24   C     C_R   0.029552 0.222388 0.001956 0.044876
C25   C     C_R   0.924484 0.220464 0.624586 -0.254666
C26   C     C_R   0.902818 0.206163 0.696921 0.117692
C27   C     C_R   0.852551 0.131511 0.705545 -0.251215
C28   C     C_R   0.836257 0.064561 0.637110 0.139527
C29   C     C_R   0.868918 0.073770 0.560140 0.028821
C30   C     C_R   0.908962 0.154080 0.555499 0.137835
C31   C     C_R   0.796252 0.984536 0.641228 -0.199787
C32   C     C_R   0.797881 0.910335 0.566749 -0.198950
C33   C     C_R   0.839798 0.915860 0.487883 0.139349
C34   C     C_R   0.870791 0.999158 0.485261 0.027738
C35   C     C_R   0.912972 0.005173 0.406104 0.141037
C36   C     C_R   0.943203 0.088383 0.404141 -0.201523
C37   C     C_R   0.941242 0.162720 0.478731 -0.199839
C38   C     C_R   0.860599 0.837767 0.410920 -0.248204
C39   C     C_R   0.915301 0.841917 0.332026 0.115935
C40   C     C_R   0.933443 0.926240 0.329660 -0.252436
H16   H     H_    0.960144 0.279225 0.618026 0.118632
H17   H     H_    0.832413 0.120937 0.762066 0.122045
H18   H     H_    0.769396 0.977281 0.700470 0.132073
H19   H     H_    0.772412 0.846955 0.569687 0.131139
H20   H     H_    0.841327 0.773601 0.413742 0.118828
H21   H     H_    0.970746 0.930795 0.269045 0.114081
H22   H     H_    0.974212 0.094237 0.343943 0.126683
H23   H     H_    0.970662 0.224802 0.474897 0.133868
C41   C     C_R   0.348723 0.358097 0.592303 -0.254241
C42   C     C_R   0.345881 0.422760 0.672266 0.114430
C43   C     C_R   0.426210 0.456791 0.678623 -0.251675
C44   C     C_R   0.506164 0.439318 0.605077 0.140382
C45   C     C_R   0.507197 0.382438 0.523942 0.026939
C46   C     C_R   0.429562 0.337377 0.517629 0.138614
C47   C     C_R   0.582859 0.485252 0.611227 -0.201433
C48   C     C_R   0.657108 0.482859 0.537280 -0.206424
C49   C     C_R   0.655652 0.432872 0.456796 0.136691
C50   C     C_R   0.583153 0.377802 0.449351 0.030952
C51   C     C_R   0.583277 0.324766 0.368065 0.143744
C52   C     C_R   0.509866 0.271427 0.361616 -0.199126
C53   C     C_R   0.432733 0.278768 0.436194 -0.198308
C54   C     C_R   0.720569 0.444754 0.385494 -0.249003
C55   C     C_R   0.715451 0.400632 0.306061 0.113603
C56   C     C_R   0.652849 0.332558 0.295894 -0.279767
H24   H     H_    0.287784 0.328415 0.587118 0.122647
H25   H     H_    0.426686 0.504208 0.739545 0.116408
H26   H     H_    0.583029 0.528240 0.673462 0.129009
H27   H     H_    0.713346 0.524118 0.543534 0.131592
H28   H     H_    0.769989 0.494834 0.395083 0.120550
H29   H     H_    0.654246 0.288357 0.233865 0.121494
H30   H     H_    0.509510 0.229381 0.299344 0.135394
H31   H     H_    0.374283 0.242250 0.430187 0.134888
C57   C     C_R   0.639247 0.591245 0.048679 0.134533
C58   C     C_R   0.319895 0.582612 0.108318 0.054179
C59   C     C_R   0.400138 0.569470 0.178894 -0.254494
C60   C     C_R   0.319912 0.565002 0.172950 0.201298
C61   C     C_R   0.394025 0.624487 0.066575 -0.300612
C62   C     C_R   0.473137 0.628840 0.072532 0.193204
C63   C     C_R   0.478161 0.594383 0.123917 0.144749
C64   C     C_R   0.561726 0.578125 0.113558 -0.251370
C65   C     C_R   0.632873 0.637584 0.006941 -0.164220
C66   C     C_R   0.549838 0.656943 0.019397 -0.214295
H32   H     H_    0.565630 0.547520 0.150140 0.116729
H33   H     H_    0.691143 0.652900 0.959595 0.114622
H34   H     H_    0.402291 0.549733 0.223701 0.161669
H35   H     H_    0.546272 0.686112 0.981487 0.123927
H36   H     H_    0.395443 0.644621 0.020856 0.126076
C67   C     C_R   0.835311 0.182063 0.143442 0.134995
C68   C     C_R   0.964578 0.863289 0.993257 0.127776
C69   C     C_R   0.891016 0.949710 0.965768 -0.219644
C70   C     C_R   0.929970 0.868835 0.942330 -0.171563
C71   C     C_R   0.962501 0.941534 0.066709 -0.271808
C72   C     C_R   0.922481 0.022740 0.091293 0.189988
C73   C     C_R   0.885229 0.026428 0.040999 0.177036
C74   C     C_R   0.841374 0.106328 0.067867 -0.282673
C75   C     C_R   0.872965 0.178966 0.192610 -0.156953
C76   C     C_R   0.916422 0.099662 0.166865 -0.224728
H37   H     H_    0.811680 0.110356 0.030770 0.145857
H38   H     H_    0.867913 0.238094 0.250994 0.131787
H39   H     H_    0.863466 0.951620 0.926166 0.128490
H40   H     H_    0.944399 0.098158 0.206328 0.126481
H41   H     H_    0.931162 0.810143 0.885168 0.117239
H42   H     H_    0.987697 0.938311 0.107415 0.115996
C77   C     C_2   0.711944 0.347814 0.123746 0.410374
H43   H     H_    0.640641 0.345599 0.161077 0.013818
O1    O     O_2   0.746367 0.295949 0.047233 -0.605147
I1    I     I_    0.205190 0.541253 0.270581 -0.480462

loop_
_geom_bond_atom_site_label_1
_geom_bond_atom_site_label_2
_geom_bond_distance
_ccdc_geom_bond_type
N15   Ni4   1.862714 S    
C44   C45   1.406869 A    
C70   H41   1.081779 S    
C50   C51   1.406889 A    
C38   C39   1.404979 A    
C27   H17   1.081302 S    
N1    N8    1.384589 A    
C52   C53   1.398502 A    
C75   H38   1.081944 S    
C72   C73   1.415055 A    
C2    C10   1.400145 A    
C13   C21   1.385500 A    
N2    N7    1.384589 A    
C42   C43   1.406450 A    
C16   H11   1.080255 S    
C57   C64   1.403752 A    
N9    N15   1.365811 A    
C13   H8    1.079006 S    
C7    H6    1.080086 S    
C58   C60   1.420262 A    
N13   Ni2   1.815995 S    
C6    H5    1.072170 S    
C9    C68   1.484696 S    
C20   C22   1.382759 A    
C65   C66   1.382819 A    
C15   H10   1.079357 S    
C66   H35   1.084223 S    
C59   C60   1.397785 A    
C47   H26   1.083883 S    
C60   I1    2.124862 S    
C19   H14   1.072691 S    
N12   Ni4   1.824227 S    
C33   C34   1.409147 A    
C20   N16   1.333610 A    
C14   N10   1.337294 A    
C35   C36   1.401464 A    
C71   H42   1.083634 S    
C12   C39   1.468836 S    
C4    H3    1.077281 S    
C59   C63   1.397621 A    
C15   N11   1.346686 A    
C18   C23   1.385831 A    
C36   H22   1.083912 S    
C69   H39   1.083623 S    
C17   N13   1.340864 A    
C31   C32   1.393150 A    
C28   C31   1.401535 A    
C17   C24   1.395941 A    
C8    H7    1.077108 S    
C26   C27   1.404302 A    
C7    C10   1.385402 A    
N7    Ni4   1.863030 S    
C56   H29   1.073659 S    
C72   C76   1.405249 A    
N6    Ni1   1.864078 S    
C61   C62   1.379467 A    
C49   C54   1.388905 A    
C54   C55   1.406799 A    
N12   N13   1.384589 A    
N10   Ni2   1.864078 S    
C31   H18   1.083779 S    
C77   H43   1.083554 S    
C19   N15   1.340098 A    
C39   C40   1.404133 A    
C32   C33   1.401750 A    
C41   H24   1.082809 S    
C32   H19   1.083821 S    
C41   C42   1.405398 A    
C58   C61   1.404597 A    
C11   C57   1.462709 S    
C48   C49   1.400268 A    
C43   C44   1.385627 A    
C40   H21   1.081767 S    
C3    N3    1.333764 A    
N14   Ni1   1.864441 S    
C33   C38   1.390426 A    
C25   H16   1.080694 S    
C5    C11   1.387194 A    
C25   C26   1.406159 A    
C1    N1    1.347106 A    
C18   H13   1.076836 S    
C61   H36   1.078737 S    
C27   C28   1.391959 A    
C52   H30   1.083606 S    
C4    N4    1.333195 A    
C6    C12   1.391162 A    
C14   H9    1.079756 S    
C76   H40   1.083657 S    
C64   H32   1.082131 S    
N11   N14   1.384589 A    
C29   C34   1.399544 A    
C5    H4    1.072596 S    
C18   N14   1.327059 A    
C16   C24   1.395467 A    
C68   C71   1.408606 A    
C62   C66   1.395453 A    
C17   H12   1.080444 S    
C53   H31   1.083530 S    
C5    N5    1.340088 A    
C25   C30   1.391197 A    
C55   C56   1.408357 A    
C51   C52   1.404019 A    
C8    N8    1.346508 A    
C67   C74   1.396623 A    
C69   C70   1.397785 A    
C8    C9    1.388736 A    
C74   H37   1.082927 S    
C41   C46   1.400306 A    
C59   H34   1.083789 S    
C71   C72   1.404301 A    
C23   C42   1.472485 S    
C21   C58   1.479585 S    
N4    Ni4   1.825434 S    
C4    C12   1.383949 A    
N8    Ni3   1.824227 S    
C68   C70   1.406660 A    
C62   C63   1.405953 A    
N2    Ni2   1.864441 S    
C6    N6    1.341813 A    
N9    Ni1   1.816989 S    
C45   C50   1.400395 A    
N4    N6    1.365813 A    
N3    N5    1.365814 A    
C67   C75   1.395812 A    
C48   H27   1.083818 S    
C2    N2    1.346544 A    
N1    Ni1   1.815996 S    
C22   C26   1.469880 S    
C3    H2    1.071301 S    
N10   N16   1.365813 A    
C30   C37   1.402433 A    
C65   H33   1.079662 S    
N3    Ni3   1.862712 S    
N16   Ni3   1.825433 S    
C29   C30   1.408843 A    
C14   C22   1.386688 A    
C46   C53   1.403030 A    
C13   N9    1.328235 A    
C73   C74   1.404048 A    
C36   C37   1.393764 A    
C16   N12   1.341536 A    
C2    C77   1.471034 S    
C77   O1    1.220436 D    
C57   C65   1.405200 A    
C47   C48   1.390526 A    
C3    C11   1.380259 A    
C51   C56   1.396499 A    
C1    H1    1.078664 S    
C49   C50   1.408225 A    
C38   H20   1.080939 S    
C7    N7    1.333522 A    
C63   C64   1.391173 A    
C34   C35   1.410712 A    
C54   H28   1.080834 S    
N11   Ni3   1.863028 S    
C37   H23   1.083814 S    
C28   C29   1.410330 A    
C69   C73   1.400958 A    
C10   C55   1.484664 S    
N5    Ni2   1.816991 S    
C45   C46   1.411432 A    
C1    C9    1.388628 A    
C20   H15   1.079546 S    
C44   C47   1.401645 A    
C19   C21   1.386578 A    
C35   C40   1.392494 A    
C15   C23   1.400725 A    
C43   H25   1.079259 S    
C75   C76   1.398721 A    
