data_mof_unit_45210.cif
_audit_creation_date              2012-12-11T15:57:44-0500
_audit_creation_method            fapswitch 2.2
_symmetry_space_group_name_H-M    P1
_symmetry_Int_Tables_number       1
_space_group_crystal_system       triclinic
_cell_length_a                    10.760799
_cell_length_b                    10.730184
_cell_length_c                    16.958466
_cell_angle_alpha                 99.712884
_cell_angle_beta                  99.901314
_cell_angle_gamma                 61.143889
_cell_volume                      1681.08100289

loop_
_atom_site_label
_atom_site_type_symbol
_atom_type_description
_atom_site_fract_x
_atom_site_fract_y
_atom_site_fract_z
_atom_type_partial_charge
C1    C     C_R   0.379228 0.715416 0.388080 0.539133
C2    C     C_2   0.826483 0.332649 0.158379 -0.109061
C3    C     C_2   0.848026 0.219955 0.193621 -0.157741
C4    C     C_2   0.820490 0.236015 0.276474 -0.164424
C5    C     C_2   0.364871 0.765058 0.311268 -0.107283
C6    C     C_2   0.357485 0.792042 0.144598 -0.113724
C7    C     C_2   0.460367 0.795598 0.200191 -0.160520
C8    C     C_2   0.479088 0.745243 0.278527 -0.167982
C9    C     C_2   0.305061 0.315246 0.638596 -0.107488
C10   C     C_2   0.312537 0.309465 0.810033 -0.094285
C11   C     C_2   0.357367 0.192749 0.756069 -0.153028
C12   C     C_R   0.406699 0.375079 0.356177 0.543263
C13   C     C_2   0.381467 0.196949 0.675446 -0.157529
C14   C     C_1   0.847793 0.328193 0.704824 -0.034618
C15   C     C_1   0.895263 0.292683 0.771394 -0.033406
C16   C     C_1   0.338949 0.811645 0.708921 -0.043103
C17   C     C_1   0.312626 0.838698 0.776995 -0.040760
C18   C     C_R   0.893205 0.308575 0.086367 0.567227
C19   C     C_R   0.321966 0.303027 0.118701 0.554645
C20   C     C_R   0.296579 0.885931 0.081067 0.558801
C21   C     C_R   0.944645 0.272624 0.853952 0.557171
C22   C     C_R   0.303813 0.288684 0.890248 0.543104
C23   C     C_R   0.775831 0.376782 0.404511 0.537674
C24   C     C_R   0.278476 0.884556 0.856735 0.538676
C25   C     C_R   0.357943 0.770904 0.626877 0.560550
C26   C     C_R   0.365065 0.344732 0.578815 0.570328
C27   C     C_R   0.778039 0.378574 0.628806 0.555166
C28   C     C_1   0.375809 0.363485 0.271556 -0.046382
C29   C     C_1   0.350253 0.344808 0.200534 -0.040821
C30   C     C_2   0.844606 0.329882 0.331279 -0.107863
Cr1   Cr    Cr6+3 0.608020 0.610770 0.522990 1.028478
Cr2   Cr    Cr6+3 0.289390 0.599570 0.488050 1.032619
Cr3   Cr    Cr6+3 0.602610 0.289690 0.489020 1.027578
Cr4   Cr    Cr6+3 0.053780 0.052210 0.965970 1.034075
Cr5   Cr    Cr6+3 0.060060 0.372530 0.992430 1.032897
Cr6   Cr    Cr6+3 0.372600 0.061970 0.991430 1.027273
H1    H     H_    0.891371 0.112641 0.162704 0.163085
H2    H     H_    0.278449 0.416341 0.794789 0.100110
H3    H     H_    0.207478 0.401178 0.661053 0.112677
H4    H     H_    0.774000 0.173669 0.291060 0.162420
H5    H     H_    0.778577 0.440293 0.188828 0.106555
H6    H     H_    0.895316 0.388362 0.316721 0.116636
H7    H     H_    0.520716 0.848662 0.191998 0.161458
H8    H     H_    0.584929 0.699936 0.311220 0.156914
H9    H     H_    0.302171 0.733430 0.152312 0.107023
H10   H     H_    0.257999 0.816788 0.280265 0.119992
H11   H     H_    0.390942 0.087258 0.773610 0.159162
O1    O     O_R   0.749250 0.499990 0.439200 -0.522452
O2    O     O_R   0.299400 0.468710 0.556310 -0.493309
O3    O     O_R   0.489240 0.256450 0.560730 -0.502225
O4    O     O_R   0.723350 0.306730 0.584410 -0.489776
O5    O     O_3   0.500010 0.500010 0.500020 -0.292230
O6    O     O_R   0.170650 0.915100 0.051290 -0.516302
O7    O     O_R   0.941960 0.184500 0.049060 -0.491267
O8    O     O_R   0.922640 0.402670 0.071640 -0.505342
O9    O     O_R   0.196880 0.368740 0.083740 -0.493307
O10   O     O_R   0.411120 0.181190 0.091480 -0.505526
O11   O     O_R   0.364220 0.944920 0.062310 -0.490121
O12   O     O_R   0.477870 0.725740 0.440280 -0.484635
O13   O     O_R   0.158740 0.906940 0.874970 -0.509660
O14   O     O_R   0.930920 0.176940 0.885610 -0.484850
O15   O     O_R   0.910730 0.394510 0.895320 -0.501317
O16   O     O_R   0.185840 0.361180 0.920280 -0.511098
O17   O     O_R   0.399210 0.173040 0.915160 -0.508209
O18   O     O_R   0.353170 0.937370 0.898860 -0.506741
O19   O     O_3   0.162150 0.162240 0.983280 -0.275986
O20   O     O_R   0.260770 0.742210 0.412610 -0.509837
O21   O     O_R   0.297990 0.466320 0.394220 -0.500483
O22   O     O_R   0.487720 0.253870 0.385870 -0.499352
O23   O     O_R   0.721940 0.304340 0.422320 -0.515407
O24   O     O_R   0.750770 0.502570 0.614050 -0.500807
O25   O     O_R   0.479280 0.728140 0.602370 -0.488030
O26   O     O_R   0.262290 0.744790 0.587460 -0.500804
H12   H     H_    0.474336 0.107012 0.650812 0.164399

loop_
_geom_bond_atom_site_label_1
_geom_bond_atom_site_label_2
_ccdc_geom_bond_type
C19   O9    A    
C12   O22   A    
C6    H9    S    
C2    C18   S    
C11   H11   S    
Cr1   O5    S    
Cr4   O19   S    
C7    C8    S    
C10   C22   S    
Cr3   O5    S    
C12   O21   A    
C12   C28   S    
C1    C5    S    
C28   C29   T    
Cr6   O11   S    
C26   O3    A    
Cr6   O19   S    
C2    H5    S    
C9    H3    S    
Cr1   O12   S    
C9    C13   D    
Cr2   O5    S    
C22   O16   A    
C4    H4    S    
C16   C17   T    
C7    H7    S    
C14   C27   S    
C21   O14   A    
Cr3   O22   S    
Cr2   O21   S    
Cr1   O24   S    
Cr4   O13   S    
C23   O23   A    
C27   O4    A    
C9    C26   S    
C17   C24   S    
Cr5   O8    S    
C23   C30   S    
Cr6   O10   S    
C26   O2    A    
Cr2   O26   S    
Cr6   O18   S    
Cr5   O19   S    
Cr3   O3    S    
Cr4   O14   S    
C19   O10   A    
C24   O13   A    
C25   O25   A    
C21   O15   A    
C24   O18   A    
Cr2   O20   S    
C18   O8    A    
Cr1   O25   S    
Cr4   O7    S    
Cr1   O1    S    
Cr3   O23   S    
C20   O11   A    
C3    C4    S    
C19   C29   S    
C27   O24   A    
C16   C25   S    
C23   O1    A    
Cr5   O9    S    
C8    H8    S    
C20   O6    A    
C5    C8    D    
C6    C7    D    
Cr3   O4    S    
C6    C20   S    
C5    H10   S    
C10   H2    S    
C1    O12   A    
C2    C3    D    
C11   C13   S    
C1    O20   A    
Cr5   O15   S    
C25   O26   A    
Cr2   O2    S    
C10   C11   D    
C18   O7    A    
C22   O17   A    
C15   C21   S    
C13   H12   S    
C3    H1    S    
Cr4   O6    S    
C14   C15   T    
C30   H6    S    
Cr5   O16   S    
Cr6   O17   S    
C4    C30   D    
