data_mof_unit_58550.cif
_audit_creation_date              2012-12-10T17:02:28-0500
_audit_creation_method            fapswitch 2.2
_symmetry_space_group_name_H-M    P1
_symmetry_Int_Tables_number       1
_space_group_crystal_system       triclinic
_cell_length_a                    10.765784
_cell_length_b                    11.02067
_cell_length_c                    9.917736
_cell_angle_alpha                 111.024189
_cell_angle_beta                  98.041368
_cell_angle_gamma                 92.076465
_cell_volume                      1082.80263586

loop_
_atom_site_label
_atom_site_type_symbol
_atom_type_description
_atom_site_fract_x
_atom_site_fract_y
_atom_site_fract_z
_atom_type_partial_charge
C1    C     C_R   0.490343 0.254296 0.440722 0.835992
C2    C     C_R   0.509656 0.745704 0.559278 0.835992
C3    C     C_2   0.485032 0.114626 0.407601 -0.359813
C4    C     C_2   0.514968 0.885374 0.592399 -0.359813
C5    C     C_2   0.502626 0.069647 0.516200 -0.140450
C6    C     C_2   0.497374 0.930353 0.483800 -0.140450
C7    C     C_2   0.511631 0.510891 0.080581 0.379134
C8    C     C_2   0.488369 0.489109 0.919419 0.379134
C9    C     C_R   0.263352 0.500306 0.501156 0.788207
C10   C     C_R   0.736648 0.499694 0.498844 0.788206
C11   C     C_R   0.144461 0.737246 0.551387 -0.133412
C12   C     C_R   0.855538 0.262754 0.448613 -0.133412
C13   C     C_R   0.086758 0.852492 0.573640 -0.136287
C14   C     C_R   0.913242 0.147508 0.426360 -0.136286
C15   C     C_R   0.957201 0.851782 0.570114 -0.130219
C16   C     C_R   0.042799 0.148218 0.429887 -0.130218
C17   C     C_R   0.884892 0.735844 0.544445 -0.093218
C18   C     C_R   0.115108 0.264156 0.455555 -0.093218
C19   C     C_R   0.941674 0.617623 0.521938 0.074185
C20   C     C_R   0.058326 0.382377 0.478062 0.074185
C21   C     C_R   0.072912 0.618318 0.525386 0.063286
C22   C     C_R   0.927088 0.381682 0.474614 0.063286
C23   C     C_R   0.870285 0.499341 0.496756 -0.154429
C24   C     C_R   0.129715 0.500659 0.503244 -0.154429
Cu1   Cu    Cu3+1 0.521920 0.521810 0.644910 1.008246
Cu2   Cu    Cu3+1 0.478080 0.478190 0.355090 1.008246
H1    H     H_    0.087469 0.058597 0.412241 0.141892
H2    H     H_    0.912531 0.941403 0.587760 0.141892
H3    H     H_    0.245393 0.742535 0.555406 0.121537
H4    H     H_    0.754607 0.257464 0.444594 0.121537
H5    H     H_    0.142919 0.942663 0.594067 0.151015
H6    H     H_    0.857081 0.057336 0.405934 0.151015
H7    H     H_    0.784462 0.739981 0.542606 0.139250
H8    H     H_    0.215538 0.260019 0.457394 0.139250
H9    H     H_    0.478802 0.864239 0.369858 0.214961
H10   H     H_    0.521198 0.135761 0.630142 0.214961
H11   H     H_    0.533204 0.951852 0.706145 0.163748
H12   H     H_    0.466795 0.048148 0.293855 0.163748
H13   H     H_    0.625779 0.623470 0.929922 0.221300
H14   H     H_    0.374220 0.376530 0.070078 0.221300
N1    N     N_2   0.445130 0.445420 0.137360 -0.296258
N2    N     N_2   0.554870 0.554580 0.862640 -0.296258
O1    O     O_R   0.511700 0.332340 0.577400 -0.529532
O2    O     O_R   0.488300 0.667660 0.422600 -0.529532
O3    O     O_R   0.474680 0.295500 0.332650 -0.583940
O4    O     O_R   0.525320 0.704500 0.667350 -0.583940
O5    O     O_R   0.338170 0.518410 0.622370 -0.516474
O6    O     O_R   0.661830 0.481590 0.377630 -0.516474
O7    O     O_R   0.301150 0.481570 0.377630 -0.580049
O8    O     O_R   0.698850 0.518430 0.622370 -0.580048
Cl1   Cl    Cl    0.366026 0.370202 0.806230 -0.648673
Cl2   Cl    Cl    0.633974 0.629798 0.193770 -0.648672

loop_
_geom_bond_atom_site_label_1
_geom_bond_atom_site_label_2
_ccdc_geom_bond_type
Cu1   N2    S    
C19   C23   A    
C3    H12   S    
C9    C24   S    
C19   C21   A    
C10   C23   S    
C11   C13   A    
Cu1   O5    S    
C2    C4    S    
Cu2   O6    S    
C3    C5    D    
Cu1   O1    S    
C16   H1    S    
C7    N1    D    
C12   C14   A    
Cu2   O2    S    
C7    C8    S    
C2    O4    A    
C18   H8    S    
C8    Cl1   S    
C1    O3    A    
C15   H2    S    
C17   H7    S    
C16   C18   A    
H14   N1    S    
C17   C19   A    
C8    N2    D    
C7    Cl2   S    
C9    O5    A    
H13   N2    S    
C18   C20   A    
C13   C15   A    
C10   O6    A    
C5    C6    S    
C14   C16   A    
Cu2   O7    S    
C11   C21   A    
C10   O8    A    
C5    H10   S    
C12   C22   A    
C9    O7    A    
C6    H9    S    
C11   H3    S    
C4    C6    D    
C21   C24   A    
C14   H6    S    
C15   C17   A    
C13   H5    S    
Cu1   O8    S    
Cu2   O3    S    
C12   H4    S    
Cu1   Cu2   S    
C22   C23   A    
Cu1   O4    S    
C1    O1    A    
C2    O2    A    
C20   C24   A    
Cu2   N1    S    
C20   C22   A    
C4    H11   S    
C1    C3    S    
