data_mof_unit_16036.cif
_audit_creation_date              2012-12-11T17:08:26-0500
_audit_creation_method            fapswitch 2.2
_symmetry_space_group_name_H-M    P1
_symmetry_Int_Tables_number       1
_space_group_crystal_system       triclinic
_cell_length_a                    7.021195
_cell_length_b                    14.639347
_cell_length_c                    16.079578
_cell_angle_alpha                 90.063593
_cell_angle_beta                  89.781513
_cell_angle_gamma                 89.898821
_cell_volume                      1652.73521657

loop_
_atom_site_label
_atom_site_type_symbol
_atom_type_description
_atom_site_fract_x
_atom_site_fract_y
_atom_site_fract_z
_atom_type_partial_charge
O1    O     O_R   0.505700 0.583890 0.413310 -0.549413
O2    O     O_R   0.175960 0.594920 0.586080 -0.564643
O3    O     O_R   0.005660 0.416110 0.586690 -0.546341
C1    C     C_R   0.344620 0.617696 0.613873 0.683648
O4    O     O_R   0.175980 0.594920 0.413930 -0.541146
O5    O     O_R   0.005680 0.416110 0.413310 -0.495462
C2    C     C_R   0.345958 0.619424 0.387249 0.712679
O6    O     O_R   0.505680 0.583890 0.586690 -0.522342
O7    O     O_3   0.339200 0.441330 0.500000 -0.360134
V1    V     V_3+5 0.064350 0.510880 0.500000 1.411296
O8    O     O_R   0.675960 0.405080 0.413920 -0.530919
C3    C     C_R   0.844825 0.381079 0.386797 0.766119
O9    O     O_R   0.675940 0.405080 0.586070 -0.546005
C4    C     C_R   0.844946 0.383801 0.615311 0.695701
V2    V     V_3+5 0.564340 0.489120 0.500000 1.423963
O10   O     O_3   0.839360 0.558670 0.500000 -0.404315
C5    C     C_R   0.991644 0.323983 0.749240 0.096075
C6    C     C_R   0.853757 0.318051 0.686068 -0.110883
C7    C     C_R   0.713895 0.249800 0.695793 -0.155847
H1    H     H_    0.605005 0.241667 0.649176 0.172052
C8    C     C_R   0.720924 0.186875 0.762345 -0.164446
H2    H     H_    0.612028 0.134902 0.766340 0.128361
C9    C     C_R   0.873821 0.187168 0.819222 -0.096155
C10   C     C_R   0.002405 0.259424 0.812741 -0.001703
C11   C     C_3   0.213875 0.261231 0.816708 -0.346195
C12   C     C_3   0.204788 0.333411 0.747997 0.417831
H3    H     H_    0.277751 0.195300 0.796306 0.174625
H4    H     H_    0.266845 0.285518 0.877738 0.135760
C13   C     C_R   0.722435 0.189568 0.233592 0.004239
C14   C     C_R   0.877145 0.188382 0.179636 -0.113177
C15   C     C_R   0.013041 0.257149 0.189898 -0.303462
H5    H     H_    0.120081 0.264834 0.142616 0.137526
C16   C     C_R   0.997663 0.322012 0.255432 0.390757
C17   C     C_R   0.856593 0.312000 0.318230 -0.179664
C18   C     C_R   0.721149 0.240911 0.307744 -0.073897
C19   C     C_3   0.505376 0.246223 0.302329 0.413465
C20   C     C_3   0.519611 0.211578 0.211913 -0.047224
H6    H     H_    0.430110 0.150975 0.197994 0.138953
C21   C     C_R   0.506723 0.748335 0.687448 0.000382
C22   C     C_R   0.353223 0.687786 0.680683 -0.052796
C23   C     C_R   0.213935 0.691568 0.743791 -0.220410
H7    H     H_    0.101548 0.641700 0.743796 0.156964
C24   C     C_R   0.229486 0.753949 0.810969 -0.221533
H8    H     H_    0.132895 0.752356 0.862788 0.120895
C25   C     C_R   0.379439 0.815952 0.815978 -0.089007
C26   C     C_R   0.521674 0.807394 0.755939 0.065754
C27   C     C_3   0.726692 0.783462 0.768426 0.212747
C28   C     C_3   0.714871 0.726668 0.688323 0.164389
H9    H     H_    0.789955 0.756485 0.633399 0.064177
C29   C     C_R   0.511537 0.691934 0.263443 0.070681
C30   C     C_R   0.359122 0.690011 0.320185 -0.125143
C31   C     C_R   0.217040 0.756684 0.309196 -0.176312
H10   H     H_    0.102912 0.761849 0.353798 0.180831
C32   C     C_R   0.227928 0.821062 0.243830 -0.187754
H11   H     H_    0.117847 0.872644 0.238955 0.133528
C33   C     C_R   0.380291 0.819646 0.186128 -0.129971
C34   C     C_R   0.520304 0.752622 0.196579 0.020559
C35   C     C_3   0.731745 0.764010 0.205564 -0.037748
C36   C     C_3   0.722809 0.695357 0.277833 0.371551
H12   H     H_    0.763725 0.834179 0.228564 0.127816
O11   O     O_R   0.229000 0.916070 0.913330 -0.543204
O12   O     O_R   0.558770 0.905070 0.086080 -0.542492
O13   O     O_R   0.729000 0.083900 0.086690 -0.535643
C37   C     C_R   0.390296 0.885563 0.116301 0.706966
O14   O     O_R   0.558720 0.905070 0.913930 -0.537431
O15   O     O_R   0.728960 0.083900 0.913310 -0.540040
C38   C     C_R   0.390373 0.883029 0.885438 0.702937
O16   O     O_R   0.229050 0.916070 0.086710 -0.543166
O17   O     O_3   0.395460 0.058650 0.000020 -0.375077
V3    V     V_3+5 0.670340 0.989120 0.000000 1.359410
O18   O     O_R   0.058670 0.094960 0.913900 -0.540327
C39   C     C_R   0.889335 0.116863 0.885465 0.700089
O19   O     O_R   0.058720 0.094960 0.086050 -0.547868
C40   C     C_R   0.889162 0.119218 0.112365 0.717850
V4    V     V_3+5 0.170330 0.010930 0.999970 1.351359
O20   O     O_3   0.895340 0.941350 0.999980 -0.389200
C41   C     C_3   0.401483 0.180570 0.363087 -0.285641
C42   C     C_3   0.481129 0.083030 0.367748 -0.832211
H13   H     H_    0.472310 0.048093 0.306625 0.222115
H14   H     H_    0.631239 0.083538 0.389181 0.237582
H15   H     H_    0.395982 0.043013 0.413172 0.233151
H16   H     H_    0.406834 0.210606 0.426585 0.195900
H17   H     H_    0.249030 0.176757 0.345016 0.182114
C43   C     C_3   0.510175 0.289478 0.144828 -0.385151
C44   C     C_3   0.479729 0.257625 0.055743 -0.709432
H18   H     H_    0.608790 0.224599 0.030153 0.239878
H19   H     H_    0.355162 0.211830 0.052379 0.245189
H20   H     H_    0.449661 0.317904 0.015961 0.184142
H21   H     H_    0.391599 0.336027 0.158609 0.194880
H22   H     H_    0.639737 0.332908 0.146141 0.183788
C45   C     C_3   0.763166 0.724304 0.848712 -0.296463
C46   C     C_3   0.609512 0.655451 0.876173 -0.712820
H23   H     H_    0.503269 0.688360 0.917677 0.202417
H24   H     H_    0.537855 0.622769 0.822870 0.272668
H25   H     H_    0.675901 0.599212 0.912205 0.200035
H26   H     H_    0.887363 0.680539 0.837569 0.187059
H27   H     H_    0.795337 0.769938 0.901894 0.171172
C47   C     C_3   0.860439 0.868046 0.759794 -0.415073
C48   C     C_3   0.781363 0.947619 0.708402 -0.785668
H28   H     H_    0.744485 0.924632 0.644658 0.223281
H29   H     H_    0.653139 0.976894 0.738945 0.221909
H30   H     H_    0.890593 0.002157 0.703583 0.227030
H31   H     H_    0.896780 0.894998 0.822300 0.215163
H32   H     H_    0.994069 0.847068 0.728657 0.201813
O21   O     O_3   0.750964 0.633171 0.700472 -0.647611
H33   H     H_    0.839991 0.613776 0.655925 0.308362
C49   C     C_3   0.857364 0.744058 0.127907 -0.345102
C50   C     C_3   0.799438 0.666551 0.070055 -0.776286
H34   H     H_    0.853283 0.600055 0.092341 0.235240
H35   H     H_    0.643352 0.665045 0.059913 0.233024
H36   H     H_    0.873104 0.676632 0.009884 0.211203
H37   H     H_    0.860490 0.807143 0.090365 0.221044
H38   H     H_    0.006211 0.731880 0.146848 0.183895
O22   O     O_3   0.766673 0.740340 0.352774 -0.677217
H39   H     H_    0.749547 0.696987 0.399230 0.300312
C51   C     C_3   0.826336 0.601855 0.266912 -0.274329
C52   C     C_3   0.699562 0.527722 0.229294 -0.844955
H40   H     H_    0.587680 0.512194 0.275124 0.233567
H41   H     H_    0.625031 0.549768 0.172313 0.231020
H42   H     H_    0.782968 0.466018 0.214447 0.224762
H43   H     H_    0.959924 0.608770 0.230699 0.182047
H44   H     H_    0.871120 0.576307 0.328629 0.205801
O23   O     O_3   0.283697 0.298925 0.673876 -0.660071
H45   H     H_    0.312338 0.350903 0.636682 0.308881
C53   C     C_3   0.281441 0.428971 0.773802 -0.362975
C54   C     C_3   0.175092 0.474040 0.846736 -0.824840
H46   H     H_    0.024380 0.487586 0.829943 0.234413
H47   H     H_    0.179752 0.431140 0.903427 0.225897
H48   H     H_    0.243030 0.540292 0.861874 0.230096
H49   H     H_    0.434734 0.422570 0.789847 0.192424
H50   H     H_    0.270848 0.475767 0.719926 0.168409
O24   O     O_3   0.104426 0.401009 0.254112 -0.627156
H51   H     H_    0.142272 0.413679 0.195885 0.267636
O25   O     O_3   0.427997 0.333904 0.311487 -0.608821
H52   H     H_    0.508694 0.376620 0.280490 0.289063

loop_
_geom_bond_atom_site_label_1
_geom_bond_atom_site_label_2
_ccdc_geom_bond_type
C23   H7    S    
C54   H46   S    
C23   C24   A    
O19   C40   A    
C4    C6    S    
C7    H1    S    
C1    O6    A    
O22   H39   S    
O23   H45   S    
C41   C42   S    
O11   V4    S    
O16   V4    S    
C20   H6    S    
C27   C47   S    
C51   H44   S    
C29   C36   S    
C37   O16   A    
C19   C20   S    
C7    C8    A    
C6    C7    A    
C19   C41   S    
C52   H41   S    
O5    C3    A    
C14   C15   A    
C14   C40   S    
C42   H14   S    
C41   H17   S    
C35   H12   S    
C47   H31   S    
C50   H34   S    
O12   V3    S    
C5    C6    A    
C17   C18   A    
C49   H37   S    
C53   H50   S    
C49   H38   S    
O12   C37   A    
C45   H26   S    
C32   H11   S    
O8    V2    S    
C53   H49   S    
O15   C39   A    
C27   C28   S    
C36   C51   S    
O14   C38   A    
C25   C38   S    
C49   C50   S    
C33   C37   S    
C20   C43   S    
O1    V2    S    
O7    V1    S    
O9    C4    A    
O19   V4    S    
C43   H22   S    
C31   C32   A    
C29   C30   A    
C44   H19   S    
C32   C33   A    
C5    C10   A    
C51   H43   S    
C30   C31   A    
C1    C22   S    
C43   C44   S    
C10   C11   S    
C52   H42   S    
C45   C46   S    
O4    C2    A    
C42   H13   S    
O24   H51   S    
C54   H48   S    
C11   C12   S    
C44   H18   S    
C46   H25   S    
C11   H4    S    
C12   C53   S    
O2    C1    A    
V4    O20   S    
C13   C14   A    
O11   C38   A    
C28   O21   S    
O13   V3    S    
C9    C10   A    
C46   H24   S    
C16   C17   A    
C45   H27   S    
C24   C25   A    
O3    C4    A    
C21   C26   A    
C16   O24   S    
C28   H9    S    
C48   H29   S    
O6    V2    S    
C8    C9    A    
C24   H8    S    
V3    O20   S    
C53   C54   S    
C43   H21   S    
C5    C12   S    
C3    C17   S    
O2    V1    S    
C35   C49   S    
C31   H10   S    
C44   H20   S    
C33   C34   A    
C26   C27   S    
C22   C23   A    
C15   C16   A    
C54   H47   S    
O1    C2    A    
C29   C34   A    
C27   C45   S    
C9    C39   S    
C15   H5    S    
C19   O25   S    
O5    V1    S    
O8    C3    A    
C50   H36   S    
O25   H52   S    
O13   C40   A    
C11   H3    S    
O21   H33   S    
C13   C18   A    
C48   H28   S    
O9    V2    S    
C35   C36   S    
C2    C30   S    
O4    V1    S    
O3    V1    S    
V1    O10   S    
C52   H40   S    
O18   V4    S    
C42   H15   S    
C34   C35   S    
O15   V3    S    
C41   H16   S    
C36   O22   S    
C47   H32   S    
V2    O10   S    
C46   H23   S    
C50   H35   S    
C51   C52   S    
O17   V4    S    
O7    V2    S    
O17   V3    S    
C21   C22   A    
C25   C26   A    
O18   C39   A    
C48   H30   S    
C47   C48   S    
C12   O23   S    
C13   C20   S    
C18   C19   S    
C8    H2    S    
O14   V3    S    
C21   C28   S    
