data_mof_unit_22885.cif
_audit_creation_date              2012-12-11T15:31:57-0500
_audit_creation_method            fapswitch 2.2
_symmetry_space_group_name_H-M    P1
_symmetry_Int_Tables_number       1
_space_group_crystal_system       triclinic
_cell_length_a                    13.574625
_cell_length_b                    13.576057
_cell_length_c                    27.674824
_cell_angle_alpha                 90.31899
_cell_angle_beta                  90.159966
_cell_angle_gamma                 119.944638
_cell_volume                      4419.19629935

loop_
_atom_site_label
_atom_site_type_symbol
_atom_type_description
_atom_site_fract_x
_atom_site_fract_y
_atom_site_fract_z
_atom_type_partial_charge
C1    C     C_R   0.619496 0.898424 0.431267 0.545003
C2    C     C_R   0.630999 0.234601 0.208762 -0.104064
C3    C     C_R   0.620386 0.217251 0.258679 -0.100838
C4    C     C_R   0.666193 0.310427 0.290673 0.041831
C5    C     C_R   0.687707 0.345321 0.190650 0.041894
C6    C     C_1   0.694245 0.365123 0.139440 -0.055161
C7    C     C_1   0.650349 0.290586 0.341812 -0.055577
C8    C     C_1   0.701554 0.390617 0.097430 -0.011251
C9    C     C_1   0.232618 0.863044 0.382698 -0.012074
C10   C     C_R   0.276216 0.893334 0.257331 -0.100752
C11   C     C_R   0.257109 0.883908 0.207372 -0.104034
C12   C     C_R   0.599735 0.218583 0.431311 0.545437
C13   C     C_R   0.053726 0.784439 0.221275 -0.100976
C14   C     C_R   0.072829 0.793755 0.271231 -0.104375
C15   C     C_R   0.184178 0.847794 0.289382 0.041771
C16   C     C_R   0.145745 0.828980 0.189220 0.041785
C17   C     C_1   0.124052 0.813755 0.137954 -0.054982
C18   C     C_1   0.205710 0.854520 0.340644 -0.055612
C19   C     C_1   0.096795 0.794364 0.095937 -0.011118
C20   C     C_1   0.634654 0.866085 0.383631 -0.012027
C21   C     C_R   0.600513 0.874442 0.258180 -0.100812
C22   C     C_R   0.608092 0.862550 0.208297 -0.104040
C23   C     C_R   0.279495 0.878895 0.430535 0.543660
C24   C     C_R   0.708690 0.759697 0.222871 -0.100971
C25   C     C_R   0.701210 0.771692 0.272760 -0.104319
C26   C     C_R   0.647502 0.829552 0.290528 0.041786
C27   C     C_R   0.662619 0.805507 0.190520 0.041829
C28   C     C_1   0.675646 0.796601 0.139314 -0.055146
C29   C     C_1   0.642254 0.846283 0.341695 -0.055608
C30   C     C_1   0.692974 0.786871 0.097313 -0.011421
C31   C     C_R   0.640125 0.279102 0.615198 0.025620
C32   C     C_R   0.722462 0.265976 0.640571 -0.125585
C33   C     C_R   0.734984 0.285002 0.689837 -0.122786
C34   C     C_R   0.620552 0.900474 0.568898 0.542609
C35   C     C_R   0.668488 0.321543 0.714131 0.038522
C36   C     C_R   0.595115 0.346667 0.687921 -0.119789
C37   C     C_R   0.580169 0.324520 0.638604 -0.128646
C38   C     C_R   0.575743 0.301386 0.793662 -0.121923
C39   C     C_R   0.584124 0.323137 0.843020 -0.131002
C40   C     C_R   0.786630 0.390255 0.839752 -0.126360
C41   C     C_R   0.778803 0.371535 0.790451 -0.123875
C42   C     C_R   0.674135 0.330861 0.766797 0.036543
C43   C     C_R   0.690678 0.372620 0.865806 0.023367
C44   C     C_R   0.211809 0.856755 0.612869 0.021930
C45   C     C_R   0.601732 0.223032 0.568435 0.544299
C46   C     C_R   0.194420 0.939905 0.636779 -0.000504
C47   C     C_R   0.181954 0.933128 0.687087 -0.098442
C48   C     C_R   0.167614 0.837460 0.712241 0.022501
C49   C     C_R   0.164322 0.746893 0.686573 -0.127280
C50   C     C_R   0.187994 0.757137 0.637642 -0.136050
C51   C     C_R   0.190687 0.771844 0.793714 -0.118277
C52   C     C_R   0.161495 0.752333 0.842361 -0.131053
C53   C     C_R   0.061515 0.857931 0.834892 -0.125271
C54   C     C_R   0.087527 0.874335 0.786252 -0.123551
C55   C     C_R   0.150323 0.829510 0.764879 0.035003
C56   C     C_R   0.276334 0.880084 0.567435 0.535579
C57   C     C_R   0.094646 0.793306 0.862877 0.023628
C58   C     C_R   0.639268 0.860920 0.615272 0.023950
C59   C     C_R   0.546710 0.770524 0.638573 -0.125997
C60   C     C_R   0.554349 0.750032 0.687079 -0.122580
C61   C     C_R   0.655263 0.818188 0.712807 0.038095
C62   C     C_R   0.751052 0.901896 0.688471 -0.123123
C63   C     C_R   0.742902 0.923563 0.639996 -0.133782
C64   C     C_R   0.716785 0.901515 0.795169 -0.121971
C65   C     C_R   0.728027 0.889078 0.844343 -0.130728
C66   C     C_R   0.614844 0.684163 0.835023 -0.127942
C67   C     C_1   0.631186 0.264660 0.383731 -0.011561
C68   C     C_R   0.605134 0.696537 0.785773 -0.123958
C69   C     C_R   0.658922 0.805156 0.765275 0.034348
C70   C     C_R   0.680282 0.780177 0.864242 0.022276
C71   C     C_R   0.049264 0.761098 0.048256 0.545632
C72   C     C_R   0.714282 0.435718 0.049716 0.544912
C73   C     C_R   0.723562 0.770712 0.049553 0.545445
C74   C     C_R   0.043563 0.755923 0.910415 0.540405
C75   C     C_R   0.707987 0.428474 0.912573 0.540622
C76   C     C_R   0.717487 0.765067 0.911773 0.539112
C77   C     C_R   0.723900 0.421143 0.272577 -0.104299
C78   C     C_R   0.734625 0.438495 0.222654 -0.100957
Cr1   Cr    Cr6+3 0.417720 0.831920 0.499820 1.021787
Cr2   Cr    Cr6+3 0.668190 0.085770 0.500360 1.020384
Cr3   Cr    Cr6+3 0.414060 0.082260 0.499840 1.012624
Cr4   Cr    Cr6+3 0.908000 0.821090 0.979770 1.024019
Cr5   Cr    Cr6+3 0.912420 0.571130 0.979880 1.023666
Cr6   Cr    Cr6+3 0.657970 0.566940 0.980940 1.024564
H1    H     H_    0.759345 0.493742 0.296916 0.103166
H2    H     H_    0.572597 0.898704 0.183712 0.103418
H3    H     H_    0.751466 0.715761 0.209499 0.098597
H4    H     H_    0.738098 0.736923 0.297341 0.103087
H5    H     H_    0.770203 0.231194 0.623386 0.131741
H6    H     H_    0.493257 0.265662 0.776275 0.104006
H7    H     H_    0.508906 0.307747 0.862674 0.125649
H8    H     H_    0.791908 0.264590 0.709135 0.098577
H9    H     H_    0.856080 0.395334 0.770640 0.101795
H10   H     H_    0.870081 0.428330 0.856445 0.136127
H11   H     H_    0.546221 0.379216 0.705801 0.099153
H12   H     H_    0.778192 0.524559 0.208977 0.098788
H13   H     H_    0.517162 0.336405 0.619490 0.120625
H14   H     H_    0.241877 0.738923 0.778385 0.105199
H15   H     H_    0.187928 0.702488 0.863460 0.122209
H16   H     H_    0.184169 0.003267 0.706741 0.096393
H17   H     H_    0.052964 0.916936 0.765059 0.098689
H18   H     H_    0.008204 0.889085 0.849630 0.138364
H19   H     H_    0.147426 0.669420 0.704564 0.102927
H20   H     H_    0.194357 0.689184 0.619936 0.130435
H21   H     H_    0.465581 0.720515 0.620402 0.128686
H22   H     H_    0.593915 0.162016 0.184413 0.103423
H23   H     H_    0.755818 0.986343 0.780327 0.105121
H24   H     H_    0.778568 0.964189 0.866346 0.124460
H25   H     H_    0.479267 0.685069 0.704992 0.098031
H26   H     H_    0.560302 0.620904 0.763465 0.101401
H27   H     H_    0.578432 0.599058 0.849413 0.134625
H28   H     H_    0.831022 0.953098 0.707322 0.097179
H29   H     H_    0.815616 0.992871 0.622651 0.121596
H30   H     H_    0.575304 0.131205 0.272337 0.098679
H31   H     H_    0.362756 0.935051 0.270984 0.098596
H32   H     H_    0.328871 0.918220 0.183027 0.103535
H33   H     H_    0.967168 0.741341 0.207620 0.098679
H34   H     H_    0.001043 0.757932 0.295570 0.102865
H35   H     H_    0.559005 0.919635 0.271543 0.098467
O1    O     O_R   0.302900 0.805360 0.446400 -0.504667
O2    O     O_R   0.657980 0.180990 0.549630 -0.505962
O3    O     O_R   0.503420 0.197810 0.553190 -0.521840
O4    O     O_R   0.320350 0.978840 0.548910 -0.510318
O5    O     O_3   0.499990 0.999990 0.500010 -0.241540
O6    O     O_R   0.819150 0.845650 0.033320 -0.504551
O7    O     O_R   0.006060 0.815720 0.028680 -0.492769
O8    O     O_R   0.028100 0.664460 0.032550 -0.504565
O9    O     O_R   0.811290 0.477490 0.029660 -0.493448
O10   O     O_R   0.638120 0.455970 0.034270 -0.504354
O11   O     O_R   0.667540 0.672320 0.030160 -0.492751
O12   O     O_R   0.522090 0.841370 0.450730 -0.493420
O13   O     O_R   0.814460 0.840990 0.926980 -0.521970
O14   O     O_R   0.001710 0.811400 0.930110 -0.505357
O15   O     O_R   0.023410 0.659800 0.926210 -0.518803
O16   O     O_R   0.806940 0.473170 0.931090 -0.506086
O17   O     O_R   0.633420 0.451310 0.927930 -0.521615
O18   O     O_R   0.663190 0.668000 0.931580 -0.503255
O19   O     O_3   0.826130 0.653050 0.980200 -0.246717
O20   O     O_R   0.693280 0.995650 0.447220 -0.505672
O21   O     O_R   0.657260 0.178740 0.451050 -0.493394
O22   O     O_R   0.502640 0.195380 0.446850 -0.505477
O23   O     O_R   0.319630 0.976590 0.450330 -0.496360
O24   O     O_R   0.303680 0.807790 0.552740 -0.521362
O25   O     O_R   0.522820 0.843620 0.549310 -0.503926
O26   O     O_R   0.694060 0.998080 0.553560 -0.522730
C79   C     C_3   0.191343 0.036950 0.610784 -0.241327
C80   C     C_3   0.087770 0.048357 0.624843 -0.322031
C81   C     C_3   0.081517 0.138801 0.594552 -0.454774
H36   H     H_    0.160976 0.221955 0.598851 0.150758
H37   H     H_    0.068837 0.113629 0.555780 0.157605
H38   H     H_    0.009037 0.148711 0.606655 0.139097
H39   H     H_    0.008366 0.965576 0.619223 0.171595
H40   H     H_    0.092899 0.073305 0.663426 0.149457
H41   H     H_    0.270964 0.117740 0.619074 0.152448
H42   H     H_    0.184360 0.022674 0.571209 0.171806

loop_
_geom_bond_atom_site_label_1
_geom_bond_atom_site_label_2
_ccdc_geom_bond_type
C48   C55   S    
C66   C68   A    
C21   C26   A    
C50   H20   S    
C15   C18   S    
C41   C42   A    
C54   C55   A    
C54   H17   S    
C19   C71   S    
C35   C36   A    
C24   C27   A    
Cr5   O9    S    
C37   H13   S    
C72   O10   A    
C46   C79   S    
C77   C78   A    
C34   O25   A    
C59   H21   S    
Cr3   O4    S    
C36   C37   A    
C81   H37   S    
C38   C42   A    
C10   C15   A    
C5    C6    S    
C34   O26   A    
C75   O16   A    
C44   C50   A    
C65   C70   A    
C74   O14   A    
Cr6   O10   S    
C12   O22   A    
C35   C42   S    
Cr4   O7    S    
Cr5   O15   S    
C60   H25   S    
C17   C19   T    
C73   O11   A    
C56   O24   A    
C40   C43   A    
Cr1   O24   S    
C79   H42   S    
C80   C81   S    
C78   H12   S    
C16   C17   S    
C14   H34   S    
Cr6   O17   S    
C12   O21   A    
C23   O23   A    
C66   H27   S    
C65   H24   S    
Cr5   O16   S    
C1    O20   A    
Cr2   O2    S    
C51   H14   S    
Cr3   O22   S    
Cr6   O19   S    
C59   C60   A    
C21   C22   A    
C71   O8    A    
C4    C7    S    
C39   H7    S    
C44   C46   A    
C20   C29   T    
C43   C75   S    
C38   C39   A    
C12   C67   S    
C41   H9    S    
C8    C72   S    
Cr3   O5    S    
C51   C52   A    
C56   O4    A    
C81   H38   S    
C81   H36   S    
C52   C57   A    
C33   H8    S    
C40   H10   S    
C23   O1    A    
C30   C73   S    
C53   C57   A    
C75   O17   A    
C9    C23   S    
C6    C8    T    
C45   O2    A    
C58   C59   A    
C53   C54   A    
C2    H22   S    
C25   H4    S    
C47   H16   S    
C31   C37   A    
C60   C61   A    
C57   C74   S    
Cr4   O6    S    
C62   C63   A    
C11   C16   A    
C44   C56   S    
C47   C48   A    
C79   H41   S    
C53   H18   S    
Cr1   O12   S    
Cr1   O1    S    
C71   O7    A    
C68   H26   S    
C64   C69   A    
C24   C25   A    
C11   H32   S    
Cr3   O23   S    
C72   O9    A    
Cr6   O18   S    
C22   C27   A    
C32   H5    S    
C70   C76   S    
C2    C5    A    
Cr4   O13   S    
C3    C4    A    
C73   O6    A    
C64   H23   S    
C79   C80   S    
Cr2   O5    S    
C61   C69   S    
C58   C63   A    
C76   O18   A    
C46   C47   A    
C40   C41   A    
C1    C20   S    
C68   C69   A    
C31   C32   A    
Cr5   O8    S    
C1    O12   A    
C3    H30   S    
C49   H19   S    
C13   H33   S    
C45   O3    A    
Cr2   O20   S    
Cr1   O5    S    
C38   H6    S    
C52   H15   S    
Cr1   O25   S    
Cr3   O3    S    
C64   C65   A    
Cr4   O14   S    
C28   C30   T    
C2    C3    A    
C25   C26   A    
C4    C77   A    
C21   H35   S    
Cr2   O21   S    
C32   C33   A    
C76   O13   A    
C36   H11   S    
C66   C70   A    
C77   H1    S    
C48   C49   A    
C74   O15   A    
Cr6   O11   S    
C33   C35   A    
C80   H39   S    
C51   C55   A    
C22   H2    S    
C61   C62   A    
C80   H40   S    
C24   H3    S    
Cr2   O26   S    
C10   C11   A    
C7    C67   T    
C63   H29   S    
C9    C18   T    
C62   H28   S    
C39   C43   A    
C26   C29   S    
Cr4   O19   S    
C49   C50   A    
C31   C45   S    
C13   C16   A    
C27   C28   S    
C34   C58   S    
C14   C15   A    
C5    C78   A    
C13   C14   A    
Cr5   O19   S    
C10   H31   S    
