data_mof_unit_48470.cif
_audit_creation_date              2012-12-10T18:16:21-0500
_audit_creation_method            fapswitch 2.2
_symmetry_space_group_name_H-M    P1
_symmetry_Int_Tables_number       1
_space_group_crystal_system       triclinic
_cell_length_a                    12.656345
_cell_length_b                    13.236698
_cell_length_c                    27.747202
_cell_angle_alpha                 89.311467
_cell_angle_beta                  102.121156
_cell_angle_gamma                 83.006167
_cell_volume                      4507.60469541

loop_
_atom_site_label
_atom_site_type_symbol
_atom_type_description
_atom_site_fract_x
_atom_site_fract_y
_atom_site_fract_z
_atom_type_partial_charge
C1    C     C_R   0.439463 0.691243 0.493159 0.910377
C2    C     C_R   0.412045 0.536581 0.713356 0.401135
C3    C     C_R   0.507042 0.492438 0.746873 0.052624
C4    C     C_R   0.510466 0.492659 0.898194 -0.089186
C5    C     C_R   0.565658 0.561955 0.877079 -0.007822
C6    C     C_R   0.621912 0.631603 0.906552 -0.075109
C7    C     C_R   0.458176 0.418037 0.869094 -0.150062
C8    C     C_R   0.502373 0.497225 0.645997 -0.133925
C9    C     C_R   0.495578 0.496648 0.352206 -0.338009
C10   C     C_R   0.579420 0.556532 0.030731 0.016457
C11   C     C_R   0.424403 0.457830 0.016715 -0.053589
C12   C     C_R   0.500453 0.499642 0.593493 0.895400
C13   C     C_R   0.503232 0.506377 0.049287 0.048385
C14   C     C_R   0.661955 0.596719 0.064102 -0.267075
C15   C     C_R   0.669502 0.591125 0.115039 0.417776
C16   C     C_R   0.589980 0.544443 0.134031 -0.151006
C17   C     C_R   0.505296 0.504947 0.100374 -0.089657
C18   C     C_R   0.422020 0.463547 0.117616 -0.081116
C19   C     C_R   0.423102 0.462070 0.167911 0.579584
C20   C     C_R   0.590176 0.534613 0.184955 0.592223
C21   C     C_R   0.494605 0.587217 0.275057 -0.129821
C22   C     C_R   0.487213 0.589477 0.324367 0.331215
C23   C     C_R   0.561010 0.309352 0.509424 0.955397
C24   C     C_R   0.497210 0.403418 0.326509 0.441723
C25   C     C_R   0.504446 0.404695 0.277081 -0.064273
C26   C     C_R   0.504436 0.495633 0.251631 0.125148
C27   C     C_R   0.571713 0.563322 0.979116 0.084877
C28   C     C_R   0.507574 0.498725 0.948662 0.097517
C29   C     C_R   0.440935 0.439762 0.968600 0.030580
C30   C     C_R   0.626594 0.631223 0.956953 -0.179934
C31   C     C_R   0.408296 0.346000 0.892574 0.393017
C32   C     C_R   0.333290 0.430003 0.033897 0.377726
C33   C     C_R   0.335779 0.429487 0.084268 -0.165828
C34   C     C_R   0.499535 0.498139 0.405999 1.065073
C35   C     C_R   0.400683 0.358757 0.941677 -0.192518
C36   C     C_R   0.724379 0.056376 0.502276 -0.248571
C37   C     C_R   0.597565 0.199911 0.514551 -0.154076
C38   C     C_R   0.295242 0.836774 0.490329 -0.175101
C39   C     C_R   0.262019 0.940891 0.491184 0.230736
C40   C     C_R   0.338082 0.009309 0.491460 -0.151534
C41   C     C_R   0.447282 0.974455 0.488869 0.045674
C42   C     C_R   0.474310 0.871022 0.480071 0.083877
C43   C     C_R   0.531765 0.037670 0.495701 0.109157
C44   C     C_R   0.637542 0.998886 0.489646 0.102528
C45   C     C_R   0.562109 0.561115 0.826619 0.649819
C46   C     C_R   0.655824 0.902183 0.472198 -0.215426
C47   C     C_R   0.574078 0.840415 0.466125 -0.071955
C48   C     C_R   0.515186 0.137561 0.509661 -0.259901
C49   C     C_R   0.706292 0.155868 0.517418 0.387733
C50   C     C_R   0.401785 0.800938 0.486200 -0.094956
C51   C     C_R   0.074318 0.379987 0.421210 -0.172149
C52   C     C_R   0.808352 0.592148 0.570967 0.039040
C53   C     C_R   0.918114 0.599648 0.591025 0.081817
C54   C     C_R   0.996741 0.565285 0.564305 -0.135821
C55   C     C_R   0.965229 0.527797 0.516906 -0.028824
C56   C     C_R   0.459838 0.419515 0.818283 0.685374
C57   C     C_R   0.852014 0.529762 0.496925 0.178000
C58   C     C_R   0.040891 0.485224 0.488870 -0.039142
C59   C     C_R   0.001127 0.432100 0.446051 -0.033291
C60   C     C_R   0.888493 0.437722 0.427437 0.355130
C61   C     C_R   0.819071 0.506936 0.447447 0.094115
C62   C     C_R   0.153834 0.492447 0.501250 -0.018180
C63   C     C_R   0.184949 0.383369 0.436778 0.208944
C64   C     C_R   0.599427 0.450227 0.729528 0.379095
C65   C     C_R   0.596951 0.455337 0.679164 -0.285478
C66   C     C_R   0.409894 0.536275 0.662966 -0.294532
H1    H     H_    0.337008 0.568604 0.636877 0.188007
H2    H     H_    0.267500 0.405194 0.097205 0.237006
H3    H     H_    0.508491 0.334232 0.257665 0.209897
H4    H     H_    0.366207 0.302603 0.959834 0.214254
H5    H     H_    0.734008 0.873309 0.464235 0.159583
H6    H     H_    0.806471 0.022841 0.501397 0.177456
H7    H     H_    0.437235 0.170050 0.515743 0.166408
H8    H     H_    0.238078 0.783794 0.493762 0.164309
H9    H     H_    0.308989 0.088879 0.492974 0.136376
H10   H     H_    0.590900 0.768009 0.450742 0.210188
H11   H     H_    0.046934 0.341275 0.387817 0.224161
H12   H     H_    0.188111 0.539024 0.530681 0.123539
H13   H     H_    0.747739 0.614254 0.592347 0.151941
H14   H     H_    0.663843 0.686093 0.890870 0.207671
H15   H     H_    0.081430 0.566138 0.581660 0.161151
H16   H     H_    0.489576 0.657591 0.253882 0.188550
H17   H     H_    0.724920 0.629297 0.050887 0.185799
H18   H     H_    0.670114 0.687674 0.977501 0.170198
H19   H     H_    0.667951 0.424581 0.665525 0.218635
N1    N     N_R   0.509881 0.490869 0.798634 -0.338101
N2    N     N_R   0.506725 0.496140 0.200280 -0.343762
N3    N     N_R   0.222180 0.444690 0.474320 -0.104622
N4    N     N_R   0.776980 0.554780 0.525420 -0.133927
O1    O     O_R   0.366730 0.627160 0.487740 -0.606267
O2    O     O_2   0.672667 0.561410 0.219419 -0.423676
O3    O     O_2   0.411185 0.352293 0.788035 -0.427602
O4    O     O_2   0.340502 0.427736 0.184513 -0.511450
O5    O     O_R   0.544830 0.662520 0.504140 -0.655078
O6    O     O_R   0.410970 0.482310 0.563040 -0.630283
O7    O     O_R   0.589070 0.517670 0.579450 -0.625339
O8    O     O_R   0.455170 0.337480 0.495860 -0.622531
O9    O     O_R   0.633270 0.372840 0.512260 -0.542715
O10   O     O_R   0.410930 0.482330 0.420550 -0.591498
O11   O     O_R   0.589030 0.517690 0.436960 -0.606050
O12   O     O_2   0.609359 0.630611 0.805296 -0.505118
Zn1   Zn    Zn3+2 0.381080 0.476390 0.489050 0.992018
Zn2   Zn    Zn3+2 0.618920 0.523610 0.510950 1.014943
S1    S     S_3+6 0.718866 0.390384 0.769757 0.098517
O13   O     O_2   0.784882 0.470655 0.793263 -0.185813
O14   O     O_2   0.690367 0.327648 0.809582 -0.270214
O15   O     O_3   0.794763 0.314722 0.738250 -0.463928
H20   H     H_    0.750033 0.260019 0.726305 0.369186
S2    S     S_3+6 0.355153 0.237796 0.864103 0.140563
O16   O     O_2   0.255786 0.272368 0.824651 -0.128043
O17   O     O_2   0.439164 0.177220 0.841284 -0.221497
O18   O     O_3   0.318921 0.161758 0.905268 -0.480452
H21   H     H_    0.388456 0.126158 0.924733 0.360375
S3    S     S_3+6 0.205123 0.417887 0.994652 0.063522
O19   O     O_2   0.193277 0.306932 0.988215 -0.251703
O20   O     O_2   0.115335 0.465739 0.018093 -0.245130
O21   O     O_3   0.192996 0.476698 0.939302 -0.509544
H22   H     H_    0.127889 0.453505 0.918128 0.417680
S4    S     S_3+6 0.488909 0.281301 0.351307 0.031863
O22   O     O_2   0.504607 0.279361 0.406233 -0.373476
O23   O     O_2   0.379655 0.249955 0.328824 -0.284165
O24   O     O_3   0.585561 0.197026 0.335686 -0.471522
H23   H     H_    0.580747 0.132063 0.352715 0.394803
S5    S     S_3+6 0.820974 0.214790 0.545589 0.053092
O25   O     O_2   0.794047 0.281621 0.585894 -0.236941
O26   O     O_2   0.914119 0.134941 0.567770 -0.280961
O27   O     O_3   0.859788 0.285557 0.503513 -0.564936
H24   H     H_    0.898470 0.235879 0.484724 0.366717
S6    S     S_3+6 0.294799 0.592698 0.733106 0.068603
O28   O     O_2   0.228959 0.510411 0.742608 -0.185846
O29   O     O_2   0.325987 0.648646 0.779748 -0.267018
O30   O     O_3   0.217574 0.674559 0.689124 -0.560373
H25   H     H_    0.262757 0.729577 0.686410 0.364801
C67   C     C_3   0.146474 0.977718 0.494044 -0.818322
H26   H     H_    0.089895 0.952975 0.461385 0.253762
H27   H     H_    0.128286 0.945042 0.527998 0.246370
H28   H     H_    0.131737 0.062090 0.494884 0.251268
C68   C     C_3   0.259013 0.321448 0.409723 -0.615224
H29   H     H_    0.323792 0.273137 0.435697 0.258929
H30   H     H_    0.215190 0.267562 0.385010 0.220976
H31   H     H_    0.290312 0.371773 0.385639 0.281117
S7    S     S_3+6 0.829118 0.360909 0.380113 0.047454
O31   O     O_2   0.820202 0.412190 0.330565 -0.208667
O32   O     O_2   0.892101 0.256484 0.381934 -0.300345
O33   O     O_3   0.705045 0.347812 0.388782 -0.510394
H32   H     H_    0.717475 0.304515 0.419278 0.389860
C69   C     C_3   0.952411 0.639791 0.641515 -0.693800
H33   H     H_    0.881379 0.662202 0.658481 0.232670
H34   H     H_    0.008776 0.580297 0.665855 0.300401
H35   H     H_    0.994759 0.707714 0.638955 0.260274
C70   C     C_3   0.760700 0.593884 0.412724 -0.706489
H36   H     H_    0.709415 0.647417 0.431081 0.238180
H37   H     H_    0.821370 0.637364 0.401002 0.222286
H38   H     H_    0.709997 0.565897 0.379221 0.286070
S8    S     S_3+6 0.456615 0.711742 0.346228 0.028772
O34   O     O_2   0.402356 0.706791 0.389040 -0.308698
O35   O     O_2   0.560055 0.759075 0.360988 -0.348516
O36   O     O_3   0.371186 0.785053 0.300913 -0.475684
H39   H     H_    0.418011 0.824863 0.285752 0.382086
S9    S     S_3+6 0.778448 0.647709 0.151700 0.120772
O37   O     O_2   0.733461 0.727976 0.182451 -0.180366
O38   O     O_2   0.854473 0.567729 0.185171 -0.203018
O39   O     O_3   0.849794 0.703428 0.116401 -0.508061
H40   H     H_    0.902257 0.647713 0.108350 0.374705

loop_
_geom_bond_atom_site_label_1
_geom_bond_atom_site_label_2
_ccdc_geom_bond_type
C10   C27   A    
C58   C62   A    
C21   C26   A    
C8    C66   A    
C1    O1    A    
S3    O20   D    
C63   N3    A    
S8    O35   D    
C41   C42   A    
C69   H33   S    
C67   H28   S    
S1    O14   D    
O33   H32   S    
C53   C54   A    
C57   N4    A    
C14   H17   S    
C28   C29   A    
C69   H34   S    
C47   H10   S    
C19   N2    A    
S2    O17   D    
C38   H8    S    
C38   C39   A    
C9    C22   A    
C16   C17   A    
C15   C16   A    
C20   N2    A    
C53   C69   S    
C2    S6    S    
C18   C19   A    
C70   H38   S    
C1    O5    A    
S1    O13   D    
C60   S7    S    
C54   C55   A    
C56   N1    A    
O1    Zn1   S    
O39   H40   S    
C35   H4    S    
O30   H25   S    
C34   O11   A    
O15   H20   S    
C12   O6    A    
C52   H13   S    
C43   C48   A    
O8    Zn1   S    
C19   O4    S    
O6    Zn1   S    
C8    C12   S    
C42   C47   A    
S6    O30   S    
C66   H1    S    
C70   H36   S    
C59   C60   A    
C21   C22   A    
N4    Zn2   S    
S8    O36   S    
C30   H18   S    
C41   C43   A    
S7    O33   S    
C52   N4    A    
C7    C56   A    
C4    C7    A    
O18   H21   S    
C4    C28   A    
C44   C46   A    
C17   C18   A    
C22   S8    S    
S4    O23   D    
C20   O2    S    
C7    C31   A    
S9    O39   S    
C69   H35   S    
C51   C63   A    
C24   C25   A    
C10   C14   A    
S2    O18   S    
C39   C40   A    
C26   N2    S    
C67   H27   S    
C58   C59   A    
C23   C37   S    
C49   S5    S    
C62   N3    A    
C10   C13   A    
O11   Zn2   S    
C32   C33   A    
C60   C61   A    
S9    O38   D    
C3    N1    S    
C43   C44   A    
C51   H11   S    
C37   C49   A    
C6    H14   S    
C56   O3    S    
C16   C20   A    
C23   O9    A    
C34   O10   A    
C31   S2    S    
C37   C48   A    
C65   H19   S    
C61   C70   S    
C46   H5    S    
C45   O12   S    
C42   C50   A    
S5    O27   S    
C38   C50   A    
C40   C41   A    
C23   O8    A    
C11   C32   A    
C55   C57   A    
O36   H39   S    
C63   C68   S    
C31   C35   A    
C36   C44   A    
C51   C59   A    
O27   H24   S    
S8    O34   D    
C52   C53   A    
S5    O26   D    
S6    O28   D    
C1    C50   S    
S4    O24   S    
C64   S1    S    
C46   C47   A    
C54   H15   S    
C24   S4    S    
C6    C30   A    
S7    O31   D    
C48   H7    S    
C62   H12   S    
C4    C5    A    
C2    C66   A    
C68   H31   S    
O5    Zn2   S    
N3    Zn1   S    
S4    O22   D    
C9    C24   A    
C57   C61   A    
C67   H26   S    
C68   H30   S    
C29   C35   A    
O21   H22   S    
C40   H9    S    
C13   C17   A    
C32   S3    S    
S9    O37   D    
C45   N1    A    
C25   C26   A    
C15   S9    S    
S2    O16   D    
C64   C65   A    
C11   C13   A    
C5    C6    A    
C5    C45   A    
C9    C34   S    
C2    C3    A    
S7    O32   D    
S3    O19   D    
C70   H37   S    
C3    C64   A    
C18   C33   A    
S3    O21   S    
C68   H29   S    
C36   H6    S    
C8    C65   A    
O10   Zn1   S    
C25   H3    S    
C21   H16   S    
C11   C29   A    
C55   C58   A    
C27   C28   A    
C14   C15   A    
C12   O7    A    
S6    O29   D    
O24   H23   S    
O7    Zn2   S    
S1    O15   S    
C36   C49   A    
O9    Zn2   S    
C33   H2    S    
S5    O25   D    
C27   C30   A    
C39   C67   S    
