data_mof_unit_5930.cif
_audit_creation_date              2012-12-11T15:35:33-0500
_audit_creation_method            fapswitch 2.2
_symmetry_space_group_name_H-M    P1
_symmetry_Int_Tables_number       1
_space_group_crystal_system       triclinic
_cell_length_a                    17.25823
_cell_length_b                    24.128611
_cell_length_c                    14.870822
_cell_angle_alpha                 90.010523
_cell_angle_beta                  124.873007
_cell_angle_gamma                 89.981398
_cell_volume                      5080.42998899

loop_
_atom_site_label
_atom_site_type_symbol
_atom_type_description
_atom_site_fract_x
_atom_site_fract_y
_atom_site_fract_z
_atom_type_partial_charge
C1    C     C_R   0.349104 0.151476 0.906073 -0.139953
C2    C     C_R   0.600207 0.121538 0.908292 -0.133356
C3    C     C_R   0.254265 0.546163 0.304508 -0.071647
C4    C     C_3   0.528417 0.100536 0.325890 -1.037780
C5    C     C_3   0.528505 0.899494 0.325951 -1.040426
C6    C     C_3   0.028417 0.600536 0.325890 -1.037780
C7    C     C_3   0.028505 0.399494 0.325951 -1.040428
C8    C     C_R   0.100187 0.378473 0.908250 -0.129992
C9    C     C_R   0.100207 0.621538 0.908292 -0.133356
C10   C     C_R   0.425176 0.000006 0.628993 0.048731
C11   C     C_R   0.925176 0.500006 0.628993 0.048731
C12   C     C_R   0.800692 0.000002 0.367425 -0.028112
C13   C     C_R   0.300692 0.500002 0.367426 -0.028112
C14   C     C_R   0.690358 0.134004 0.998702 0.110707
C15   C     C_R   0.690329 0.865998 0.998619 0.098420
C16   C     C_R   0.190358 0.634004 0.998702 0.110707
C17   C     C_R   0.348949 0.848581 0.906043 -0.142089
C18   C     C_R   0.190329 0.365998 0.998619 0.098423
C19   C     C_3   0.020818 0.948915 0.640641 -0.383952
C20   C     C_3   0.021713 0.052889 0.637492 -0.390850
C21   C     C_3   0.520819 0.448916 0.640641 -0.383952
C22   C     C_3   0.521713 0.552889 0.637492 -0.390851
C23   C     C_3   0.916393 0.949354 0.542347 -0.392449
C24   C     C_3   0.918582 0.053410 0.536767 -0.401315
C25   C     C_3   0.416393 0.449354 0.542347 -0.392450
C26   C     C_3   0.418582 0.553410 0.536767 -0.401315
C27   C     C_3   0.065852 0.998925 0.526834 -0.412598
C28   C     C_R   0.849104 0.651475 0.906073 -0.139953
C29   C     C_3   0.565852 0.498925 0.526834 -0.412598
C30   C     C_3   0.072549 0.000231 0.635314 0.358633
C31   C     C_3   0.572550 0.500231 0.635314 0.358633
C32   C     C_3   0.897120 0.000020 0.467696 0.315818
C33   C     C_3   0.397120 0.500020 0.467696 0.315819
C34   C     C_R   0.443099 0.845723 0.087980 -0.118890
C35   C     C_R   0.443176 0.154316 0.087985 -0.118757
C36   C     C_R   0.943099 0.345723 0.087980 -0.118890
C37   C     C_R   0.943176 0.654316 0.087985 -0.118757
C38   C     C_3   0.963264 0.997216 0.429084 -0.287225
C39   C     C_R   0.848949 0.348581 0.906043 -0.142089
C40   C     C_3   0.463264 0.497217 0.429084 -0.287226
C41   C     C_R   0.278287 0.734906 0.893030 -0.154454
C42   C     C_R   0.278349 0.265115 0.892966 -0.154435
C43   C     C_R   0.778287 0.234906 0.893030 -0.154455
C44   C     C_R   0.778349 0.765115 0.892966 -0.154435
C45   C     C_R   0.734108 0.187571 0.893655 -0.212273
C46   C     C_R   0.734044 0.812416 0.893527 -0.198455
C47   C     C_R   0.234108 0.687571 0.893655 -0.212273
C48   C     C_R   0.234044 0.312416 0.893527 -0.198457
C49   C     C_R   0.763480 0.162205 0.993448 -0.051639
C50   C     C_R   0.689935 0.123643 0.090820 -0.064164
C51   C     C_R   0.763436 0.837839 0.993275 -0.069241
C52   C     C_R   0.263480 0.662205 0.993448 -0.051639
C53   C     C_R   0.263436 0.337839 0.993275 -0.069238
C54   C     C_R   0.853649 0.175703 0.087912 0.563605
C55   C     C_R   0.853663 0.824462 0.087675 0.492032
C56   C     C_R   0.353649 0.675703 0.087912 0.563606
C57   C     C_R   0.353663 0.324462 0.087675 0.492036
C58   C     C_R   0.396608 0.724644 0.087369 -0.295936
C59   C     C_R   0.396829 0.275553 0.087238 -0.271682
C60   C     C_R   0.896608 0.224644 0.087369 -0.295937
C61   C     C_R   0.689927 0.876326 0.090769 -0.053462
C62   C     C_R   0.896829 0.775553 0.087238 -0.271681
C63   C     C_R   0.353714 0.756968 0.991862 0.066422
C64   C     C_R   0.353907 0.243134 0.991819 0.068736
C65   C     C_R   0.853714 0.256968 0.991862 0.066423
C66   C     C_R   0.853907 0.743134 0.991819 0.068737
C67   C     C_R   0.380041 0.950010 0.461059 -0.145985
C68   C     C_R   0.380032 0.050027 0.461095 -0.147400
C69   C     C_R   0.880041 0.450010 0.461059 -0.145985
C70   C     C_R   0.880032 0.550027 0.461095 -0.147400
C71   C     C_R   0.392012 0.950241 0.376787 -0.152257
C72   C     C_R   0.189935 0.623643 0.090820 -0.064163
C73   C     C_R   0.392015 0.049805 0.376833 -0.151088
C74   C     C_R   0.892012 0.450241 0.376787 -0.152257
C75   C     C_R   0.892016 0.549805 0.376833 -0.151088
C76   C     C_R   0.415265 0.000022 0.348837 0.142357
C77   C     C_R   0.915265 0.500022 0.348837 0.142357
C78   C     C_R   0.495141 0.046348 0.265902 0.272611
C79   C     C_R   0.495159 0.953669 0.265912 0.273430
C80   C     C_R   0.995141 0.546348 0.265902 0.272611
C81   C     C_R   0.995159 0.453669 0.265912 0.273429
C82   C     C_R   0.387851 0.000015 0.513227 0.134934
C83   C     C_R   0.189927 0.376326 0.090769 -0.053461
C84   C     C_R   0.887851 0.500015 0.513227 0.134934
C85   C     C_R   0.230701 0.953548 0.750809 -0.128100
C86   C     C_R   0.230873 0.046645 0.750729 -0.127356
C87   C     C_R   0.730701 0.453548 0.750809 -0.128100
C88   C     C_R   0.730873 0.546645 0.750729 -0.127356
C89   C     C_R   0.379604 0.184938 0.995671 0.077589
C90   C     C_R   0.379416 0.815139 0.995655 0.082546
C91   C     C_R   0.879604 0.684938 0.995671 0.077589
C92   C     C_R   0.879416 0.315139 0.995655 0.082546
C93   C     C_R   0.466290 0.000015 0.296262 -0.047544
C94   C     C_R   0.600187 0.878473 0.908250 -0.129991
C95   C     C_R   0.966290 0.500015 0.296262 -0.047544
C96   C     C_R   0.174032 0.000177 0.723777 -0.001032
C97   C     C_R   0.674032 0.500177 0.723777 -0.001032
C98   C     C_R   0.445596 0.045678 0.694330 -0.136632
C99   C     C_R   0.445583 0.954328 0.694310 -0.137500
C100  C     C_R   0.945596 0.545678 0.694330 -0.136632
C101  C     C_R   0.945583 0.454328 0.694310 -0.137500
C102  C     C_R   0.754495 0.953835 0.304466 -0.047504
C103  C     C_R   0.754265 0.046163 0.304508 -0.071647
C104  C     C_R   0.254495 0.453835 0.304466 -0.047503
H1    H     H_    0.312218 0.164559 0.821699 0.088988
H2    H     H_    0.870073 0.056490 0.563242 0.166091
H3    H     H_    0.369916 0.451118 0.571777 0.162827
H4    H     H_    0.370073 0.556490 0.563242 0.166091
H5    H     H_    0.901545 0.909795 0.497012 0.172795
H6    H     H_    0.908304 0.091002 0.487937 0.162470
H7    H     H_    0.401545 0.409795 0.497011 0.172796
H8    H     H_    0.408304 0.591002 0.487937 0.162470
H9    H     H_    0.103129 0.961949 0.524094 0.189862
H10   H     H_    0.100326 0.036288 0.520397 0.176246
H11   H     H_    0.603129 0.461949 0.524094 0.189862
H12   H     H_    0.311914 0.835524 0.821636 0.091487
H13   H     H_    0.600326 0.536288 0.520397 0.176245
H14   H     H_    0.950546 0.958293 0.382420 0.247594
H15   H     H_    0.949368 0.032452 0.373560 0.216584
H16   H     H_    0.450546 0.458293 0.382419 0.247594
H17   H     H_    0.449368 0.532453 0.373560 0.216583
H18   H     H_    0.246358 0.756635 0.816081 0.121162
H19   H     H_    0.246384 0.243331 0.816067 0.117630
H20   H     H_    0.746358 0.256635 0.816081 0.121162
H21   H     H_    0.746384 0.743331 0.816067 0.117630
H22   H     H_    0.670455 0.175673 0.816577 0.135667
H23   H     H_    0.812218 0.664559 0.821699 0.088988
H24   H     H_    0.670289 0.824228 0.816463 0.132314
H25   H     H_    0.170455 0.675674 0.816577 0.135667
H26   H     H_    0.170289 0.324228 0.816463 0.132314
H27   H     H_    0.461414 0.737911 0.162240 0.166614
H28   H     H_    0.461781 0.262388 0.162070 0.163753
H29   H     H_    0.961414 0.237910 0.162241 0.166614
H30   H     H_    0.961781 0.762388 0.162070 0.163752
H31   H     H_    0.375320 0.910509 0.491910 0.116935
H32   H     H_    0.375299 0.089526 0.491970 0.115957
H33   H     H_    0.875320 0.410509 0.491910 0.116935
H34   H     H_    0.811914 0.335524 0.821636 0.091487
H35   H     H_    0.875299 0.589526 0.491970 0.115957
H36   H     H_    0.492475 0.828615 0.168177 0.111267
H37   H     H_    0.492541 0.171421 0.168190 0.111225
H38   H     H_    0.992475 0.328615 0.168177 0.111267
H39   H     H_    0.992541 0.671421 0.168190 0.111225
H40   H     H_    0.389935 0.911100 0.341063 0.144587
H41   H     H_    0.389947 0.088951 0.341150 0.144065
H42   H     H_    0.889935 0.411100 0.341063 0.144587
H43   H     H_    0.889947 0.588951 0.341150 0.144065
H44   H     H_    0.209191 0.910723 0.734356 0.097637
H45   H     H_    0.025903 0.949121 0.718679 0.162949
H46   H     H_    0.209903 0.089542 0.734603 0.094329
H47   H     H_    0.709191 0.410723 0.734356 0.097637
H48   H     H_    0.709903 0.589542 0.734603 0.094329
H49   H     H_    0.426691 0.088195 0.667807 0.089493
H50   H     H_    0.426664 0.911819 0.667757 0.090711
H51   H     H_    0.926691 0.588195 0.667807 0.089493
H52   H     H_    0.926664 0.411819 0.667757 0.090711
H53   H     H_    0.767409 0.911015 0.330154 0.090805
H54   H     H_    0.766521 0.088969 0.330296 0.095522
H55   H     H_    0.267408 0.411015 0.330154 0.090805
H56   H     H_    0.024256 0.053748 0.713953 0.167709
H57   H     H_    0.266520 0.588969 0.330296 0.095522
H58   H     H_    0.745749 0.131001 0.175230 0.174313
H59   H     H_    0.745750 0.868937 0.175155 0.170114
H60   H     H_    0.245749 0.631001 0.175230 0.174313
H61   H     H_    0.245750 0.368937 0.175155 0.170114
H62   H     H_    0.573558 0.876303 0.822866 0.100323
H63   H     H_    0.573584 0.123735 0.822911 0.100920
H64   H     H_    0.073558 0.376303 0.822866 0.100323
H65   H     H_    0.073584 0.623735 0.822911 0.100920
H66   H     H_    0.053005 0.909717 0.637671 0.159820
H67   H     H_    0.525903 0.449121 0.718679 0.162949
H68   H     H_    0.055799 0.091382 0.635378 0.150250
H69   H     H_    0.553006 0.409717 0.637671 0.159820
H70   H     H_    0.555799 0.591382 0.635378 0.150250
H71   H     H_    0.963805 0.135981 0.372174 0.357744
H72   H     H_    0.878180 0.946213 0.113041 0.366286
H73   H     H_    0.463805 0.635981 0.372174 0.357744
H74   H     H_    0.378185 0.446214 0.113046 0.366289
H75   H     H_    0.587390 0.116992 0.323671 0.248888
H76   H     H_    0.470162 0.131167 0.288507 0.249191
H77   H     H_    0.556470 0.094604 0.413555 0.256506
H78   H     H_    0.524256 0.553748 0.713953 0.167709
H79   H     H_    0.587477 0.883024 0.323716 0.248248
H80   H     H_    0.556573 0.905451 0.413617 0.256439
H81   H     H_    0.470287 0.868859 0.288625 0.250038
H82   H     H_    0.087390 0.616992 0.323671 0.248887
H83   H     H_    0.970162 0.631167 0.288507 0.249191
H84   H     H_    0.056471 0.594604 0.413555 0.256506
H85   H     H_    0.087477 0.383024 0.323716 0.248248
H86   H     H_    0.056573 0.405451 0.413617 0.256439
H87   H     H_    0.970287 0.368859 0.288625 0.250039
H88   H     H_    0.869916 0.951119 0.571778 0.162827
N1    N     N_R   0.392140 0.102630 0.941800 -0.041253
N2    N     N_R   0.525160 0.972040 0.206160 -0.075504
N3    N     N_R   0.025160 0.527960 0.206160 -0.074949
N4    N     N_R   0.025160 0.472040 0.206160 -0.075504
N5    N     N_R   0.317870 0.971120 0.792790 -0.037325
N6    N     N_R   0.317870 0.028880 0.792790 -0.037652
N7    N     N_R   0.817870 0.471120 0.792790 -0.037325
N8    N     N_R   0.817870 0.528880 0.792790 -0.037652
N9    N     N_R   0.473480 0.027920 0.793480 -0.036037
N10   N     N_R   0.473480 0.972080 0.793480 -0.036287
N11   N     N_R   0.973480 0.527920 0.793480 -0.036037
N12   N     N_R   0.392140 0.897370 0.941800 -0.041370
N13   N     N_R   0.973480 0.472080 0.793480 -0.036286
N14   N     N_R   0.681610 0.971120 0.207570 -0.035874
N15   N     N_R   0.681610 0.028880 0.207570 -0.035015
N16   N     N_R   0.181610 0.471120 0.207570 -0.035874
N17   N     N_R   0.181610 0.528880 0.207570 -0.035015
N18   N     N_R   0.605410 0.102620 0.056870 -0.059356
N19   N     N_R   0.605410 0.897380 0.056870 -0.060307
N20   N     N_R   0.105410 0.602620 0.056870 -0.059356
N21   N     N_R   0.105410 0.397380 0.056870 -0.060307
N22   N     N_R   0.549680 0.896430 0.944180 -0.046266
N23   N     N_R   0.892140 0.602630 0.941800 -0.041253
N24   N     N_R   0.549680 0.103570 0.944180 -0.046205
N25   N     N_R   0.049680 0.396430 0.944180 -0.046266
N26   N     N_R   0.049680 0.603570 0.944180 -0.046205
N27   N     N_R   0.892140 0.397370 0.941800 -0.041370
N28   N     N_R   0.450890 0.896450 0.057150 -0.041110
N29   N     N_R   0.450890 0.103550 0.057150 -0.040576
N30   N     N_R   0.950890 0.396450 0.057150 -0.041110
N31   N     N_R   0.950890 0.603550 0.057150 -0.040576
N32   N     N_R   0.525160 0.027960 0.206160 -0.074949
Ni1   Ni    Ni4+2 0.433410 0.064680 0.868830 0.215099
Ni2   Ni    Ni4+2 0.433410 0.935320 0.868830 0.216288
Ni3   Ni    Ni4+2 0.933410 0.564680 0.868830 0.215099
Ni4   Ni    Ni4+2 0.933410 0.435320 0.868830 0.216288
Ni5   Ni    Ni4+2 0.565650 0.934380 0.131170 0.213214
Ni6   Ni    Ni4+2 0.565650 0.065620 0.131170 0.214361
Ni7   Ni    Ni4+2 0.065650 0.434380 0.131170 0.213214
Ni8   Ni    Ni4+2 0.065650 0.565620 0.131170 0.214361
O1    O     O_2   0.878133 0.074035 0.175622 -0.301507
O2    O     O_2   0.417303 0.345931 0.295758 -0.328110
O3    O     O_2   0.519045 0.371780 0.237881 -0.277942
O4    O     O_3   0.372296 0.433217 0.172059 -0.526495
O5    O     O_2   0.019281 0.129580 0.238934 -0.287099
O6    O     O_3   0.915846 0.157500 0.306708 -0.594633
O7    O     O_2   0.917303 0.845931 0.295758 -0.328110
O8    O     O_2   0.019045 0.871780 0.237881 -0.277940
O9    O     O_3   0.872296 0.933217 0.172059 -0.526491
O10   O     O_2   0.378133 0.574035 0.175622 -0.301508
O11   O     O_2   0.519281 0.629579 0.238933 -0.287099
O12   O     O_3   0.415847 0.657500 0.306709 -0.594633
S1    S     S_3+6 0.918396 0.131675 0.203354 -0.082970
S2    S     S_3+6 0.918276 0.868912 0.202492 -0.078523
S3    S     S_3+6 0.418396 0.631675 0.203354 -0.082971
S4    S     S_3+6 0.418276 0.368912 0.202492 -0.078525

loop_
_geom_bond_atom_site_label_1
_geom_bond_atom_site_label_2
_ccdc_geom_bond_type
C9    N26   A    
C3    N17   A    
C65   C92   S    
C99   H50   S    
C2    N24   A    
C26   H8    S    
C50   H58   S    
N9    N10   A    
O4    S4    S    
C98   N9    A    
C9    H65   S    
C16   C72   A    
C19   H66   S    
C87   N7    A    
C7    H87   S    
C94   H62   S    
C15   C94   A    
N11   Ni3   S    
C77   C95   S    
N10   Ni2   S    
C54   C60   A    
N9    Ni1   S    
C40   H17   S    
N11   N13   A    
C59   C64   A    
C43   H20   S    
C79   N2    A    
N28   Ni5   S    
C47   H25   S    
O7    S2    D    
C39   N27   A    
C71   H40   S    
C9    C16   A    
C103  N15   A    
C79   C93   A    
C86   H46   S    
C71   C76   A    
C81   C95   A    
C100  N11   A    
C34   N28   A    
C57   C59   A    
C14   C49   S    
C78   C93   A    
C49   C54   A    
C55   C62   A    
C6    H84   S    
O6    S1    S    
N13   Ni4   S    
C51   C55   A    
C61   N19   A    
C54   S1    S    
C10   C98   A    
C103  H54   S    
C36   H38   S    
C30   C96   S    
C8    N25   A    
C8    H64   S    
C18   C53   S    
O2    S4    D    
C44   C66   A    
C20   C24   S    
N16   N17   A    
C74   C77   A    
N29   Ni6   S    
C85   H44   S    
C7    H86   S    
N18   Ni6   S    
C104  N16   A    
C32   C38   S    
C4    H77   S    
C5    C79   S    
C70   C84   A    
N7    Ni4   S    
C58   H27   S    
C5    H80   S    
N23   Ni3   S    
C88   C97   A    
N21   Ni7   S    
C28   H23   S    
N5    Ni2   S    
C36   C92   A    
C28   N23   A    
N1    N29   A    
C29   H11   S    
C98   H49   S    
C70   H35   S    
C87   H47   S    
C12   C32   S    
N14   Ni5   S    
O8    S2    D    
C88   H48   S    
N2    Ni5   S    
C48   H26   S    
N5    N6    A    
C3    H57   S    
C64   C89   S    
C4    H76   S    
C57   S4    S    
C2    C14   A    
C101  N13   A    
C102  H53   S    
C23   H88   S    
C83   N21   A    
C4    H75   S    
C44   C46   A    
C42   H19   S    
C69   H33   S    
C48   C53   A    
C23   H5    S    
C56   S3    S    
C44   H21   S    
C94   N22   A    
C33   C40   S    
C22   C31   S    
C62   C66   A    
O9    S2    S    
C41   C47   A    
C68   H32   S    
C24   H6    S    
C37   N31   A    
C12   C103  A    
C22   H70   S    
C26   H4    S    
C102  N14   A    
C53   C57   A    
N14   N15   A    
N23   N31   A    
C20   C30   S    
N25   Ni4   S    
C101  H52   S    
C75   H43   S    
C68   C73   A    
C21   H67   S    
C29   H13   S    
C6    H83   S    
C55   S2    S    
C8    C18   A    
C73   H41   S    
C11   C100  A    
C80   C95   A    
N17   Ni8   S    
C78   N32   A    
C41   H18   S    
C17   N12   A    
C19   C23   S    
C14   C50   A    
C24   C32   S    
N4    Ni7   S    
C4    C78   S    
C67   H31   S    
N32   Ni6   S    
C76   C93   S    
C60   H29   S    
C21   C31   S    
C26   C33   S    
C6    C80   S    
C34   C90   A    
C12   C102  A    
C45   C49   A    
C45   H22   S    
C43   C65   A    
N19   N22   A    
C18   C83   A    
C72   H60   S    
O5    S1    D    
C69   C74   A    
C11   C101  A    
C42   C48   A    
C13   C104  A    
C43   C45   A    
C66   C91   S    
C86   C96   A    
C35   H37   S    
C38   H15   S    
C35   C89   A    
C100  H51   S    
C85   N5    A    
C7    C81   S    
N12   N28   A    
N30   Ni7   S    
O11   S3    D    
C99   N10   A    
C22   C26   S    
N27   Ni4   S    
C73   C76   A    
C15   C51   S    
C24   H2    S    
C41   C63   A    
C104  H55   S    
N12   Ni2   S    
C40   H16   S    
C36   N30   A    
C39   C92   A    
O1    S1    D    
N31   Ni8   S    
C25   H3    S    
N2    N32   A    
C83   H61   S    
C46   H24   S    
C58   C63   A    
N18   N24   A    
C80   N3    A    
C21   C25   S    
C1    C89   A    
C37   H39   S    
C37   C91   A    
C20   H68   S    
C61   H59   S    
C74   H42   S    
C17   C90   A    
C16   C52   S    
C3    C13   A    
C60   C65   A    
C42   C64   A    
C10   C82   S    
N6    Ni1   S    
N15   Ni6   S    
C47   C52   A    
C31   C97   S    
C11   C84   S    
C27   H9    S    
H71   O6    S    
C6    H82   S    
C21   H69   S    
N24   Ni1   S    
O12   S3    S    
C5    H81   S    
O10   S3    D    
C68   C82   A    
C23   C32   S    
C88   N8    A    
C35   N29   A    
C27   C30   S    
N1    Ni1   S    
C29   C31   S    
C69   C84   A    
N27   N30   A    
H74   O4    S    
C59   H28   S    
C62   H30   S    
C72   N20   A    
N20   N26   A    
C85   C96   A    
N20   Ni8   S    
C46   C51   A    
C63   C90   S    
C34   H36   S    
C19   H45   S    
C56   C58   A    
N3    Ni8   S    
C28   C91   A    
C67   C71   A    
C86   N6    A    
O3    S4    D    
C10   C99   A    
N22   Ni2   S    
C5    H79   S    
C39   H34   S    
C25   H7    S    
N16   Ni7   S    
N19   Ni5   S    
N3    N4    A    
C38   H14   S    
C27   H10   S    
N7    N8    A    
H73   O12   S    
C50   N18   A    
C67   C82   A    
C22   H78   S    
C13   C33   S    
C20   H56   S    
C75   C77   A    
C1    H1    S    
C70   C75   A    
C15   C61   A    
C1    N1    A    
C7    H85   S    
N26   Ni3   S    
C27   C38   S    
C29   C40   S    
C87   C97   A    
C19   C30   S    
C2    H63   S    
N8    Ni3   S    
N21   N25   A    
C52   C56   A    
C17   H12   S    
C25   C33   S    
H72   O9    S    
C81   N4    A    
