data_mof_unit_16226.cif
_audit_creation_date              2012-12-10T18:11:04-0500
_audit_creation_method            fapswitch 2.2
_symmetry_space_group_name_H-M    P1
_symmetry_Int_Tables_number       1
_space_group_crystal_system       triclinic
_cell_length_a                    10.740611
_cell_length_b                    9.420955
_cell_length_c                    10.624266
_cell_angle_alpha                 89.699838
_cell_angle_beta                  89.802577
_cell_angle_gamma                 89.959489
_cell_volume                      1075.01422686

loop_
_atom_site_label
_atom_site_type_symbol
_atom_type_description
_atom_site_fract_x
_atom_site_fract_y
_atom_site_fract_z
_atom_type_partial_charge
C1    C     C_R   0.259822 0.499906 0.498545 0.773279
C2    C     C_3   0.498517 0.500902 0.122343 0.011976
C3    C     C_3   0.073534 0.602306 0.394128 -0.410904
C4    C     C_3   0.072286 0.548118 0.627372 -0.412265
C5    C     C_3   0.929456 0.607200 0.396503 -0.152858
C6    C     C_3   0.927884 0.546230 0.628681 -0.157011
C7    C     C_3   0.071832 0.348417 0.469764 -0.384366
C8    C     C_3   0.122089 0.499712 0.497462 0.131176
C9    C     C_3   0.878200 0.499567 0.496945 0.067516
C10   C     C_3   0.929330 0.348716 0.466117 -0.376045
C11   C     C_3   0.589717 0.083267 0.595680 -0.180163
C12   C     C_3   0.589782 0.915600 0.595638 -0.191807
C13   C     C_3   0.375932 0.083545 0.535035 -0.191689
C14   C     C_3   0.375945 0.916252 0.535103 -0.186151
C15   C     C_3   0.535576 0.084185 0.378059 -0.187705
C16   C     C_3   0.535556 0.917006 0.378066 -0.187047
C17   C     C_R   0.499418 0.500349 0.259271 0.803239
C18   C     C_R   0.739902 0.499871 0.497849 0.781050
C19   C     C_R   0.498999 0.499601 0.740766 0.803178
C20   C     C_3   0.505176 0.634708 0.039789 -0.152455
C21   C     C_3   0.392657 0.439904 0.042953 -0.182444
C22   C     C_3   0.399390 0.573593 0.958027 -0.177420
C23   C     C_3   0.497979 0.498784 0.877605 0.009481
C24   C     C_3   0.603630 0.559743 0.957082 -0.118273
C25   C     C_3   0.491065 0.364950 0.960082 -0.157264
C26   C     C_3   0.596814 0.425915 0.041750 -0.113917
Cu1   Cu    Cu3+1 0.499860 0.642410 0.500060 0.895018
Cu2   Cu    Cu3+1 0.499860 0.357590 0.500060 0.898632
H1    H     H_    0.318631 0.633761 0.920406 0.123343
H2    H     H_    0.897234 0.314626 0.371496 0.167005
H3    H     H_    0.893840 0.268817 0.534884 0.172332
H4    H     H_    0.566450 0.121162 0.691836 0.144439
H5    H     H_    0.566614 0.876725 0.691845 0.144075
H6    H     H_    0.345448 0.122908 0.628780 0.136034
H7    H     H_    0.345586 0.875943 0.628929 0.135733
H8    H     H_    0.469182 0.121706 0.305006 0.143837
H9    H     H_    0.469184 0.880197 0.305095 0.138868
H10   H     H_    0.629142 0.124082 0.349844 0.137284
H11   H     H_    0.629108 0.877222 0.349877 0.141235
H12   H     H_    0.305650 0.121099 0.465828 0.137747
H13   H     H_    0.305572 0.879466 0.466063 0.136857
H14   H     H_    0.511089 0.745243 0.074996 0.124061
H15   H     H_    0.306409 0.391078 0.081416 0.123821
H16   H     H_    0.689701 0.609224 0.918923 0.142668
H17   H     H_    0.485318 0.254439 0.924775 0.126222
H18   H     H_    0.900323 0.716373 0.423491 0.118810
H19   H     H_    0.894102 0.655559 0.648855 0.109407
H20   H     H_    0.108741 0.310039 0.377957 0.158501
H21   H     H_    0.103325 0.272649 0.543935 0.167013
N1    N     N_3   0.500250 0.143650 0.502780 -0.114916
N2    N     N_3   0.500250 0.856350 0.502780 -0.112623
O1    O     O_R   0.317570 0.620260 0.500070 -0.598758
O2    O     O_R   0.317570 0.379740 0.500070 -0.600728
O3    O     O_R   0.499850 0.620240 0.316900 -0.592981
O4    O     O_R   0.499850 0.379760 0.316900 -0.598768
O5    O     O_R   0.682190 0.620260 0.500030 -0.602183
O6    O     O_R   0.682190 0.379740 0.500030 -0.589603
O7    O     O_R   0.499910 0.620280 0.683200 -0.595560
O8    O     O_R   0.499910 0.379720 0.683200 -0.587446
H22   H     H_    0.685357 0.121935 0.574839 0.141376
H23   H     H_    0.685462 0.877080 0.574740 0.135953
H24   H     H_    0.676874 0.364097 0.078691 0.149375
H25   H     H_    0.110044 0.567636 0.300839 0.157650
H26   H     H_    0.111718 0.478431 0.702448 0.156683
H27   H     H_    0.109825 0.711389 0.410023 0.151076
H28   H     H_    0.105249 0.657749 0.647266 0.146707
C27   C     C_1   0.879464 0.582324 0.269222 0.204084
N3    N     N_1   0.840963 0.563512 0.169179 -0.325039
C28   C     C_1   0.881119 0.454146 0.731648 0.208650
N4    N     N_1   0.844568 0.381779 0.811977 -0.317004

loop_
_geom_bond_atom_site_label_1
_geom_bond_atom_site_label_2
_ccdc_geom_bond_type
C7    C10   S    
C20   H14   S    
C23   C24   S    
C13   N1    S    
C15   H10   S    
C5    C9    S    
C22   H1    S    
C3    H25   S    
C6    C28   S    
C1    C8    S    
C5    H18   S    
C10   H2    S    
C18   O6    A    
C19   C23   S    
C14   N2    S    
C16   N2    S    
C18   O5    A    
C16   H9    S    
C11   C12   S    
C7    H20   S    
Cu1   O5    S    
C2    C21   S    
C26   H24   S    
Cu1   O3    S    
C13   H6    S    
C2    C26   S    
C11   N1    S    
Cu2   O6    S    
C21   C22   S    
Cu2   O2    S    
C4    H28   S    
C12   H23   S    
C4    H26   S    
C3    H27   S    
Cu2   N1    S    
C5    C27   S    
C6    C9    S    
C14   H13   S    
C17   O3    A    
Cu1   Cu2   S    
C27   N3    T    
C20   C24   S    
Cu2   O4    S    
Cu1   N2    S    
C11   H4    S    
C23   C25   S    
C19   O7    A    
C28   N4    T    
C24   H16   S    
C1    O1    A    
C1    O2    A    
C15   N1    S    
C6    H19   S    
C20   C22   S    
C16   H11   S    
C2    C20   S    
C11   H22   S    
C25   H17   S    
C9    C18   S    
C7    C8    S    
C12   N2    S    
Cu1   O1    S    
C7    H21   S    
C4    C6    S    
C3    C8    S    
C9    C10   S    
Cu2   O8    S    
C4    C8    S    
C17   O4    A    
C22   C23   S    
C15   H8    S    
C13   H12   S    
C21   C25   S    
C3    C5    S    
C13   C14   S    
C19   O8    A    
C25   C26   S    
C21   H15   S    
C12   H5    S    
C10   H3    S    
C14   H7    S    
C15   C16   S    
C24   C26   S    
C2    C17   S    
Cu1   O7    S    
