data_mof_unit_31781.cif
_audit_creation_date              2012-12-10T19:07:34-0500
_audit_creation_method            fapswitch 2.2
_symmetry_space_group_name_H-M    P1
_symmetry_Int_Tables_number       1
_space_group_crystal_system       triclinic
_cell_length_a                    10.813889
_cell_length_b                    10.88357
_cell_length_c                    9.595041
_cell_angle_alpha                 90.248219
_cell_angle_beta                  90.431256
_cell_angle_gamma                 92.944527
_cell_volume                      1127.74057163

loop_
_atom_site_label
_atom_site_type_symbol
_atom_type_description
_atom_site_fract_x
_atom_site_fract_y
_atom_site_fract_z
_atom_type_partial_charge
C1    C     C_R   0.501586 0.262667 0.499823 0.846483
C2    C     C_R   0.941963 0.560601 0.597476 0.071096
C3    C     C_3   0.946976 0.696452 0.621863 -0.476665
C4    C     C_3   0.086791 0.694452 0.622256 -0.407632
C5    C     C_R   0.473230 0.062449 0.620323 -0.151268
C6    C     C_R   0.499349 0.129241 0.498959 -0.201122
C7    C     C_R   0.516028 0.063232 0.374019 0.554330
C8    C     C_R   0.512118 0.934974 0.374222 -0.273493
C9    C     C_R   0.495332 0.869915 0.499353 -0.196856
C10   C     C_R   0.471854 0.936147 0.620264 0.044629
C11   C     C_3   0.515985 0.932426 0.768999 0.786397
C12   C     C_R   0.262704 0.495752 0.499644 0.883916
C13   C     C_3   0.513319 0.073588 0.770981 0.001555
C14   C     C_R   0.580608 0.576481 0.074463 0.206147
C15   C     C_R   0.413506 0.430949 0.073993 0.240752
C16   C     C_R   0.410777 0.433958 0.924036 0.256869
C17   C     C_R   0.580752 0.576245 0.927712 0.274119
C18   C     C_3   0.718450 0.577823 0.923342 -0.500793
C19   C     C_3   0.718477 0.577525 0.081213 -0.498497
C20   C     C_R   0.499818 0.737240 0.500228 0.818435
C21   C     C_R   0.737508 0.498652 0.500448 0.836222
C22   C     C_R   0.069088 0.560069 0.596023 0.026555
C23   C     C_R   0.129392 0.488247 0.501168 -0.237907
C24   C     C_R   0.059671 0.402265 0.419511 0.490256
C25   C     C_R   0.929547 0.402890 0.418768 0.128260
C26   C     C_R   0.870680 0.489340 0.502694 -0.196942
Cu1   Cu    Cu3+1 0.499990 0.499980 0.640670 0.983429
Cu2   Cu    Cu3+1 0.500010 0.500020 0.359330 1.004243
H1    H     H_    0.439916 0.108316 0.838424 0.144619
H2    H     H_    0.753945 0.492492 0.877817 0.216374
H3    H     H_    0.758304 0.665072 0.879655 0.209097
H4    H     H_    0.753361 0.491497 0.125368 0.231227
H5    H     H_    0.759560 0.664065 0.127913 0.197235
H6    H     H_    0.910299 0.747724 0.531888 0.190640
H7    H     H_    0.910643 0.719937 0.725596 0.201348
H8    H     H_    0.130856 0.744830 0.533430 0.192761
H9    H     H_    0.129465 0.714995 0.726080 0.217290
H10   H     H_    0.528849 0.887407 0.277292 0.197707
N1    N     N_R   0.500790 0.500930 0.147930 -0.212057
N2    N     N_R   0.500790 0.500890 0.852020 -0.217451
O1    O     O_R   0.500000 0.319640 0.618810 -0.593828
O2    O     O_R   0.500010 0.319680 0.381230 -0.489115
O3    O     O_R   0.319650 0.499970 0.618810 -0.548835
O4    O     O_R   0.319660 0.500010 0.381230 -0.558474
O5    O     O_R   0.499990 0.680320 0.618770 -0.541549
O6    O     O_R   0.500000 0.680360 0.381190 -0.596060
O7    O     O_R   0.680340 0.499990 0.618770 -0.598526
O8    O     O_R   0.680350 0.500030 0.381190 -0.567005
F1    F     F_    0.116715 0.315880 0.344941 -0.705053
N3    N     N_2   0.637859 0.883572 0.790790 -0.402556
H11   H     H_    0.668572 0.887654 0.892782 0.254572
C27   C     C_3   0.734116 0.903011 0.687286 -0.731877
H12   H     H_    0.826249 0.910599 0.739181 0.228519
H13   H     H_    0.723745 0.988093 0.626226 0.239953
H14   H     H_    0.730163 0.824169 0.614058 0.223818
N4    N     N_2   0.634483 0.135694 0.793173 -0.445511
H15   H     H_    0.660996 0.202771 0.722766 0.271100
C28   C     C_3   0.663393 0.170163 0.935789 -0.611518
H16   H     H_    0.606773 0.247411 0.968387 0.228392
H17   H     H_    0.762779 0.200398 0.944551 0.213974
H18   H     H_    0.645671 0.090590 0.006142 0.271526
N5    N     N_2   0.322601 0.360269 0.148748 -0.359473
H19   H     H_    0.238174 0.399399 0.153839 0.284365
C29   C     C_3   0.317585 0.227826 0.131591 -0.469275
H20   H     H_    0.233369 0.196605 0.071930 0.181565
H21   H     H_    0.312238 0.184164 0.235687 0.272462
H22   H     H_    0.400274 0.196416 0.076676 0.226543
N6    N     N_2   0.317939 0.364237 0.847831 -0.367878
H23   H     H_    0.324736 0.270620 0.852129 0.232573
C30   C     C_3   0.191976 0.402508 0.859438 -0.641556
H24   H     H_    0.145186 0.360922 0.951172 0.196430
H25   H     H_    0.138238 0.368844 0.766870 0.229411
H26   H     H_    0.189732 0.504402 0.865030 0.238062
N7    N     N_2   0.859087 0.316493 0.334998 -0.394891
H27   H     H_    0.897731 0.301749 0.238755 0.275958
C31   C     C_3   0.827494 0.202348 0.405866 -0.609517
H28   H     H_    0.912717 0.156677 0.438023 0.234459
H29   H     H_    0.773424 0.139357 0.334587 0.252443
H30   H     H_    0.770918 0.219811 0.499205 0.192723
F2    F     F_    0.545482 0.121582 0.253415 -0.704615
F3    F     F_    0.427845 0.876760 0.855255 -0.693044

loop_
_geom_bond_atom_site_label_1
_geom_bond_atom_site_label_2
_ccdc_geom_bond_type
C21   C26   S    
C4    H8    S    
C31   H30   S    
C7    C8    A    
C11   F3    S    
C12   C23   S    
Cu2   O6    S    
N7    C31   S    
C13   H1    S    
C31   H29   S    
C25   N7    S    
C12   O3    A    
C5    C6    A    
C28   H17   S    
C15   C16   A    
N4    H15   S    
C18   C19   S    
N5    C29   S    
C14   N1    A    
N6    H23   S    
C2    C22   A    
N3    C27   S    
C23   C24   A    
C30   H24   S    
C18   H2    S    
C9    C10   A    
C5    C13   S    
C20   O5    A    
C27   H14   S    
C21   O8    A    
Cu1   O5    S    
C28   H18   S    
C14   C17   A    
C8    H10   S    
C19   H4    S    
C27   H13   S    
C17   C18   S    
N7    H27   S    
C1    C6    S    
C29   H22   S    
C24   C25   A    
C19   H5    S    
C8    C9    A    
Cu2   N1    S    
C28   H16   S    
Cu2   O4    S    
C17   N2    A    
C29   H21   S    
N5    H19   S    
C4    C22   S    
Cu1   O1    S    
C9    C20   S    
C3    H7    S    
Cu1   N2    S    
C30   H26   S    
N3    H11   S    
C2    C26   A    
C31   H28   S    
C15   N1    A    
C16   N2    A    
C16   N6    S    
C1    O1    A    
C3    C4    S    
C27   H12   S    
Cu1   O7    S    
C24   F1    S    
Cu2   O8    S    
C14   C19   S    
C6    C7    A    
C3    H6    S    
C29   H20   S    
C13   N4    S    
C2    C3    S    
C25   C26   A    
C5    C10   A    
C12   O4    A    
C11   N3    S    
C11   C13   S    
Cu2   O2    S    
C15   N5    S    
N4    C28   S    
C10   C11   S    
Cu1   O3    S    
C1    O2    A    
C4    H9    S    
N6    C30   S    
Cu1   Cu2   S    
C22   C23   A    
C30   H25   S    
C18   H3    S    
C20   O6    A    
C7    F2    S    
C21   O7    A    
