data_mof_unit_18639.cif
_audit_creation_date              2012-12-11T16:08:42-0500
_audit_creation_method            fapswitch 2.2
_symmetry_space_group_name_H-M    P1
_symmetry_Int_Tables_number       1
_space_group_crystal_system       triclinic
_cell_length_a                    12.980272
_cell_length_b                    13.276539
_cell_length_c                    27.726051
_cell_angle_alpha                 94.994273
_cell_angle_beta                  90.115142
_cell_angle_gamma                 119.336306
_cell_volume                      4144.06057372

loop_
_atom_site_label
_atom_site_type_symbol
_atom_type_description
_atom_site_fract_x
_atom_site_fract_y
_atom_site_fract_z
_atom_type_partial_charge
C1    C     C_R   0.627873 0.895143 0.427487 0.546420
C2    C     C_R   0.580165 0.256902 0.219966 -0.098718
C3    C     C_R   0.568792 0.241073 0.269277 -0.101646
C4    C     C_R   0.663263 0.312103 0.302834 0.035929
C5    C     C_R   0.686356 0.343511 0.203848 0.037542
C6    C     C_1   0.695017 0.366881 0.153797 -0.051580
C7    C     C_1   0.650136 0.292902 0.353353 -0.058345
C8    C     C_1   0.703511 0.394570 0.113071 -0.008101
C9    C     C_R   0.198868 0.755813 0.347758 -0.130159
C10   C     C_R   0.187469 0.750680 0.297910 0.008075
C11   C     C_R   0.174494 0.745618 0.197426 0.007761
C12   C     C_R   0.600917 0.221697 0.440468 0.545231
C13   C     C_R   0.187146 0.660060 0.218537 -0.127057
C14   C     C_R   0.191748 0.661552 0.268617 -0.136575
C15   C     C_R   0.159094 0.738153 0.147585 -0.126602
C16   C     C_R   0.127355 0.812158 0.126748 -0.006784
C17   C     C_R   0.197151 0.938905 0.356911 -0.137185
C18   C     C_R   0.177963 0.931136 0.306710 0.011005
C19   C     C_R   0.177911 0.839000 0.277101 0.060935
C20   C     C_R   0.164325 0.016151 0.285323 -0.134426
C21   C     C_R   0.149851 0.009269 0.234939 -0.132146
C22   C     C_R   0.152051 0.919056 0.205378 0.010731
C23   C     C_R   0.269365 0.876026 0.425493 0.546362
C24   C     C_R   0.169066 0.835196 0.226622 0.059352
C25   C     C_R   0.130464 0.906633 0.155221 -0.134919
C26   C     C_R   0.212803 0.853698 0.377174 -0.004381
C27   C     C_R   0.753720 0.934669 0.357945 -0.127274
C28   C     C_R   0.759500 0.924753 0.308023 0.022194
C29   C     C_R   0.762481 0.914103 0.207408 0.013110
C30   C     C_R   0.854881 0.007276 0.235773 -0.121436
C31   C     C_R   0.854341 0.011622 0.285923 -0.123485
C32   C     C_R   0.767067 0.906747 0.157553 -0.127877
C33   C     C_R   0.685726 0.805512 0.129086 -0.028664
C34   C     C_R   0.627590 0.898301 0.564648 0.546989
C35   C     C_R   0.561424 0.759446 0.352181 -0.129459
C36   C     C_R   0.568325 0.745391 0.302000 -0.018648
C37   C     C_R   0.665503 0.830863 0.279724 0.047548
C38   C     C_R   0.476788 0.651225 0.273596 -0.121653
C39   C     C_R   0.480969 0.640807 0.222729 0.243024
C40   C     C_R   0.577072 0.727904 0.200420 0.055675
C41   C     C_R   0.667967 0.824238 0.229170 0.015787
C42   C     C_R   0.587855 0.718628 0.150097 -0.104137
C43   C     C_R   0.651139 0.857615 0.379720 -0.002316
C44   C     C_R   0.741818 0.301080 0.651366 -0.138972
C45   C     C_R   0.603290 0.227658 0.578330 0.545402
C46   C     C_R   0.755709 0.324479 0.701833 0.006566
C47   C     C_R   0.770949 0.352630 0.803716 0.005718
C48   C     C_R   0.861355 0.347241 0.777967 -0.140566
C49   C     C_R   0.853021 0.331712 0.727297 -0.140558
C50   C     C_R   0.779306 0.371344 0.854354 -0.138266
C51   C     C_R   0.688832 0.379112 0.879191 -0.005637
C52   C     C_R   0.560661 0.312902 0.652393 -0.135155
C53   C     C_R   0.569894 0.330126 0.702529 0.001487
C54   C     C_R   0.666591 0.333907 0.727528 0.057119
C55   C     C_R   0.479566 0.335737 0.728004 -0.144019
C56   C     C_R   0.271821 0.879490 0.563440 0.546920
C57   C     C_R   0.483308 0.342056 0.778274 -0.143238
C58   C     C_R   0.579166 0.346309 0.803460 0.001131
C59   C     C_R   0.672297 0.344156 0.778249 0.056280
C60   C     C_R   0.585798 0.358466 0.853618 -0.133121
C61   C     C_R   0.640745 0.288910 0.626984 -0.006806
C62   C     C_1   0.222199 0.863027 0.610169 -0.012589
C63   C     C_R   0.077252 0.746274 0.718039 -0.103642
C64   C     C_R   0.062217 0.736212 0.767652 -0.103554
C65   C     C_R   0.232617 0.927982 0.786014 -0.104584
C66   C     C_R   0.247599 0.938087 0.736370 -0.104399
C67   C     C_1   0.632293 0.267480 0.394423 -0.014497
C68   C     C_R   0.170301 0.847052 0.702277 0.036045
C69   C     C_R   0.140473 0.826557 0.801752 0.036423
C70   C     C_1   0.123592 0.814271 0.852649 -0.057741
C71   C     C_1   0.193361 0.854125 0.651567 -0.057462
C72   C     C_1   0.100244 0.797147 0.894248 -0.013527
C73   C     C_1   0.647508 0.860924 0.609004 -0.014506
C74   C     C_R   0.693898 0.905358 0.734970 -0.104125
C75   C     C_R   0.704311 0.888579 0.783328 -0.101997
C76   C     C_R   0.678515 0.697596 0.758201 -0.106505
C77   C     C_R   0.667863 0.714379 0.709610 -0.105273
C78   C     C_R   0.769905 0.398142 0.286718 -0.105922
C79   C     C_R   0.675650 0.818533 0.697979 0.036811
C80   C     C_R   0.696399 0.784742 0.795124 0.036484
C81   C     C_1   0.710029 0.770225 0.845122 -0.058163
C82   C     C_1   0.661378 0.837363 0.648654 -0.057769
C83   C     C_1   0.724943 0.761840 0.887179 -0.011113
C84   C     C_R   0.065431 0.773148 0.079056 0.549718
C85   C     C_R   0.717039 0.441498 0.067316 0.549112
C86   C     C_R   0.720626 0.782814 0.081080 0.556751
C87   C     C_R   0.056483 0.766212 0.941222 0.538768
C88   C     C_R   0.710262 0.434214 0.928922 0.536237
C89   C     C_R   0.781287 0.414001 0.237336 -0.104446
C90   C     C_R   0.748481 0.754408 0.936900 0.562381
Cr1   Cr    Cr6+3 0.416430 0.829200 0.492370 1.021403
Cr2   Cr    Cr6+3 0.674630 0.087020 0.504170 1.021239
Cr3   Cr    Cr6+3 0.408920 0.083740 0.503490 1.021277
Cr4   Cr    Cr6+3 0.914010 0.832750 0.013970 1.020780
Cr5   Cr    Cr6+3 0.922310 0.578600 0.003000 1.020621
Cr6   Cr    Cr6+3 0.656280 0.574630 0.003870 1.030760
H1    H     H_    0.843752 0.453106 0.312234 0.111960
H2    H     H_    0.136712 0.074184 0.219117 0.105417
H3    H     H_    0.164063 0.087328 0.307531 0.105008
H4    H     H_    0.206721 0.013997 0.379637 0.123510
H5    H     H_    0.841758 0.975553 0.141516 0.136303
H6    H     H_    0.824218 0.009517 0.379190 0.130545
H7    H     H_    0.928470 0.075750 0.219159 0.100494
H8    H     H_    0.926544 0.084265 0.307392 0.101112
H9    H     H_    0.524682 0.641330 0.127687 0.184245
H10   H     H_    0.402089 0.585940 0.290983 0.085298
H11   H     H_    0.863443 0.482186 0.225360 0.118708
H12   H     H_    0.482639 0.698850 0.369143 0.123988
H13   H     H_    0.858700 0.386549 0.874038 0.129485
H14   H     H_    0.804865 0.284399 0.631667 0.127585
H15   H     H_    0.937840 0.354044 0.796997 0.113987
H16   H     H_    0.922237 0.324832 0.708058 0.112987
H17   H     H_    0.514685 0.362708 0.872477 0.138531
H18   H     H_    0.412091 0.345118 0.797475 0.114145
H19   H     H_    0.404592 0.332153 0.709017 0.113280
H20   H     H_    0.483783 0.306269 0.633686 0.135696
H21   H     H_    0.017678 0.674935 0.692090 0.113673
H22   H     H_    0.505757 0.202774 0.194570 0.118198
H23   H     H_    0.990191 0.657564 0.779440 0.117613
H24   H     H_    0.293213 0.998570 0.812001 0.114778
H25   H     H_    0.320588 0.016040 0.724577 0.120077
H26   H     H_    0.699577 0.986009 0.726415 0.117348
H27   H     H_    0.718695 0.956677 0.811526 0.116761
H28   H     H_    0.672902 0.617120 0.766949 0.121849
H29   H     H_    0.653238 0.646421 0.681317 0.113399
H30   H     H_    0.486085 0.173751 0.281279 0.120335
H31   H     H_    0.159350 0.666561 0.125616 0.141315
H32   H     H_    0.208726 0.688397 0.363095 0.131149
H33   H     H_    0.190309 0.590401 0.196325 0.137399
H34   H     H_    0.200400 0.594070 0.284442 0.098944
H35   H     H_    0.107502 0.964950 0.139040 0.126123
O1    O     O_R   0.296680 0.802170 0.437540 -0.524620
O2    O     O_R   0.662610 0.183990 0.557860 -0.502121
O3    O     O_R   0.500730 0.201280 0.562180 -0.519980
O4    O     O_R   0.312500 0.978850 0.548170 -0.494717
O5    O     O_3   0.499990 0.999990 0.500010 -0.242154
O6    O     O_R   0.820790 0.857990 0.068830 -0.517032
O7    O     O_R   0.016700 0.827330 0.062850 -0.501438
O8    O     O_R   0.041970 0.673520 0.060040 -0.515683
O9    O     O_R   0.817980 0.483660 0.048840 -0.492638
O10   O     O_R   0.637200 0.461990 0.052510 -0.501722
O11   O     O_R   0.664790 0.681920 0.057970 -0.494298
O12   O     O_R   0.525380 0.838530 0.443500 -0.503786
O13   O     O_R   0.815840 0.852920 0.961840 -0.503037
O14   O     O_R   0.012100 0.822630 0.963670 -0.511287
O15   O     O_R   0.037010 0.668460 0.953040 -0.507237
O16   O     O_R   0.813390 0.478970 0.949660 -0.503851
O17   O     O_R   0.632250 0.456930 0.945520 -0.527473
O18   O     O_R   0.660200 0.677230 0.958780 -0.491006
O19   O     O_3   0.830870 0.661990 0.006950 -0.266970
O20   O     O_R   0.702130 0.995190 0.446810 -0.519693
O21   O     O_R   0.661770 0.181390 0.458760 -0.494426
O22   O     O_R   0.499820 0.198480 0.455280 -0.510331
O23   O     O_R   0.311660 0.976250 0.449080 -0.500240
O24   O     O_R   0.297580 0.804960 0.544440 -0.507062
O25   O     O_R   0.526220 0.841130 0.542590 -0.494195
O26   O     O_R   0.703030 0.997990 0.553710 -0.510592
O27   O     O_3   0.392285 0.547298 0.194399 -0.725214
H36   H     H_    0.331989 0.495008 0.215684 0.314176

loop_
_geom_bond_atom_site_label_1
_geom_bond_atom_site_label_2
_ccdc_geom_bond_type
C66   C68   A    
C16   C25   A    
C87   O15   A    
C12   O21   A    
C35   C36   A    
C42   H9    S    
C12   O22   A    
Cr3   O5    S    
C72   C87   S    
C2    H22   S    
C3    H30   S    
C62   C71   T    
C53   C54   A    
C4    C78   A    
C5    C6    S    
C46   C49   A    
C45   O3    A    
C64   H23   S    
C75   H27   S    
C33   C42   A    
Cr3   O23   S    
C8    C85   S    
C29   C32   A    
C52   C61   A    
C56   O24   A    
C14   H34   S    
C38   C39   A    
C63   H21   S    
C58   C60   A    
C15   C16   A    
C11   C24   A    
C16   C84   S    
C18   C19   A    
C23   C26   S    
C45   C61   S    
C35   H12   S    
C86   O6    A    
Cr6   O10   S    
C11   C15   A    
C1    C43   S    
Cr1   O5    S    
Cr2   O2    S    
C84   O8    A    
C22   C25   A    
C30   H7    S    
Cr2   O21   S    
C1    O20   A    
C35   C43   A    
C75   C80   A    
C56   C62   S    
Cr4   O14   S    
C40   C42   A    
C84   O7    A    
C15   H31   S    
C21   C22   A    
C89   H11   S    
C60   H17   S    
Cr2   O5    S    
Cr5   O15   S    
C78   H1    S    
C90   O18   A    
C81   C83   T    
C44   C46   A    
C9    C26   A    
C50   C51   A    
C47   C50   A    
Cr1   O12   S    
C54   C59   A    
C53   C55   A    
C78   C89   A    
C88   O17   A    
Cr6   O17   S    
C12   C67   S    
C66   H25   S    
C9    H32   S    
C74   C75   A    
C76   H28   S    
Cr5   O16   S    
C76   C77   A    
Cr3   O3    S    
C10   C14   A    
C85   O10   A    
C39   C40   A    
C6    C8    T    
Cr1   O1    S    
C4    C7    S    
C58   C59   A    
Cr6   O11   S    
C50   H13   S    
C88   O16   A    
Cr2   O26   S    
C38   H10   S    
C33   C86   S    
Cr1   O24   S    
C29   C30   A    
C1    O12   A    
C47   C48   A    
C10   C19   A    
Cr6   O19   S    
C46   C54   A    
Cr2   O20   S    
C17   C18   A    
Cr5   O9    S    
C77   C79   A    
Cr5   O19   S    
C64   C69   A    
C85   O9    A    
C49   H16   S    
C40   C41   A    
C74   H26   S    
C47   C59   A    
C74   C79   A    
C55   C57   A    
C39   O27   S    
O27   H36   S    
Cr4   O7    S    
C22   C24   A    
C2    C5    A    
C17   C26   A    
C3    C4    A    
C25   H35   S    
C73   C82   T    
C56   O4    A    
C77   H29   S    
C52   C53   A    
C86   O11   A    
C9    C10   A    
C52   H20   S    
C83   C90   S    
C63   C68   A    
C48   C49   A    
C87   O14   A    
C29   C41   A    
Cr5   O8    S    
C28   C31   A    
C76   C80   A    
C80   C81   S    
Cr3   O4    S    
C51   C88   S    
C79   C82   S    
C57   H18   S    
C34   O25   A    
C44   C61   A    
Cr4   O19   S    
C27   H6    S    
C45   O2    A    
Cr4   O13   S    
C32   C33   A    
Cr3   O22   S    
C2    C3    A    
Cr1   O25   S    
C31   H8    S    
C21   H2    S    
C11   C13   A    
C57   C58   A    
C30   C31   A    
C20   H3    S    
C55   H19   S    
C28   C37   A    
C68   C71   S    
C65   C69   A    
Cr6   O18   S    
C36   C38   A    
C65   H24   S    
C23   O1    A    
C19   C24   A    
C18   C20   A    
C37   C41   A    
C69   C70   S    
C17   H4    S    
C90   O13   A    
C34   C73   S    
C7    C67   T    
C63   C64   A    
C34   O26   A    
C27   C43   A    
C48   H15   S    
C20   C21   A    
C36   C37   A    
C65   C66   A    
C23   O23   A    
C27   C28   A    
Cr4   O6    S    
C13   H33   S    
C32   H5    S    
C70   C72   T    
C51   C60   A    
C13   C14   A    
C5    C89   A    
C44   H14   S    
