data_mof_unit_29860.cif
_audit_creation_date              2012-12-10T18:13:14-0500
_audit_creation_method            fapswitch 2.2
_symmetry_space_group_name_H-M    P1
_symmetry_Int_Tables_number       1
_space_group_crystal_system       triclinic
_cell_length_a                    10.751393
_cell_length_b                    9.521103
_cell_length_c                    19.297783
_cell_angle_alpha                 89.497674
_cell_angle_beta                  96.588546
_cell_angle_gamma                 90.14222
_cell_volume                      1962.29606999

loop_
_atom_site_label
_atom_site_type_symbol
_atom_type_description
_atom_site_fract_x
_atom_site_fract_y
_atom_site_fract_z
_atom_type_partial_charge
C1    C     C_R   0.259670 0.500105 0.496754 0.728307
C2    C     C_R   0.473626 0.501396 0.067685 0.564574
C3    C     C_R   0.472030 0.627978 0.815122 -0.124948
C4    C     C_R   0.449063 0.374927 0.814144 -0.120261
C5    C     C_R   0.480459 0.627525 0.743580 -0.154149
C6    C     C_R   0.453342 0.375265 0.742235 -0.139436
C7    C     C_R   0.475859 0.500452 0.706816 -0.107665
C8    C     C_R   0.460051 0.501170 0.851015 0.050595
C9    C     C_3   0.068225 0.650720 0.480543 -0.365948
C10   C     C_3   0.087144 0.449595 0.566457 -0.416072
C11   C     C_3   0.925650 0.650023 0.480419 -0.367152
C12   C     C_3   0.944167 0.445431 0.565753 -0.294880
C13   C     C_3   0.059371 0.401952 0.437109 -0.351424
C14   C     C_3   0.121593 0.500493 0.494956 0.155703
C15   C     C_3   0.877764 0.499883 0.494964 0.095175
C16   C     C_R   0.498251 0.500455 0.367477 0.812630
C17   C     C_3   0.915143 0.402994 0.436529 -0.401689
C18   C     C_3   0.625591 0.085590 0.535101 0.347937
C19   C     C_3   0.627464 0.914710 0.531690 0.334408
C20   C     C_3   0.400383 0.081969 0.539905 -0.215832
C21   C     C_3   0.406565 0.916282 0.544182 -0.230799
C22   C     C_3   0.479101 0.084111 0.429982 -0.300305
C23   C     C_3   0.472692 0.918310 0.430254 -0.285782
C24   C     C_R   0.739410 0.500058 0.496851 0.870140
C25   C     C_R   0.490873 0.499767 0.631767 0.882046
C26   C     C_R   0.517866 0.624240 0.254976 -0.240583
C27   C     C_R   0.462659 0.378043 0.253683 -0.238147
C28   C     C_R   0.513320 0.625779 0.182258 0.394110
C29   C     C_R   0.453603 0.377166 0.180903 0.391518
C30   C     C_R   0.479894 0.501657 0.144339 -0.209190
C31   C     C_R   0.493550 0.500966 0.290991 -0.174888
C32   C     C_R   0.462538 0.500055 0.926913 0.388430
Cu1   Cu    Cu3+1 0.499860 0.642410 0.500030 0.971730
Cu2   Cu    Cu3+1 0.499860 0.357590 0.500030 0.972597
H1    H     H_    0.542143 0.719342 0.283804 0.191613
H2    H     H_    0.443117 0.282639 0.281425 0.193304
H3    H     H_    0.870396 0.440320 0.384798 0.168462
H4    H     H_    0.881614 0.293910 0.444287 0.176282
H5    H     H_    0.698071 0.120378 0.501895 0.034382
H6    H     H_    0.693304 0.890472 0.492873 0.029690
H7    H     H_    0.390683 0.126859 0.402190 0.186730
H8    H     H_    0.378372 0.883544 0.406796 0.184021
H9    H     H_    0.555353 0.118467 0.399248 0.165088
H10   H     H_    0.540524 0.878139 0.395879 0.168879
H11   H     H_    0.306890 0.112817 0.513465 0.149182
H12   H     H_    0.312131 0.873843 0.526456 0.156640
H13   H     H_    0.478792 0.726758 0.842755 0.167974
H14   H     H_    0.435574 0.276485 0.840883 0.163152
H15   H     H_    0.490709 0.726675 0.717269 0.199688
H16   H     H_    0.437271 0.278002 0.714484 0.188543
H17   H     H_    0.092389 0.690307 0.429294 0.169560
H18   H     H_    0.126307 0.342954 0.578904 0.173459
H19   H     H_    0.109780 0.724503 0.521332 0.178432
H20   H     H_    0.128457 0.521285 0.608276 0.168123
H21   H     H_    0.901022 0.723213 0.520781 0.237540
H22   H     H_    0.917407 0.509396 0.609489 0.201377
H23   H     H_    0.880390 0.689582 0.429197 0.159859
H24   H     H_    0.916343 0.334771 0.574335 0.224247
H25   H     H_    0.084413 0.436662 0.385261 0.165717
H26   H     H_    0.094335 0.292654 0.446248 0.171801
N1    N     N_R   0.538252 0.404656 0.035145 -0.143046
N2    N     N_R   0.403239 0.597507 0.028520 -0.142450
N3    N     N_R   0.532152 0.403328 0.965948 -0.194068
N4    N     N_R   0.398648 0.597713 0.959315 -0.203617
N5    N     N_3   0.500250 0.143650 0.501520 -0.193412
N6    N     N_3   0.500250 0.856350 0.501520 -0.194908
O1    O     O_R   0.317570 0.620260 0.500040 -0.606492
O2    O     O_R   0.317570 0.379740 0.500040 -0.607101
O3    O     O_R   0.499870 0.620300 0.400170 -0.601522
O4    O     O_R   0.499870 0.379700 0.400170 -0.602440
O5    O     O_R   0.682190 0.620260 0.500020 -0.538452
O6    O     O_R   0.682190 0.379740 0.500020 -0.548309
O7    O     O_R   0.499890 0.620220 0.599880 -0.525562
O8    O     O_R   0.499890 0.379780 0.599880 -0.509297
S1    S     S_3+6 0.685170 0.163324 0.622061 0.062608
O9    O     O_2   0.593633 0.134335 0.673460 -0.302972
O10   O     O_2   0.809211 0.103963 0.650814 -0.214160
O11   O     O_3   0.718621 0.335111 0.625558 -0.537415
H27   H     H_    0.741382 0.355596 0.675693 0.356835
S2    S     S_3+6 0.709862 0.828399 0.612120 0.049355
O12   O     O_2   0.845098 0.869989 0.614656 -0.296763
O13   O     O_2   0.657624 0.879141 0.676141 -0.248290
O14   O     O_3   0.721813 0.654205 0.623375 -0.525869
H28   H     H_    0.762240 0.640110 0.671719 0.353548
H29   H     H_    0.404173 0.126418 0.592865 0.193666
H30   H     H_    0.428356 0.883055 0.599554 0.189835
S3    S     S_3+6 0.553172 0.784193 0.141118 0.058707
O15   O     O_2   0.434989 0.852825 0.108104 -0.210140
O16   O     O_2   0.619885 0.882521 0.193531 -0.254977
O17   O     O_3   0.646722 0.749776 0.079230 -0.521205
H31   H     H_    0.651764 0.839345 0.053193 0.394368
S4    S     S_3+6 0.405845 0.218969 0.137763 0.059361
O18   O     O_2   0.518802 0.150128 0.113726 -0.208422
O19   O     O_2   0.347914 0.120522 0.186337 -0.254271
O20   O     O_3   0.300711 0.253918 0.068344 -0.521026
H32   H     H_    0.291049 0.164545 0.042371 0.393407

loop_
_geom_bond_atom_site_label_1
_geom_bond_atom_site_label_2
_ccdc_geom_bond_type
S3    O15   D    
S1    O9    D    
C18   S1    S    
C21   N6    S    
C27   C29   A    
O20   H32   S    
C9    H17   S    
C4    C8    A    
C10   H18   S    
C13   H26   S    
C18   N5    S    
Cu1   O1    S    
C23   H8    S    
C23   N6    S    
C25   O8    A    
C22   H7    S    
C1    O2    A    
C19   N6    S    
C18   C19   S    
N1    N3    A    
N2    N4    A    
C11   C15   S    
C22   H9    S    
Cu2   O4    S    
C20   H11   S    
C2    N1    A    
Cu1   O3    S    
C12   H24   S    
C26   C31   A    
C13   C14   S    
C5    H15   S    
S2    O14   S    
Cu2   N5    S    
Cu1   N6    S    
C27   C31   A    
C8    C32   S    
C20   N5    S    
C16   O4    A    
C32   N4    A    
S2    O13   D    
C3    C8    A    
C10   C14   S    
Cu2   O2    S    
C5    C7    A    
C9    C14   S    
O11   H27   S    
S4    O20   S    
C23   H10   S    
C16   C31   S    
C18   H5    S    
C22   N5    S    
C29   C30   A    
C9    C11   S    
O14   H28   S    
C12   C15   S    
C20   H29   S    
C28   S3    S    
S4    O19   D    
Cu1   Cu2   S    
C17   H3    S    
C6    H16   S    
S1    O10   D    
C12   H22   S    
C10   C12   S    
Cu2   O8    S    
Cu1   O7    S    
C15   C24   S    
S3    O16   D    
C4    C6    A    
C9    H19   S    
Cu2   O6    S    
C11   H21   S    
C24   O6    A    
C21   H12   S    
C4    H14   S    
C15   C17   S    
C21   H30   S    
C16   O3    A    
C32   N3    A    
S2    O12   D    
C3    C5    A    
C6    C7    A    
C13   H25   S    
C27   H2    S    
C26   C28   A    
C7    C25   S    
C13   C17   S    
C2    C30   S    
C28   C30   A    
O17   H31   S    
C3    H13   S    
S4    O18   D    
C1    O1    A    
C25   O7    A    
C17   H4    S    
C19   S2    S    
C10   H20   S    
S1    O11   S    
C19   H6    S    
Cu1   O5    S    
C26   H1    S    
C20   C21   S    
S3    O17   S    
C22   C23   S    
C1    C14   S    
C11   H23   S    
C29   S4    S    
C2    N2    A    
C24   O5    A    
