data_mof_unit_48820.cif
_audit_creation_date              2013-03-05T15:49:02-0500
_audit_creation_method            fapswitch 2.2
_symmetry_space_group_name_H-M    P1
_symmetry_Int_Tables_number       1
_space_group_crystal_system       triclinic
_cell_length_a                    17.231443
_cell_length_b                    19.04183
_cell_length_c                    12.247774
_cell_angle_alpha                 93.161418
_cell_angle_beta                  84.765532
_cell_angle_gamma                 89.246782
_cell_volume                      3995.20015341

loop_
_atom_site_label
_atom_site_type_symbol
_atom_site_description
_atom_site_fract_x
_atom_site_fract_y
_atom_site_fract_z
_atom_type_partial_charge
O1    O     O_R   0.418020 0.076820 0.422210 -0.630894
O2    O     O_R   0.581980 0.923180 0.577790 -0.630316
O3    O     O_R   0.581980 0.076820 0.577790 -0.641805
O4    O     O_R   0.418020 0.923180 0.422210 -0.640225
O5    O     O_R   0.918020 0.576820 0.422210 -0.630629
O6    O     O_R   0.081980 0.423180 0.577790 -0.630615
O7    O     O_R   0.081980 0.576820 0.577790 -0.640356
O8    O     O_R   0.918020 0.423180 0.422210 -0.640953
O9    O     O_R   0.430370 0.076830 0.608590 -0.553117
O10   O     O_R   0.569630 0.923170 0.391410 -0.553045
O11   O     O_R   0.569630 0.076830 0.391410 -0.554962
O12   O     O_R   0.430370 0.923170 0.608590 -0.557000
O13   O     O_R   0.930370 0.576830 0.608590 -0.553361
O14   O     O_R   0.069630 0.423170 0.391410 -0.552999
O15   O     O_R   0.069630 0.576830 0.391410 -0.557245
O16   O     O_R   0.930370 0.423170 0.608590 -0.556944
C1    C     C_R   0.402769 0.102603 0.523027 0.913911
C2    C     C_R   0.597294 0.897447 0.476958 0.914013
C3    C     C_R   0.595033 0.103719 0.482022 0.914214
C4    C     C_R   0.404789 0.896381 0.518070 0.915987
C5    C     C_R   0.902753 0.602587 0.523029 0.914730
C6    C     C_R   0.097244 0.397402 0.476975 0.915022
C7    C     C_R   0.095223 0.603610 0.481927 0.915986
C8    C     C_R   0.904642 0.396441 0.518077 0.916563
C9    C     C_R   0.588977 0.015815 0.829010 0.163561
C10   C     C_R   0.411142 0.983859 0.170898 0.164858
C11   C     C_R   0.088911 0.515931 0.829091 0.165150
C12   C     C_R   0.910949 0.484546 0.171039 0.161452
Zn1   Zn    Zn3+2 0.491750 1.000000 0.375560 1.013379
Zn2   Zn    Zn3+2 0.508250 1.000000 0.624440 1.014240
Zn3   Zn    Zn3+2 0.991750 0.500000 0.375560 1.014191
Zn4   Zn    Zn3+2 0.008250 0.500000 0.624440 1.014369
C13   C     C_R   0.591106 0.038378 0.939707 0.126622
C14   C     C_R   0.409194 0.961129 0.060228 0.114111
C15   C     C_R   0.090918 0.538584 0.939762 0.113209
C16   C     C_R   0.908711 0.461814 0.060420 0.107295
C17   C     C_R   0.455260 0.987707 0.865625 0.484694
C18   C     C_R   0.544817 0.012200 0.134480 0.485088
C19   C     C_R   0.955144 0.487847 0.865542 0.482713
C20   C     C_R   0.044796 0.512079 0.134362 0.484795
C21   C     C_R   0.642367 0.166006 0.475200 -0.180651
C22   C     C_R   0.356632 0.834622 0.525408 -0.200563
C23   C     C_R   0.350688 0.162699 0.539365 -0.150367
C24   C     C_R   0.649603 0.837522 0.460576 -0.150726
C25   C     C_R   0.143408 0.665349 0.474577 -0.200280
C26   C     C_R   0.855880 0.335036 0.525484 -0.200214
C27   C     C_R   0.850673 0.662678 0.539369 -0.150088
C28   C     C_R   0.149388 0.337340 0.460666 -0.150324
C29   C     C_R   0.283754 0.756698 0.642030 0.487989
C30   C     C_R   0.712694 0.246260 0.360083 0.456612
C31   C     C_R   0.756518 0.777252 0.353621 0.415859
C32   C     C_R   0.244423 0.223664 0.646660 0.415397
C33   C     C_R   0.783230 0.256935 0.642262 0.486110
C34   C     C_R   0.216319 0.743236 0.357929 0.488043
C35   C     C_R   0.255749 0.276453 0.353437 0.415613
C36   C     C_R   0.744139 0.723405 0.646372 0.414981
C37   C     C_R   0.340343 0.806538 0.626779 -0.223405
C38   C     C_R   0.657168 0.195389 0.374516 -0.241395
C39   C     C_R   0.696651 0.826773 0.362679 -0.283666
C40   C     C_R   0.304089 0.173939 0.637585 -0.284981
C41   C     C_R   0.840062 0.306578 0.626699 -0.222488
C42   C     C_R   0.159725 0.693404 0.373192 -0.223468
C43   C     C_R   0.196014 0.326115 0.362463 -0.283911
C44   C     C_R   0.803801 0.673694 0.637378 -0.283987
C45   C     C_R   0.329447 0.801260 0.431986 0.145296
C46   C     C_R   0.669722 0.199018 0.568866 0.142512
C47   C     C_R   0.654592 0.792440 0.545927 0.121109
C48   C     C_R   0.345565 0.207582 0.453756 0.124731
C49   C     C_R   0.827172 0.302671 0.432369 0.145072
C50   C     C_R   0.170606 0.698707 0.567992 0.145850
C51   C     C_R   0.154581 0.292517 0.546342 0.121244
C52   C     C_R   0.845873 0.707800 0.453987 0.120514
C53   C     C_R   0.262062 0.761024 0.446061 -0.081267
C54   C     C_R   0.736689 0.239779 0.554764 -0.081188
C55   C     C_R   0.724069 0.753971 0.549093 -0.050950
C56   C     C_R   0.276140 0.246159 0.450777 -0.051437
C57   C     C_R   0.759554 0.262919 0.447296 -0.065571
C58   C     C_R   0.238001 0.738927 0.553905 -0.081269
C59   C     C_R   0.224033 0.253981 0.549335 -0.051520
C60   C     C_R   0.776524 0.746493 0.450819 -0.051425
N1    N     N_R   0.480750 1.000000 0.209750 -0.173955
N2    N     N_R   0.519250 1.000000 0.790250 -0.173576
N3    N     N_R   0.980750 0.500000 0.209750 -0.173124
N4    N     N_R   0.019250 0.500000 0.790250 -0.173442
H1    H     H_    0.622047 0.181144 0.308513 0.228115
H2    H     H_    0.375108 0.821087 0.692994 0.253168
H3    H     H_    0.315715 0.145533 0.708434 0.233743
H4    H     H_    0.685229 0.855416 0.291992 0.234782
H5    H     H_    0.124974 0.678841 0.306968 0.253212
H6    H     H_    0.875423 0.320636 0.692479 0.252569
H7    H     H_    0.815194 0.645112 0.708147 0.233808
H8    H     H_    0.184355 0.354477 0.291584 0.233825
C61   C     C_R   0.466153 0.985589 0.980734 -0.136360
C62   C     C_R   0.534118 0.013986 0.019254 -0.136830
C63   C     C_R   0.965867 0.485901 0.980758 -0.134019
C64   C     C_R   0.033926 0.514155 0.019246 -0.133903
C65   C     C_3   0.335763 0.992951 0.242744 -0.615965
H9    H     H_    0.285065 0.988859 0.193068 0.255088
H10   H     H_    0.329103 0.953233 0.304203 0.257452
H11   H     H_    0.331776 0.046183 0.283667 0.259597
C66   C     C_3   0.664304 0.006580 0.757055 -0.616574
H12   H     H_    0.715063 0.010844 0.806596 0.255013
H13   H     H_    0.668266 0.953250 0.716479 0.259690
H14   H     H_    0.670914 0.046112 0.695303 0.257608
C67   C     C_3   0.835692 0.495027 0.242784 -0.611960
H15   H     H_    0.784848 0.490066 0.193530 0.258518
H16   H     H_    0.829030 0.456806 0.306506 0.255636
H17   H     H_    0.832140 0.548938 0.281257 0.259900
C68   C     C_3   0.164261 0.506906 0.757157 -0.614468
H18   H     H_    0.214988 0.510977 0.806782 0.255445
H19   H     H_    0.168263 0.453704 0.716143 0.259662
H20   H     H_    0.170870 0.546683 0.695787 0.257191
S1    S     S_3+6 0.644654 0.016590 0.170179 0.032908
O17   O     O_2   0.695508 0.977449 0.079831 -0.288376
O18   O     O_2   0.669699 0.091599 0.176519 -0.352231
O19   O     O_3   0.667336 0.983948 0.286613 -0.532838
H21   H     H_    0.723701 0.992606 0.289602 0.377244
S2    S     S_3+6 0.355194 0.984311 0.830628 0.035710
O20   O     O_2   0.328786 0.909714 0.825534 -0.330407
O21   O     O_2   0.305264 0.024433 0.920919 -0.288977
O22   O     O_3   0.332632 0.016542 0.713849 -0.535086
H22   H     H_    0.276011 0.008891 0.711690 0.376902
S3    S     S_3+6 0.144847 0.515546 0.169439 0.036429
O23   O     O_2   0.194828 0.475401 0.079228 -0.287475
O24   O     O_2   0.171192 0.590163 0.174446 -0.330008
O25   O     O_3   0.167429 0.483433 0.286292 -0.535088
H23   H     H_    0.224045 0.491121 0.288438 0.377825
S4    S     S_3+6 0.855174 0.484218 0.830152 0.038025
O26   O     O_2   0.829059 0.409526 0.825119 -0.326759
O27   O     O_2   0.804987 0.524336 0.920171 -0.286525
O28   O     O_3   0.832614 0.516240 0.713222 -0.535295
H24   H     H_    0.776061 0.508295 0.710858 0.377965
C69   C     C_3   0.614195 0.209151 0.671533 -0.681119
H25   H     H_    0.552918 0.211285 0.650114 0.208211
H26   H     H_    0.620056 0.165140 0.724884 0.260240
H27   H     H_    0.623592 0.260076 0.716327 0.261101
C70   C     C_3   0.385266 0.790469 0.329700 -0.681689
H28   H     H_    0.446461 0.788465 0.351485 0.207693
H29   H     H_    0.375944 0.739267 0.285662 0.258968
H30   H     H_    0.379627 0.834099 0.275537 0.260954
C71   C     C_3   0.419874 0.225151 0.385237 -0.662753
H31   H     H_    0.470950 0.220130 0.433677 0.179366
H32   H     H_    0.430201 0.189326 0.310797 0.283941
H33   H     H_    0.418647 0.280807 0.363100 0.261709
C72   C     C_3   0.580170 0.774642 0.613995 -0.655941
H34   H     H_    0.529206 0.779712 0.565344 0.178372
H35   H     H_    0.581432 0.718931 0.635847 0.258817
H36   H     H_    0.569626 0.810316 0.688575 0.286874
C73   C     C_3   0.114802 0.709507 0.670295 -0.683722
H37   H     H_    0.053602 0.711510 0.648532 0.207475
H38   H     H_    0.120452 0.665886 0.724474 0.261277
H39   H     H_    0.124134 0.760714 0.714315 0.258454
C74   C     C_3   0.881349 0.292443 0.328340 -0.690334
H40   H     H_    0.942809 0.287975 0.348308 0.210194
H41   H     H_    0.869614 0.242687 0.281842 0.257989
H42   H     H_    0.876464 0.337527 0.276863 0.260126
C75   C     C_3   0.920419 0.725430 0.386087 -0.657048
H43   H     H_    0.971334 0.720010 0.434731 0.177912
H44   H     H_    0.930836 0.689885 0.311349 0.287017
H45   H     H_    0.919464 0.781218 0.364604 0.258761
C76   C     C_3   0.080319 0.274975 0.614991 -0.656741
H46   H     H_    0.029166 0.280075 0.566711 0.178533
H47   H     H_    0.081535 0.219302 0.637051 0.258190
H48   H     H_    0.070117 0.310768 0.689482 0.287113
S5    S     S_3+6 0.782149 0.213255 0.766568 0.017952
O29   O     O_2   0.722023 0.246935 0.850553 -0.287021
O30   O     O_2   0.765110 0.136948 0.746140 -0.351065
O31   O     O_3   0.869866 0.219409 0.816221 -0.527371
H49   H     H_    0.862771 0.199513 0.889440 0.409769
S6    S     S_3+6 0.218038 0.786338 0.233027 0.016998
O32   O     O_2   0.234905 0.862731 0.252823 -0.348845
O33   O     O_2   0.278563 0.752387 0.149900 -0.300833
O34   O     O_3   0.130633 0.779827 0.182525 -0.525961
H50   H     H_    0.138180 0.799053 0.108850 0.411716
S7    S     S_3+6 0.292615 0.247930 0.217607 0.052188
O35   O     O_2   0.364186 0.288159 0.182111 -0.281212
O36   O     O_2   0.312302 0.170676 0.211115 -0.280112
O37   O     O_3   0.224517 0.261686 0.130442 -0.471726
H51   H     H_    0.234923 0.308957 0.103053 0.404296
S8    S     S_3+6 0.706955 0.751629 0.782194 0.052490
O38   O     O_2   0.687174 0.828868 0.789020 -0.279347
O39   O     O_2   0.635378 0.711259 0.817166 -0.283639
O40   O     O_3   0.774869 0.737737 0.869581 -0.471276
H52   H     H_    0.764418 0.690412 0.896750 0.404085
S9    S     S_3+6 0.282055 0.713545 0.766888 0.017583
O41   O     O_2   0.221526 0.747453 0.850055 -0.301522
O42   O     O_2   0.265201 0.637154 0.747015 -0.347846
O43   O     O_3   0.369462 0.720051 0.817383 -0.525368
H53   H     H_    0.361966 0.700658 0.890942 0.412120
S10   S     S_3+6 0.711451 0.292493 0.238509 0.033012
O44   O     O_2   0.731336 0.367959 0.260699 -0.312605
O45   O     O_2   0.768685 0.259360 0.149956 -0.309170
O46   O     O_3   0.621718 0.290258 0.194379 -0.491204
H54   H     H_    0.623203 0.250303 0.138897 0.379746
S11   S     S_3+6 0.794093 0.749676 0.217684 0.052441
O47   O     O_2   0.865792 0.790153 0.183677 -0.286534
O48   O     O_2   0.813797 0.672425 0.209942 -0.278597
O49   O     O_3   0.726484 0.764127 0.130063 -0.470112
H55   H     H_    0.737698 0.811227 0.102444 0.404263
S12   S     S_3+6 0.207644 0.252206 0.782516 0.052487
O50   O     O_2   0.188027 0.329473 0.789029 -0.278118
O51   O     O_2   0.136053 0.212028 0.818087 -0.286063
O52   O     O_3   0.275778 0.238398 0.869607 -0.470291
H56   H     H_    0.265424 0.191081 0.896862 0.403539
C77   C     C_3   0.635893 0.104356 0.961597 -0.586945
H57   H     H_    0.635375 0.138417 0.891880 0.233334
H58   H     H_    0.606444 0.136804 0.031595 0.231105
H59   H     H_    0.697687 0.092139 0.972644 0.302247
C78   C     C_3   0.364503 0.895079 0.038347 -0.565856
H60   H     H_    0.365730 0.860791 0.107731 0.229165
H61   H     H_    0.302529 0.907307 0.028392 0.300328
H62   H     H_    0.393438 0.862812 0.967662 0.254924
C79   C     C_3   0.135593 0.604653 0.961613 -0.566817
H63   H     H_    0.134451 0.638894 0.892157 0.229099
H64   H     H_    0.106596 0.636968 0.032200 0.254827
H65   H     H_    0.197551 0.592437 0.971684 0.300826
C80   C     C_3   0.863353 0.396105 0.038854 -0.552033
H66   H     H_    0.863568 0.362140 0.108726 0.225532
H67   H     H_    0.801632 0.408800 0.028039 0.307619
H68   H     H_    0.892386 0.363262 0.968893 0.252592

loop_
_geom_bond_atom_site_label_1
_geom_bond_atom_site_label_2
_geom_bond_distance
_ccdc_geom_bond_type
C6    C28   1.438854 S    
O52   H56   0.990754 S    
S4    O28   1.663008 S    
S10   O44   1.497698 D    
C7    C25   1.450257 S    
O2    C2    1.305858 A    
C29   S9    1.773601 S    
C34   S6    1.773581 S    
O13   Zn4   2.001541 S    
C49   C57   1.401281 A    
C33   C54   1.422456 A    
C16   C63   1.420647 A    
C14   C61   1.419822 A    
O14   Zn3   2.001542 S    
S4    O26   1.497124 D    
C76   H48   1.107618 S    
C51   C59   1.399972 A    
C72   H34   1.111389 S    
S9    O41   1.502730 D    
C45   C53   1.402277 A    
S3    O23   1.504254 D    
S7    O36   1.501498 D    
S5    O29   1.502699 D    
C15   C64   1.419873 A    
C37   H2    1.077744 S    
C80   H68   1.109086 S    
C70   H29   1.108714 S    
C13   C77   1.507293 S    
C61   C62   1.405644 A    
C67   H15   1.110301 S    
C11   N4    1.362739 A    
C19   N4    1.403047 A    
C73   H38   1.100094 S    
O7    C7    1.308087 A    
S9    O42   1.498158 D    
C50   C58   1.402266 A    
S6    O32   1.498122 D    
C24   C39   1.388514 A    
C46   C54   1.402073 A    
C42   H5    1.077737 S    
C65   H9    1.110392 S    
C25   C42   1.385565 A    
C78   H62   1.109109 S    
Zn3   N3    2.056776 S    
C29   C58   1.422333 A    
C31   C60   1.423224 A    
C26   C49   1.399502 A    
C32   C40   1.381268 A    
S10   O46   1.684186 S    
C72   H35   1.108732 S    
S2    O20   1.497025 D    
C33   C41   1.378089 A    
C10   C14   1.403458 A    
C75   H43   1.111364 S    
C17   S2    1.815438 S    
C63   C64   1.405881 A    
S12   O50   1.501477 D    
C54   C57   1.433802 A    
C35   C43   1.381330 A    
C43   H8    1.079964 S    
C47   C72   1.517216 S    
C22   C45   1.399176 A    
C53   C58   1.435127 A    
C56   C59   1.436790 A    
O3    C3    1.307630 A    
O49   H55   0.991085 S    
C32   S12   1.778907 S    
C74   H41   1.108784 S    
C32   C59   1.422879 A    
C55   C60   1.437084 A    
O4    Zn1   2.022108 S    
S8    O40   1.684222 S    
S11   O49   1.684303 S    
C45   C70   1.511082 S    
O15   C7    1.310096 A    
S5    O30   1.498186 D    
C36   C55   1.422783 A    
C41   H6    1.077999 S    
C13   C62   1.420067 A    
C12   N3    1.362354 A    
C20   N3    1.402698 A    
O12   C4    1.310101 A    
C50   C73   1.511108 S    
C20   C64   1.441751 A    
C22   C37   1.385584 A    
C76   H47   1.108752 S    
C40   H3    1.079971 S    
S8    O39   1.503483 D    
C76   H46   1.111394 S    
S7    O37   1.684225 S    
C5    C27   1.438638 S    
C77   H58   1.108248 S    
Zn4   N4    2.056776 S    
C70   H30   1.100068 S    
C26   C41   1.386006 A    
O13   C5    1.306412 A    
C30   C38   1.377472 A    
C66   H12   1.110429 S    
O37   H51   0.990705 S    
C12   C16   1.403471 A    
C65   H10   1.095935 S    
C68   H20   1.095947 S    
C27   C44   1.388573 A    
C18   S1    1.815129 S    
C23   C48   1.396915 A    
S9    O43   1.683075 S    
C34   C42   1.377308 A    
C11   C15   1.403226 A    
C80   H66   1.101009 S    
O34   H50   0.990692 S    
C49   C74   1.511167 S    
C52   C75   1.517076 S    
S3    O25   1.662983 S    
S1    O18   1.497474 D    
O43   H53   0.990676 S    
S2    O22   1.662991 S    
Zn2   N2    2.056776 S    
O3    Zn2   2.022107 S    
O40   H52   0.990779 S    
C1    C23   1.438728 S    
Zn1   N1    2.056776 S    
C14   C78   1.507525 S    
C2    C24   1.438563 S    
C69   H27   1.108688 S    
C46   C69   1.510870 S    
C67   H16   1.095671 S    
C34   C53   1.422356 A    
C4    C22   1.450300 S    
S7    O35   1.503488 D    
C79   H63   1.101394 S    
C12   C67   1.503179 S    
O11   C3    1.310443 A    
C18   C62   1.442020 A    
O1    Zn1   1.951108 S    
C78   H60   1.101355 S    
C17   C61   1.441816 A    
C48   C71   1.517193 S    
C67   H17   1.104238 S    
C74   H42   1.099583 S    
C15   C79   1.507606 S    
C35   S7    1.778937 S    
O22   H22   0.990887 S    
C21   C46   1.400111 A    
O9    Zn2   2.001541 S    
C35   C56   1.422853 A    
C23   C40   1.388711 A    
O9    C1    1.306446 A    
O31   H49   0.990642 S    
O46   H54   0.990232 S    
S5    O31   1.683066 S    
C18   N1    1.402590 A    
C69   H25   1.111741 S    
C17   N2    1.402760 A    
C73   H39   1.108725 S    
C47   C55   1.399953 A    
C28   C51   1.396974 A    
O28   H24   0.990908 S    
C38   H1    1.078295 S    
C65   H11   1.104180 S    
C72   H36   1.107635 S    
S1    O17   1.504254 D    
C36   S8    1.778909 S    
C77   H59   1.108820 S    
C33   S5    1.773412 S    
C20   S3    1.815543 S    
C77   H57   1.100981 S    
C39   H4    1.079859 S    
S10   O45   1.503328 D    
C19   S4    1.815535 S    
C51   C76   1.517209 S    
O12   Zn2   2.011655 S    
C25   C50   1.399164 A    
O8    Zn3   2.022108 S    
C28   C43   1.388754 A    
S4    O27   1.504254 D    
C16   C80   1.507664 S    
C21   C38   1.386083 A    
C29   C37   1.377347 A    
C75   H44   1.107584 S    
S1    O19   1.663073 S    
O15   Zn3   2.011654 S    
C79   H65   1.108984 S    
C71   H33   1.108735 S    
C75   H45   1.108668 S    
C10   N1    1.362817 A    
C70   H28   1.111741 S    
O1    C1    1.305881 A    
C66   H13   1.104177 S    
S12   O52   1.684220 S    
O2    Zn2   1.951110 S    
C8    C26   1.450867 S    
O14   C6    1.306516 A    
C71   H32   1.107639 S    
C19   C63   1.442219 A    
C79   H64   1.109117 S    
C52   C60   1.400285 A    
C31   S11   1.779005 S    
C71   H31   1.111323 S    
O11   Zn1   2.011654 S    
C48   C56   1.399958 A    
O10   Zn1   2.001542 S    
C9    C66   1.503515 S    
C36   C44   1.381061 A    
C9    N2    1.362894 A    
S6    O33   1.502728 D    
O10   C2    1.306367 A    
O25   H23   0.990888 S    
O16   Zn4   2.011655 S    
C68   H19   1.104127 S    
C78   H61   1.108991 S    
O19   H21   0.990885 S    
C80   H67   1.108874 S    
C30   S10   1.772721 S    
S2    O21   1.504253 D    
C27   C52   1.397021 A    
O7    Zn4   2.022107 S    
S3    O24   1.497022 D    
C10   C65   1.503385 S    
S11   O47   1.503500 D    
O4    C4    1.308100 A    
C31   C39   1.381206 A    
O8    C8    1.307926 A    
C11   C68   1.503415 S    
O16   C8    1.310693 A    
O6    Zn4   1.951110 S    
O5    C5    1.305836 A    
C68   H18   1.110403 S    
C30   C57   1.421390 A    
C69   H26   1.099872 S    
C24   C47   1.396628 A    
C66   H14   1.095891 S    
C44   H7    1.079952 S    
S11   O48   1.501246 D    
C74   H40   1.111666 S    
C73   H37   1.111738 S    
S12   O51   1.503477 D    
S8    O38   1.501471 D    
C3    C21   1.450148 S    
C9    C13   1.403332 A    
O5    Zn3   1.951108 S    
S6    O34   1.683081 S    
O6    C6    1.305855 A    
