data_mof_unit_38320.cif
_audit_creation_date              2013-03-05T16:33:33-0500
_audit_creation_method            fapswitch 2.2
_symmetry_space_group_name_H-M    P1
_symmetry_Int_Tables_number       1
_space_group_crystal_system       triclinic
_cell_length_a                    11.071197
_cell_length_b                    10.950973
_cell_length_c                    9.637881
_cell_angle_alpha                 88.565279
_cell_angle_beta                  93.998891
_cell_angle_gamma                 96.334554
_cell_volume                      1158.36145285

loop_
_atom_site_label
_atom_site_type_symbol
_atom_site_description
_atom_site_fract_x
_atom_site_fract_y
_atom_site_fract_z
_atom_type_partial_charge
O1    O     O_R   0.500000 0.319640 0.618810 -0.541148
O2    O     O_R   0.500010 0.319680 0.381230 -0.568904
C1    C     C_R   0.506056 0.263085 0.500576 0.792078
O3    O     O_R   0.319650 0.499970 0.618810 -0.546942
O4    O     O_R   0.319660 0.500010 0.381230 -0.595525
C2    C     C_R   0.262875 0.500085 0.496102 0.772133
Cu1   Cu    Cu3+1 0.499990 0.499980 0.640670 1.099562
Cu2   Cu    Cu3+1 0.500010 0.500020 0.359330 1.023962
O5    O     O_R   0.499990 0.680320 0.618770 -0.537779
O6    O     O_R   0.500000 0.680360 0.381190 -0.558110
O7    O     O_R   0.680340 0.499990 0.618770 -0.496695
O8    O     O_R   0.680350 0.500030 0.381190 -0.574608
C3    C     C_R   0.492776 0.736444 0.498418 0.875849
C4    C     C_R   0.738919 0.501759 0.504518 0.867162
C5    C     C_R   0.082134 0.545765 0.610268 0.017423
C6    C     C_R   0.131733 0.510017 0.491291 -0.108401
C7    C     C_R   0.052657 0.480240 0.375092 -0.243923
H1    H     H_    0.087541 0.452819 0.279794 0.164404
C8    C     C_R   0.926325 0.477563 0.384326 -0.185725
H2    H     H_    0.868520 0.449072 0.293022 0.181895
C9    C     C_R   0.874936 0.505544 0.509589 -0.127708
C10   C     C_R   0.958365 0.550360 0.622022 0.113439
C11   C     C_3   0.979782 0.519031 0.778344 0.262713
C12   C     C_3   0.110405 0.504474 0.754456 0.091348
H3    H     H_    0.927106 0.431981 0.811657 0.083323
H4    H     H_    0.129063 0.408239 0.757706 0.008137
C13   C     C_R   0.511093 0.060905 0.621000 -0.049822
C14   C     C_R   0.517301 0.130224 0.498302 -0.205066
C15   C     C_R   0.517412 0.065744 0.371791 0.342493
C16   C     C_R   0.490343 0.937248 0.372548 -0.215807
H5    H     H_    0.469334 0.889539 0.276654 0.240027
C17   C     C_R   0.486740 0.869385 0.496769 -0.204604
C18   C     C_R   0.491981 0.933406 0.620150 0.088137
C19   C     C_3   0.400050 0.935081 0.729252 0.316603
C20   C     C_3   0.430340 0.072233 0.734107 -0.455408
H6    H     H_    0.429652 0.889510 0.828110 0.200274
H7    H     H_    0.352401 0.123444 0.699440 0.232669
H8    H     H_    0.483491 0.103398 0.831068 0.249187
C21   C     C_R   0.538544 0.604387 0.074355 0.123070
N1    N     N_R   0.500790 0.500930 0.147930 -0.229634
C22   C     C_R   0.449804 0.402218 0.074582 -0.047362
H9    H     H_    0.413711 0.322665 0.131585 0.173157
C23   C     C_R   0.445213 0.401861 0.926114 0.624763
N2    N     N_R   0.500790 0.500890 0.852020 -0.213873
C24   C     C_R   0.532075 0.607945 0.926476 0.145303
C25   C     C_3   0.652282 0.688410 0.927080 0.534092
C26   C     C_3   0.664207 0.669230 0.085972 -0.024564
H10   H     H_    0.730644 0.605379 0.124328 0.114036
O9    O     O_3   0.391387 0.297757 0.857867 -0.584000
C27   C     C_3   0.269117 0.263537 0.894062 -0.014159
H11   H     H_    0.213777 0.242258 0.795562 0.163404
H12   H     H_    0.228294 0.336350 0.946706 0.162451
C28   C     C_3   0.252557 0.146660 0.984599 -0.765121
H13   H     H_    0.281066 0.164624 0.095080 0.238211
H14   H     H_    0.154189 0.112163 0.980855 0.201120
H15   H     H_    0.301304 0.072471 0.947700 0.293281
N3    N     N_R   0.737200 0.628054 0.853057 0.097908
O10   O     O_R   0.779329 0.680107 0.740892 -0.358287
O11   O     O_R   0.745172 0.511489 0.877660 -0.448531
O12   O     O_3   0.640106 0.811451 0.877873 -0.580973
C29   C     C_3   0.753451 0.888455 0.889641 0.186694
H16   H     H_    0.805703 0.882094 0.796764 0.188513
H17   H     H_    0.812286 0.865318 0.982484 0.151698
C30   C     C_3   0.733403 0.023713 0.895938 -0.727776
H18   H     H_    0.660710 0.038157 0.964673 0.325205
H19   H     H_    0.819030 0.077895 0.935620 0.199243
H20   H     H_    0.709119 0.059467 0.790433 0.218096
N4    N     N_R   0.674519 0.779587 0.169347 0.141201
O13   O     O_R   0.615049 0.871513 0.131001 -0.342460
O14   O     O_R   0.752062 0.790330 0.277283 -0.367951
O15   O     O_3   0.975712 0.621986 0.864117 -0.491880
C31   C     C_3   0.991714 0.590464 0.007702 0.169878
H21   H     H_    0.047602 0.513203 0.029570 0.132770
H22   H     H_    0.903816 0.560111 0.050884 0.148626
C32   C     C_3   0.048457 0.703798 0.086762 -0.702257
H23   H     H_    0.985976 0.776490 0.077236 0.223520
H24   H     H_    0.065374 0.680882 0.198599 0.204644
H25   H     H_    0.136130 0.740276 0.044213 0.288673
N5    N     N_R   0.203010 0.588215 0.831495 0.181463
O16   O     O_R   0.245541 0.557913 0.955048 -0.465893
O17   O     O_R   0.259231 0.681596 0.769131 -0.304087
N6    N     N_R   0.548048 0.127255 0.243618 0.143844
O18   O     O_R   0.647451 0.202558 0.240739 -0.351447
O19   O     O_R   0.494365 0.087654 0.126535 -0.409089
O20   O     O_3   0.273068 0.902373 0.694858 -0.523968
C33   C     C_3   0.231664 0.919833 0.554308 0.104793
H26   H     H_    0.250010 0.840702 0.492190 0.150918
H27   H     H_    0.272780 0.007255 0.508127 0.116798
C34   C     C_3   0.094358 0.922986 0.546640 -0.718231
H28   H     H_    0.071400 0.000977 0.607729 0.230323
H29   H     H_    0.059725 0.934594 0.436662 0.206943
H30   H     H_    0.049319 0.835716 0.589367 0.280260

loop_
_geom_bond_atom_site_label_1
_geom_bond_atom_site_label_2
_geom_bond_distance
_ccdc_geom_bond_type
N1    C22   1.354573 A    
C22   H9    1.072523 S    
C3    C17   1.464349 S    
C8    H2    1.082784 S    
C23   N2    1.392791 A    
Cu1   Cu2   2.711526 S    
C24   C25   1.512622 S    
C13   C18   1.389047 A    
Cu1   O7    2.022388 S    
C4    C9    1.499268 S    
C14   C15   1.424367 A    
C20   H7    1.108099 S    
C12   H4    1.095340 S    
C31   C32   1.524516 S    
O20   C33   1.414710 S    
C16   H5    1.071737 S    
O7    C4    1.315016 A    
C33   H27   1.110228 S    
N3    O11   1.303934 A    
C5    C6    1.388311 A    
C19   C20   1.503557 S    
C29   H17   1.110376 S    
O5    C3    1.300692 A    
N4    O13   1.295055 A    
C5    C10   1.389294 A    
C6    C7    1.394816 A    
C27   H12   1.108725 S    
C11   C12   1.506293 S    
C34   H29   1.110855 S    
C21   C24   1.421812 A    
C9    C10   1.433608 A    
C22   C23   1.428365 A    
O3    Cu1   1.992988 S    
C7    H1    1.082490 S    
C28   H14   1.111068 S    
C27   C28   1.532261 S    
C30   H20   1.106668 S    
C11   O15   1.421148 S    
C20   H8    1.109503 S    
O3    C2    1.300062 A    
C21   N1    1.362987 A    
N5    O17   1.294368 A    
C33   H26   1.110139 S    
C23   O9    1.385787 S    
C13   C20   1.473168 S    
C28   H13   1.105458 S    
C33   C34   1.520936 S    
O12   C29   1.431806 S    
O1    C1    1.319749 A    
C19   O20   1.429821 S    
C30   H19   1.110718 S    
C29   C30   1.525077 S    
C32   H23   1.108888 S    
C15   C16   1.405942 A    
C12   N5    1.471002 S    
C26   H10   1.108701 S    
Cu2   O8    1.992988 S    
C27   H11   1.108761 S    
Cu1   N2    2.036637 S    
C34   H30   1.111454 S    
C32   H24   1.108392 S    
C31   H22   1.099484 S    
C5    C12   1.474002 S    
O8    C4    1.313224 A    
N6    O18   1.301831 A    
N6    O19   1.299519 A    
C25   N3    1.443599 S    
C26   N4    1.457615 S    
N2    C24   1.388232 A    
C21   C26   1.488809 S    
C28   H15   1.102628 S    
Cu1   O5    1.980885 S    
C25   C26   1.538987 S    
C1    C14   1.474725 S    
C25   O12   1.434503 S    
O1    Cu1   1.991356 S    
Cu2   O6    1.991356 S    
O2    Cu2   1.980883 S    
C31   H21   1.109752 S    
O6    C3    1.310846 A    
O4    Cu2   2.022388 S    
C30   H18   1.104205 S    
O2    C1    1.293982 A    
C15   N6    1.435669 S    
C17   C18   1.389990 A    
C16   C17   1.393845 A    
N3    O10   1.300732 A    
O4    C2    1.310805 A    
C7    C8    1.404695 A    
C18   C19   1.515343 S    
C19   H6    1.110395 S    
C11   H3    1.113575 S    
C29   H16   1.106812 S    
C32   H25   1.109803 S    
C2    C6    1.465333 S    
N5    O16   1.298586 A    
O15   C31   1.421616 S    
N4    O14   1.300889 A    
O9    C27   1.428964 S    
C13   C14   1.390783 A    
C10   C11   1.544684 S    
Cu2   N1    2.037838 S    
C34   H28   1.111156 S    
C8    C9    1.424045 A    
