data_mof_unit_27936.cif
_audit_creation_date              2012-12-11T14:52:48-0500
_audit_creation_method            fapswitch 2.2
_symmetry_space_group_name_H-M    P1
_symmetry_Int_Tables_number       1
_space_group_crystal_system       triclinic
_cell_length_a                    20.480996
_cell_length_b                    7.258433
_cell_length_c                    20.449447
_cell_angle_alpha                 89.998062
_cell_angle_beta                  101.3751
_cell_angle_gamma                 90.001215
_cell_volume                      2980.29846356

loop_
_atom_site_label
_atom_site_type_symbol
_atom_type_description
_atom_site_fract_x
_atom_site_fract_y
_atom_site_fract_z
_atom_type_partial_charge
O1    O     O_R   0.673670 0.377510 0.185950 -0.530789
O2    O     O_R   0.326330 0.622490 0.814050 -0.530790
O3    O     O_R   0.826330 0.877510 0.314050 -0.530787
O4    O     O_R   0.173670 0.122490 0.685950 -0.530787
O5    O     O_R   0.806260 0.705340 0.185590 -0.538540
O6    O     O_R   0.193740 0.294660 0.814410 -0.538540
O7    O     O_R   0.693740 0.205340 0.314410 -0.538546
O8    O     O_R   0.306260 0.794660 0.685590 -0.538546
C1    C     C_R   0.825529 0.538549 0.170676 0.722697
C2    C     C_R   0.174471 0.461451 0.829324 0.722698
C3    C     C_R   0.674471 0.038542 0.329324 0.722694
C4    C     C_R   0.325529 0.961458 0.670676 0.722694
O9    O     O_R   0.672940 0.707120 0.178050 -0.542164
O10   O     O_R   0.327060 0.292880 0.821950 -0.542164
O11   O     O_R   0.827060 0.207120 0.321950 -0.542179
O12   O     O_R   0.172940 0.792880 0.678050 -0.542179
O13   O     O_R   0.692060 0.879040 0.306460 -0.531846
O14   O     O_R   0.307940 0.120960 0.693540 -0.531847
O15   O     O_R   0.807940 0.379040 0.193540 -0.531848
O16   O     O_R   0.192060 0.620960 0.806460 -0.531848
C5    C     C_R   0.649704 0.538347 0.160470 0.690649
C6    C     C_R   0.350296 0.461653 0.839530 0.690649
C7    C     C_R   0.850293 0.038345 0.339533 0.690664
C8    C     C_R   0.149707 0.961655 0.660467 0.690665
O17   O     O_3   0.756430 0.544390 0.292140 -0.375502
O18   O     O_3   0.243570 0.455610 0.707860 -0.375502
O19   O     O_3   0.743570 0.044390 0.207860 -0.375503
O20   O     O_3   0.256430 0.955610 0.792140 -0.375503
V1    V     V_3+5 0.748810 0.818610 0.242180 1.408984
V2    V     V_3+5 0.251190 0.181390 0.757820 1.408984
V3    V     V_3+5 0.751190 0.318610 0.257820 1.408938
V4    V     V_3+5 0.248810 0.681390 0.742180 1.408938
C9    C     C_R   0.089054 0.973392 0.607222 -0.065080
C10   C     C_R   0.910946 0.026608 0.392778 -0.065080
C11   C     C_R   0.410948 0.473374 0.892777 -0.065036
C12   C     C_R   0.589052 0.526626 0.107223 -0.065036
C13   C     C_R   0.028515 0.949419 0.421091 -0.185478
C14   C     C_R   0.971485 0.050581 0.578909 -0.185478
C15   C     C_R   0.471454 0.449757 0.078920 -0.185447
C16   C     C_R   0.528546 0.550243 0.921080 -0.185447
C17   C     C_R   0.970106 0.973776 0.373988 -0.211073
C18   C     C_R   0.029894 0.026225 0.626012 -0.211073
C19   C     C_R   0.529868 0.474056 0.126023 -0.211067
C20   C     C_R   0.470132 0.525944 0.873977 -0.211067
C21   C     C_R   0.910034 0.055902 0.461294 0.091586
C22   C     C_R   0.089966 0.944098 0.538706 0.091586
C23   C     C_R   0.589984 0.555710 0.038699 0.091557
C24   C     C_R   0.410016 0.444289 0.961300 0.091557
C25   C     C_R   0.969968 0.027017 0.510157 0.101702
C26   C     C_R   0.030032 0.972983 0.489843 0.101702
C27   C     C_R   0.530044 0.526882 0.989838 0.101692
C28   C     C_R   0.469956 0.473117 0.010162 0.101692
H1    H     H_    0.072201 0.911334 0.402138 0.134856
H2    H     H_    0.927799 0.088666 0.597862 0.134856
H3    H     H_    0.427749 0.411882 0.097878 0.134854
H4    H     H_    0.572251 0.588118 0.902122 0.134854
C29   C     C_3   0.562416 0.983778 0.535216 -0.138222
C30   C     C_3   0.437584 0.016222 0.464784 -0.138222
C31   C     C_3   0.937928 0.471571 0.965458 -0.137943
C32   C     C_3   0.062072 0.528429 0.034542 -0.137943
C33   C     C_3   0.506821 0.836907 0.531617 -0.137239
C34   C     C_3   0.493179 0.163093 0.468383 -0.137239
C35   C     C_3   0.996279 0.332361 0.971726 -0.137752
C36   C     C_3   0.003721 0.667639 0.028274 -0.137752
H5    H     H_    0.512174 0.702152 0.557823 0.107122
H6    H     H_    0.487826 0.297848 0.442177 0.107122
H7    H     H_    0.993474 0.193875 0.948282 0.107584
H8    H     H_    0.006526 0.806125 0.051718 0.107584
H9    H     H_    0.614149 0.970522 0.564002 0.107372
H10   H     H_    0.385851 0.029478 0.435998 0.107372
H11   H     H_    0.886477 0.448260 0.937224 0.107442
H12   H     H_    0.113523 0.551740 0.062776 0.107442
H13   H     H_    0.477830 0.750634 0.417670 0.106417
H14   H     H_    0.522170 0.249366 0.582330 0.106417
H15   H     H_    0.027202 0.264724 0.087209 0.106625
H16   H     H_    0.972798 0.735276 0.912791 0.106625
C37   C     C_1   0.371062 0.970430 0.624662 -0.181182
C38   C     C_1   0.628938 0.029570 0.375338 -0.181182
C39   C     C_1   0.128938 0.470400 0.875339 -0.181171
C40   C     C_1   0.871062 0.529600 0.124661 -0.181172
C41   C     C_3   0.512295 0.136577 0.545018 -0.137221
C42   C     C_3   0.487705 0.863422 0.454982 -0.137221
C43   C     C_3   0.984950 0.628864 0.952316 -0.137993
C44   C     C_3   0.015050 0.371136 0.047684 -0.137993
C45   C     C_3   0.457330 0.989849 0.540802 0.168664
C46   C     C_3   0.542669 0.010151 0.459198 0.168664
C47   C     C_3   0.042670 0.489798 0.959200 0.169023
C48   C     C_3   0.957330 0.510202 0.040800 0.169023
C49   C     C_1   0.409712 0.978845 0.586675 -0.067278
C50   C     C_1   0.590288 0.021154 0.413325 -0.067278
C51   C     C_1   0.090288 0.478795 0.913327 -0.067359
C52   C     C_1   0.909712 0.521205 0.086673 -0.067359
C53   C     C_3   0.155018 0.888450 0.518550 -0.379703
C54   C     C_3   0.190691 0.055802 0.496993 -0.766505
H17   H     H_    0.159061 0.125981 0.453860 0.228181
H18   H     H_    0.203183 0.154981 0.538987 0.230186
H19   H     H_    0.237651 0.011181 0.482342 0.215426
H20   H     H_    0.189512 0.820226 0.560016 0.182811
H21   H     H_    0.146424 0.782572 0.478688 0.173084
C55   C     C_3   0.844982 0.111550 0.481450 -0.379702
C56   C     C_3   0.809309 0.944197 0.503007 -0.766507
H22   H     H_    0.796818 0.845018 0.461013 0.230187
H23   H     H_    0.840939 0.874019 0.546140 0.228181
H24   H     H_    0.762349 0.988818 0.517658 0.215426
H25   H     H_    0.853575 0.217428 0.521312 0.173084
H26   H     H_    0.810488 0.179773 0.439984 0.182811
C57   C     C_3   0.344940 0.388899 0.981461 -0.379558
C58   C     C_3   0.309316 0.556425 0.002952 -0.766628
H27   H     H_    0.340961 0.626633 0.046068 0.228174
H28   H     H_    0.296868 0.655520 0.960925 0.230206
H29   H     H_    0.262335 0.511995 0.017606 0.215480
H30   H     H_    0.310432 0.320654 0.940011 0.182711
H31   H     H_    0.353491 0.283117 0.021360 0.173086
C59   C     C_3   0.655060 0.611101 0.018539 -0.379558
C60   C     C_3   0.690684 0.443574 0.997048 -0.766629
H32   H     H_    0.703132 0.344480 0.039075 0.230206
H33   H     H_    0.659039 0.373366 0.953932 0.228174
H34   H     H_    0.737665 0.488005 0.982395 0.215480
H35   H     H_    0.646509 0.716882 0.978640 0.173086
H36   H     H_    0.689568 0.679346 0.059989 0.182711
H37   H     H_    0.028891 0.049164 0.678188 0.118120
H38   H     H_    0.971109 0.950836 0.321812 0.118120
H39   H     H_    0.471150 0.548718 0.821795 0.118054
H40   H     H_    0.528850 0.451282 0.178205 0.118054

loop_
_geom_bond_atom_site_label_1
_geom_bond_atom_site_label_2
_ccdc_geom_bond_type
O17   V3    S    
C23   C59   S    
C43   C47   S    
C30   C34   S    
C56   H22   S    
C47   C51   S    
O19   V1    S    
O13   V1    S    
C57   H30   S    
O3    C7    A    
O15   V3    S    
C59   C60   S    
C5    C12   S    
C38   C50   T    
O1    C5    A    
C6    C11   S    
C34   C46   S    
C37   C49   T    
C55   H25   S    
C53   C54   S    
C9    C18   A    
C36   H8    S    
O9    V1    S    
C31   C43   S    
C14   C18   A    
C33   C42   S    
C30   C42   S    
O4    C8    A    
H15   C44   S    
C24   C57   S    
C32   H12   S    
C60   H32   S    
O1    V3    S    
C29   C46   S    
C12   C23   A    
O2    V4    S    
O3    V1    S    
C31   C48   S    
C57   H31   S    
C1    O15   A    
C15   H3    S    
C48   C52   S    
C2    O16   A    
C16   H4    S    
O2    C6    A    
C57   C58   S    
O14   V2    S    
C58   H27   S    
C53   H21   S    
C16   C20   A    
C39   C51   T    
C59   H35   S    
C13   H1    S    
C7    C10   S    
O11   C7    A    
C15   C28   A    
O12   C8    A    
C9    C22   A    
C10   C17   A    
O10   V2    S    
C11   C24   A    
H16   C43   S    
C32   C47   S    
O5    V1    S    
C35   H7    S    
O7    V3    S    
C34   H6    S    
C27   C28   A    
O8    V4    S    
C46   C50   S    
C14   C25   A    
C45   C49   S    
O18   V4    S    
C30   H10   S    
C15   C19   A    
C54   H19   S    
C60   H33   S    
C42   C46   S    
O11   V3    S    
C1    C40   S    
C17   H38   S    
C40   C52   T    
O7    C3    A    
C36   C43   S    
O5    C1    A    
C3    C38   S    
C14   H2    S    
C21   C25   A    
O8    C4    A    
C60   H34   S    
C4    C37   S    
O9    C5    A    
C10   C21   A    
C59   H36   S    
C54   H18   S    
C11   C20   A    
C33   C45   S    
O6    V2    S    
C34   C41   S    
C56   H24   S    
C29   C41   S    
H14   C41   S    
C30   C45   S    
H13   C42   S    
O16   V4    S    
C3    O13   A    
C35   C47   S    
C55   H26   S    
C44   C48   S    
C21   C55   S    
O6    C2    A    
C23   C27   A    
C2    C39   S    
C29   C33   S    
O12   V4    S    
C16   C27   A    
C22   C26   A    
C20   H39   S    
C31   C35   S    
C8    C9    S    
C58   H29   S    
C35   C44   S    
C32   C36   S    
O10   C6    A    
O20   V2    S    
C13   C26   A    
C32   C44   S    
C22   C53   S    
C19   H40   S    
C55   C56   S    
C58   H28   S    
C13   C17   A    
C54   H17   S    
O4    V2    S    
C33   H5    S    
C24   C28   A    
C56   H23   S    
C25   C26   A    
C4    O14   A    
C12   C19   A    
C29   H9    S    
C53   H20   S    
C36   C48   S    
C41   C45   S    
C18   H37   S    
C31   H11   S    
