data_mof_unit_25861.cif
_audit_creation_date              2012-10-26T18:44:01-0400
_audit_creation_method            fapswitch 2.2
_symmetry_space_group_name_H-M    P1
_symmetry_Int_Tables_number       1
_space_group_crystal_system       triclinic
_cell_length_a                    15.130428
_cell_length_b                    9.250908
_cell_length_c                    7.774453
_cell_angle_alpha                 90.042283
_cell_angle_beta                  90.347864
_cell_angle_gamma                 90.281832
_cell_volume                      1088.15817993

loop_
_atom_site_label
_atom_site_type_symbol
_atom_type_description
_atom_site_fract_x
_atom_site_fract_y
_atom_site_fract_z
_atom_type_partial_charge
C1    C     C_R   0.500591 0.219740 0.500053 0.606303
C2    C     C_R   0.232405 0.496937 0.497015 -0.029055
C3    C     C_R   0.905742 0.367978 0.494578 -0.048784
C4    C     C_R   0.094039 0.630436 0.494624 -0.037245
C5    C     C_R   0.907165 0.631868 0.519386 -0.033675
C6    C     C_R   0.092662 0.366746 0.517645 -0.073366
C7    C     C_R   0.952962 0.499617 0.508119 -0.058713
C8    C     C_R   0.046881 0.499036 0.507944 -0.060373
C9    C     C_R   0.954194 0.239044 0.482245 0.315715
C10   C     C_R   0.045486 0.759464 0.482661 0.323244
C11   C     C_R   0.957175 0.760138 0.532445 0.319681
C12   C     C_R   0.499955 0.780254 0.500057 0.573645
C13   C     C_R   0.042664 0.238592 0.532149 0.289156
C14   C     C_1   0.500112 0.065027 0.500196 -0.009141
C15   C     C_1   0.499963 0.934957 0.500182 -0.033646
C16   C     C_3   0.915335 0.125705 0.234882 -0.053451
C17   C     C_3   0.083871 0.873938 0.236736 -0.059534
C18   C     C_3   0.918330 0.876733 0.776332 -0.038419
C19   C     C_3   0.088832 0.125994 0.775068 -0.070618
C20   C     C_2   0.763057 0.769187 0.505994 0.619844
C21   C     C_2   0.231097 0.223078 0.480369 0.445435
C22   C     C_2   0.760417 0.232196 0.501115 0.621227
C23   C     C_R   0.328729 0.498215 0.499334 0.602794
C24   C     C_2   0.239349 0.766195 0.504041 0.611186
C25   C     C_R   0.671204 0.500906 0.500577 0.570252
C26   C     C_R   0.813725 0.632451 0.513187 0.025454
C27   C     C_R   0.185708 0.364597 0.502570 -0.042258
C28   C     C_R   0.812382 0.368495 0.495673 0.025279
C29   C     C_R   0.187457 0.629607 0.495611 0.021064
C30   C     C_R   0.767511 0.500703 0.502488 -0.043729
Cu1   Cu    Cu3+1 0.500000 0.500000 0.669080 1.123009
Cu2   Cu    Cu3+1 0.500000 0.500000 0.330920 1.144358
H1    H     H_    0.982670 0.142911 0.181587 0.057645
H2    H     H_    0.024803 0.149980 0.838643 0.090316
H3    H     H_    0.138538 0.210347 0.809286 0.113518
H4    H     H_    0.113343 0.021928 0.826970 0.165420
H5    H     H_    0.676485 0.901166 0.622805 0.347095
H6    H     H_    0.012523 0.435203 0.117220 0.321159
H7    H     H_    0.675279 0.098572 0.378826 0.344470
H8    H     H_    0.322131 0.903240 0.383460 0.355011
H9    H     H_    0.870934 0.214147 0.191559 0.142465
H10   H     H_    0.888796 0.023340 0.180662 0.173410
H11   H     H_    0.016392 0.857357 0.182248 0.117343
H12   H     H_    0.127972 0.785460 0.193267 0.154279
H13   H     H_    0.110589 0.976489 0.184054 0.131331
H14   H     H_    0.984902 0.856931 0.833036 0.097242
H15   H     H_    0.871601 0.790885 0.818719 0.154038
H16   H     H_    0.893995 0.980935 0.827814 0.162208
N1    N     N_1   0.500000 0.500000 0.076820 -0.067775
N2    N     N_1   0.500000 0.500000 0.923180 -0.070246
O1    O     O_R   0.500000 0.288390 0.642760 -0.499187
O2    O     O_3   0.082105 0.884590 0.417905 -0.464585
O3    O     O_3   0.921704 0.886323 0.595206 -0.444658
O4    O     O_3   0.078531 0.112460 0.595062 -0.470945
O5    O     O_2   0.771436 0.850268 0.383031 -0.473046
O6    O     O_R   0.705961 0.804203 0.640100 -0.678102
O7    O     O_2   0.306233 0.211380 0.426780 -0.529744
O8    O     O_R   0.992051 0.525790 0.056190 -0.629763
O9    O     O_2   0.766854 0.152025 0.625434 -0.478882
O10   O     O_R   0.704900 0.196029 0.363293 -0.679612
O11   O     O_2   0.233411 0.844989 0.629744 -0.479360
O12   O     O_R   0.500000 0.711610 0.357240 -0.488331
O13   O     O_R   0.293731 0.804805 0.366803 -0.688570
O14   O     O_R   0.500000 0.711610 0.642760 -0.482712
O15   O     O_R   0.500000 0.288390 0.357240 -0.469415
O16   O     O_R   0.370260 0.500000 0.642800 -0.508119
O17   O     O_R   0.629740 0.500000 0.357200 -0.485418
O18   O     O_R   0.629740 0.500000 0.642800 -0.484120
O19   O     O_R   0.370260 0.500000 0.357200 -0.462473
O20   O     O_3   0.917478 0.114114 0.416014 -0.437528

loop_
_geom_bond_atom_site_label_1
_geom_bond_atom_site_label_2
_ccdc_geom_bond_type
Cu1   O16   S    
C1    O15   A    
C17   H11   S    
C21   O7    D    
C24   O11   D    
C3    C9    A    
C16   H1    S    
C18   H16   S    
C12   O12   A    
C23   O19   A    
Cu1   O14   S    
C4    C29   A    
C11   O3    S    
C12   C15   S    
C4    C8    A    
C20   O6    S    
C2    C27   A    
C10   O2    S    
C18   H15   S    
C2    C23   S    
C28   C30   A    
C21   C27   S    
C17   H12   S    
Cu2   O12   S    
C7    C8    A    
C19   H3    S    
C6    C13   A    
C19   O4    S    
C1    O1    A    
C6    C27   A    
Cu2   O19   S    
H8    O13   S    
C20   C26   S    
C2    C29   A    
C6    C8    A    
H7    O10   S    
C18   H14   S    
C17   O2    S    
C3    C28   A    
C17   H13   S    
C26   C30   A    
C24   O13   S    
C3    C7    A    
C19   H4    S    
Cu2   O17   S    
C5    C11   A    
C22   O10   S    
Cu1   O18   S    
C12   O14   A    
Cu2   N1    S    
C20   O5    D    
C10   C11   A    
Cu1   N2    S    
C4    C10   A    
C5    C26   A    
C16   H10   S    
C25   C30   S    
C16   O20   S    
C9    O20   S    
C23   O16   A    
C5    C7    A    
C13   O4    S    
C22   O9    D    
N1    N2    T    
C9    C13   A    
C24   C29   S    
C22   C28   S    
C1    C14   S    
C18   O3    S    
C14   C15   T    
H5    O6    S    
H6    O8    S    
C25   O18   A    
Cu1   Cu2   S    
Cu1   O1    S    
Cu2   O15   S    
C16   H9    S    
C19   H2    S    
C25   O17   A    
