data_mof_unit_53477.cif
_audit_creation_date              2012-12-11T19:38:35-0500
_audit_creation_method            fapswitch 2.2
_symmetry_space_group_name_H-M    P1
_symmetry_Int_Tables_number       1
_space_group_crystal_system       triclinic
_cell_length_a                    8.205681
_cell_length_b                    15.04145
_cell_length_c                    22.870045
_cell_angle_alpha                 98.393087
_cell_angle_beta                  89.411738
_cell_angle_gamma                 98.804033
_cell_volume                      2759.39846518

loop_
_atom_site_label
_atom_site_type_symbol
_atom_type_description
_atom_site_fract_x
_atom_site_fract_y
_atom_site_fract_z
_atom_type_partial_charge
Ba1   Ba    Ba6+2 0.856850 0.543240 0.473390 1.637655
Ba2   Ba    Ba6+2 0.332990 0.456830 0.526620 1.636959
C1    C     C_3   0.706720 0.878112 0.331465 -0.365648
C2    C     C_R   0.108933 0.574868 0.941521 -0.028327
C3    C     C_R   0.061467 0.569979 0.881410 0.596333
C4    C     C_3   0.137281 0.732034 0.316662 0.319859
C5    C     C_R   0.949301 0.412238 0.878141 0.571205
C6    C     C_R   0.994450 0.415245 0.937987 -0.016193
C7    C     C_R   0.074637 0.496967 0.969849 -0.052330
C8    C     C_R   0.189405 0.656081 0.974186 -0.074656
C9    C     C_R   0.234739 0.659729 0.033467 -0.073532
C10   C     C_R   0.200964 0.582337 0.062288 -0.018494
C11   C     C_R   0.120508 0.500710 0.030316 -0.052053
C12   C     C_3   0.671548 0.783454 0.349093 0.354911
C13   C     C_R   0.961338 0.337724 0.966657 -0.074002
C14   C     C_R   0.006823 0.341316 0.025785 -0.075729
C15   C     C_R   0.086596 0.422617 0.058442 -0.026582
C16   C     C_3   0.111625 0.754060 0.254960 -0.307951
C17   C     C_R   0.133813 0.427169 0.118386 0.591750
C18   C     C_R   0.245643 0.585063 0.122304 0.574152
C19   C     C_2   0.784482 0.440941 0.767424 -0.084853
C20   C     C_3   0.755676 0.412134 0.701961 -0.048377
C21   C     C_1   0.005456 0.517520 0.686032 0.033243
C22   C     C_2   0.052849 0.522039 0.742448 -0.103594
C23   C     C_3   0.475954 0.324296 0.345262 0.294338
C24   C     C_2   0.935165 0.484078 0.787421 0.194457
C25   C     C_R   0.415853 0.552132 0.233502 -0.097052
C26   C     C_R   0.458462 0.559114 0.293380 -0.016973
C27   C     C_R   0.188722 0.480816 0.313965 0.028320
C28   C     C_3   0.229385 0.736510 0.602781 0.314249
C29   C     C_R   0.142840 0.475589 0.253960 -0.099017
C30   C     C_R   0.255692 0.512385 0.212804 0.198233
C31   C     C_2   0.863236 0.470952 0.664628 -0.289168
C32   C     C_R   0.847353 0.169328 0.540637 -0.004157
C33   C     C_R   0.781178 0.075882 0.535655 -0.030698
C34   C     C_3   0.460449 0.299661 0.278457 -0.362049
C35   C     C_R   0.645876 0.888271 0.523303 -0.036090
C36   C     C_R   0.790631 0.923103 0.556915 -0.042580
C37   C     C_R   0.858864 0.014585 0.561831 -0.100397
C38   C     C_R   0.579960 0.794464 0.514750 0.043676
C39   C     C_R   0.433977 0.764046 0.482127 -0.305884
C40   C     C_3   0.252036 0.839351 0.620004 -0.386654
C41   C     C_R   0.614810 0.196147 0.484313 0.023868
C42   C     C_R   0.548936 0.103386 0.477370 -0.030998
C43   C     C_R   0.630988 0.043024 0.503843 0.012873
C44   C     C_R   0.402863 0.069469 0.444790 -0.048712
C45   C     C_3   0.055715 0.265602 0.683578 0.336169
C46   C     C_R   0.334942 0.978795 0.440071 -0.098986
C47   C     C_R   0.413632 0.917431 0.465680 -0.034798
C48   C     C_R   0.564134 0.949373 0.497308 0.006304
C49   C     C_R   0.346238 0.824881 0.460261 -0.002856
C50   C     C_R   0.758677 0.228497 0.517536 -0.299914
C51   C     C_3   0.966064 0.263643 0.398286 0.311717
C52   C     C_3   0.943317 0.160776 0.381105 -0.385315
C53   C     C_3   0.711606 0.657815 0.651092 0.298732
C54   C     C_3   0.722518 0.680521 0.718090 -0.360267
C55   C     C_3   0.077437 0.242398 0.745276 -0.307651
C56   C     C_3   0.507269 0.214161 0.654456 0.363281
C57   C     C_3   0.455765 0.121438 0.673769 -0.367699
C58   C     C_R   0.344261 0.525208 0.333145 -0.302521
H1    H     H_    0.738761 0.784772 0.391229 0.085005
H2    H     H_    0.830332 0.639455 0.634247 0.011408
H3    H     H_    0.611941 0.599274 0.639449 0.079566
H4    H     H_    0.841178 0.897535 0.325238 0.141335
H5    H     H_    0.827150 0.735857 0.731199 0.134870
H6    H     H_    0.741852 0.619826 0.737802 0.071286
H7    H     H_    0.606097 0.702708 0.735522 0.134351
H8    H     H_    0.536684 0.766841 0.355862 -0.057815
H9    H     H_    0.664695 0.928274 0.366666 0.071442
H10   H     H_    0.356019 0.341010 0.362648 0.019949
H11   H     H_    0.572955 0.384684 0.355537 0.060770
H12   H     H_    0.343304 0.860755 0.656823 0.128107
H13   H     H_    0.361853 0.240430 0.266830 0.138337
H14   H     H_    0.428726 0.357915 0.258618 0.070911
H15   H     H_    0.579161 0.282376 0.259880 0.131545
H16   H     H_    0.640246 0.879576 0.289646 0.126477
H17   H     H_    0.097586 0.690528 0.222925 0.119070
H18   H     H_    0.141560 0.328947 0.679180 0.094912
H19   H     H_    0.926651 0.276712 0.678319 -0.050479
H20   H     H_    0.095209 0.305792 0.777411 0.119658
H21   H     H_    0.967230 0.196194 0.757201 0.122398
H22   H     H_    0.644358 0.227124 0.654230 -0.067370
H23   H     H_    0.296830 0.873721 0.581960 0.061157
H24   H     H_    0.459316 0.211401 0.608846 0.078175
H25   H     H_    0.510300 0.069064 0.643802 0.068930
H26   H     H_    0.319616 0.102869 0.671911 0.148474
H27   H     H_    0.050109 0.669935 0.322146 0.102122
H28   H     H_    0.500090 0.122397 0.719603 0.123377
H29   H     H_    0.978828 0.279951 0.045902 0.125053
H30   H     H_    0.899982 0.273627 0.943387 0.124262
H31   H     H_    0.296409 0.723739 0.056744 0.123587
H32   H     H_    0.507656 0.577330 0.203160 0.117472
H33   H     H_    0.217840 0.717337 0.953978 0.124313
H34   H     H_    0.132516 0.860979 0.634239 0.120906
H35   H     H_    0.178021 0.551799 0.756032 0.130197
H36   H     H_    0.692356 0.415231 0.797677 0.119466
H37   H     H_    0.020323 0.442839 0.239500 0.127372
H38   H     H_    0.379587 0.529668 0.379053 0.083925
H39   H     H_    0.265796 0.718676 0.320875 -0.041594
H40   H     H_    0.837070 0.459371 0.617487 0.082546
H41   H     H_    0.854652 0.880613 0.579720 0.103413
H42   H     H_    0.972027 0.036559 0.587092 0.108033
H43   H     H_    0.220803 0.957933 0.415368 0.113843
H44   H     H_    0.336815 0.112205 0.422896 0.101076
H45   H     H_    0.847194 0.284639 0.412174 0.000454
H46   H     H_    0.382610 0.692637 0.476916 0.075077
H47   H     H_    0.808195 0.300127 0.521932 0.067303
H48   H     H_    0.997838 0.785043 0.252820 0.150267
H49   H     H_    0.218550 0.802325 0.242743 0.125356
H50   H     H_    0.349888 0.715644 0.590837 0.003569
H51   H     H_    0.143230 0.717424 0.564364 0.068402
H52   H     H_    0.187705 0.208679 0.747837 0.147688
H53   H     H_    0.056110 0.283080 0.435428 0.075586
H54   H     H_    0.846504 0.138940 0.346178 0.130892
H55   H     H_    0.906035 0.126379 0.419840 0.062273
H56   H     H_    0.061064 0.139565 0.364292 0.120932
N1    N     N_R   0.982934 0.489044 0.849854 -0.423135
N2    N     N_R   0.209989 0.508289 0.150443 -0.423557
O1    O     O_2   0.889550 0.449610 0.359390 -0.459849
O2    O     O_2   0.187498 0.175508 0.532911 -0.484028
O3    O     O_3   0.091387 0.193645 0.641708 -0.610891
O4    O     O_3   0.130110 0.450560 0.430470 -0.495034
O5    O     O_3   0.576420 0.610430 0.532020 -0.487992
O6    O     O_2   0.341600 0.276000 0.466340 -0.466446
O7    O     O_3   0.517981 0.249979 0.369141 -0.643830
O8    O     O_2   0.429414 0.456951 0.708352 -0.498578
O9    O     O_3   0.442443 0.281389 0.693337 -0.594164
O10   O     O_2   0.087926 0.638308 0.857607 -0.594323
O11   O     O_2   0.880629 0.340425 0.851147 -0.619239
O12   O     O_3   0.678547 0.734275 0.627808 -0.638695
O13   O     O_2   0.109511 0.358238 0.141640 -0.596303
O14   O     O_2   0.315870 0.656335 0.149483 -0.614598
O15   O     O_3   0.674110 0.616450 0.398780 -0.486425
O16   O     O_2   0.796551 0.555135 0.294560 -0.500430
O17   O     O_3   0.021163 0.304000 0.349001 -0.626578
O18   O     O_3   0.725854 0.720494 0.304395 -0.598323
O19   O     O_2   0.848090 0.724020 0.533700 -0.470379
O20   O     O_3   0.092920 0.663620 0.428750 -0.491808
O21   O     O_2   0.006873 0.824490 0.467270 -0.487064
O22   O     O_3   0.106129 0.805477 0.358329 -0.611587
O23   O     O_2   0.300150 0.550420 0.640640 -0.462887
O24   O     O_3   0.059600 0.549520 0.569540 -0.497393
O25   O     O_3   0.515600 0.383630 0.601220 -0.475199
O26   O     O_3   0.167508 0.696026 0.651307 -0.623891
O27   O     O_3   0.613290 0.389640 0.467990 -0.476779
O28   O     O_3   0.096790 0.336450 0.571260 -0.490123
P1    P     P_3+3 0.056000 0.422550 0.367550 0.992543
P2    P     P_3+3 0.670460 0.710570 0.550500 0.973930
P3    P     P_3+3 0.138122 0.780338 0.429263 0.932473
P4    P     P_3+3 0.133720 0.577520 0.632450 0.990877
P5    P     P_3+3 0.055268 0.218463 0.571067 0.936021
P6    P     P_3+3 0.664235 0.611016 0.321991 0.949540
P7    P     P_3+3 0.525064 0.276565 0.446249 0.939966
P8    P     P_3+3 0.535369 0.387595 0.677370 0.945005

loop_
_geom_bond_atom_site_label_1
_geom_bond_atom_site_label_2
_ccdc_geom_bond_type
Ba2   P4    S    
C53   C54   S    
O22   P3    S    
C5    N1    Am   
O19   P2    D    
Ba1   O27   S    
C51   O17   S    
C24   N1    S    
C45   H19   S    
C19   C24   D    
C18   N2    Am   
C5    C6    A    
C51   C52   S    
Ba2   O27   S    
C28   H50   S    
C53   H3    S    
C1    H9    S    
C22   C24   S    
C32   C33   A    
C35   C38   A    
C58   H38   S    
C56   H22   S    
C36   C37   A    
C41   C50   A    
C45   O3    S    
C55   H52   S    
O1    P1    D    
C13   C14   A    
C51   H45   S    
C53   H2    S    
C28   O26   S    
Ba1   Ba2   S    
Ba1   O1    S    
C7    C11   A    
C57   H28   S    
O26   P4    S    
Ba1   O24   S    
C51   H53   S    
Ba1   O4    S    
C17   N2    Am   
C42   C44   A    
C6    C7    A    
C21   C31   D    
C52   H56   S    
C21   C22   D    
C16   H49   S    
C23   H11   S    
O27   P7    S    
C26   C58   A    
C14   H29   S    
O6    P7    D    
Ba2   O25   S    
C55   H20   S    
O15   P6    S    
C18   O14   D    
Ba1   O15   S    
O9    P8    S    
O18   P6    S    
O7    P7    S    
O23   P4    D    
Ba2   O4    S    
O20   P3    S    
C17   O13   D    
C4    C16   S    
C44   C46   A    
C39   H46   S    
C38   P2    S    
O12   P2    S    
C50   H47   S    
C8    C9    A    
C22   H35   S    
C14   C15   A    
O25   P8    S    
C8    H33   S    
C47   C49   A    
C56   C57   S    
C1    H4    S    
C46   H43   S    
C44   H44   S    
O21   P3    D    
C4    H27   S    
O3    P5    S    
C3    N1    Am   
C33   C37   A    
C41   C42   A    
Ba1   O5    S    
C35   C36   A    
C34   H15   S    
C56   H24   S    
C45   C55   S    
C29   C30   A    
C27   C58   A    
C32   P5    S    
C53   O12   S    
O16   P6    D    
C52   H55   S    
C10   C18   A    
C40   H12   S    
C25   H32   S    
O4    P1    S    
C10   C11   A    
C1    H16   S    
C1    C12   S    
C34   H14   S    
O8    P8    D    
C38   C39   A    
C21   P4    S    
C26   P6    S    
C6    C13   A    
O17   P1    S    
Ba2   O24   S    
C55   H21   S    
Ba1   P1    S    
Ba2   O28   S    
C2    C8    A    
C33   C43   A    
Ba1   O19   S    
C42   C43   A    
C37   H42   S    
C20   P8    S    
C20   C31   S    
C46   C47   A    
O2    P5    D    
C25   C30   A    
C40   H34   S    
C40   H23   S    
C30   N2    S    
C2    C3    A    
C27   P1    S    
C9    C10   A    
C19   H36   S    
Ba2   O6    S    
C36   H41   S    
C54   H7    S    
C32   C50   A    
C11   C15   A    
C28   H51   S    
C31   H40   S    
C4    H39   S    
O24   P4    S    
C57   H26   S    
C27   C29   A    
C41   P7    S    
C13   H30   S    
C35   C48   A    
C12   H1    S    
C12   O18   S    
C43   C48   A    
C16   H17   S    
C54   H6    S    
C52   H54   S    
C3    O10   D    
C23   O7    S    
C15   C17   A    
C29   H37   S    
C4    O22   S    
C16   H48   S    
C5    O11   D    
C34   H13   S    
C23   C34   S    
O28   P5    S    
C9    H31   S    
C56   O9    S    
O5    P2    S    
C49   P3    S    
C47   C48   A    
C25   C26   A    
Ba2   O23   S    
C12   H8    S    
C28   C40   S    
Ba1   P2    S    
C23   H10   S    
C45   H18   S    
C2    C7    A    
C19   C20   S    
C57   H25   S    
C39   C49   A    
Ba2   O5    S    
Ba1   O20   S    
C54   H5    S    
