data_mof_unit_67552.cif
_audit_creation_date              2013-03-05T15:41:21-0500
_audit_creation_method            fapswitch 2.2
_symmetry_space_group_name_H-M    P1
_symmetry_Int_Tables_number       1
_space_group_crystal_system       triclinic
_cell_length_a                    10.788794
_cell_length_b                    8.865103
_cell_length_c                    7.593855
_cell_angle_alpha                 102.049503
_cell_angle_beta                  93.465738
_cell_angle_gamma                 90.826181
_cell_volume                      708.731598348

loop_
_atom_site_label
_atom_site_type_symbol
_atom_site_description
_atom_site_fract_x
_atom_site_fract_y
_atom_site_fract_z
_atom_type_partial_charge
O1    O     O_R   0.509190 0.286130 0.619780 -0.562913
O2    O     O_R   0.490810 0.713870 0.380220 -0.560846
O3    O     O_R   0.485310 0.256770 0.308360 -0.615081
O4    O     O_R   0.514690 0.743230 0.691640 -0.619242
C1    C     C_R   0.497407 0.202024 0.455171 0.830531
C2    C     C_R   0.507705 0.797801 0.543561 0.827325
O5    O     O_R   0.328790 0.514640 0.655680 -0.624471
O6    O     O_R   0.671210 0.485360 0.344320 -0.627441
O7    O     O_R   0.304910 0.485280 0.344260 -0.566633
O8    O     O_R   0.695090 0.514720 0.655740 -0.568102
C3    C     C_R   0.259992 0.508837 0.504818 0.769957
C4    C     C_R   0.739602 0.492456 0.496442 0.770319
Cu1   Cu    Cu3+1 0.514140 0.517380 0.684380 0.925073
Cu2   Cu    Cu3+1 0.485860 0.482620 0.315620 0.925099
N1    N     N_2   0.464560 0.456420 0.038510 -0.249303
N2    N     N_2   0.535440 0.543580 0.961490 -0.249216
C5    C     C_3   0.048992 0.382345 0.566689 -0.216488
C6    C     C_3   0.949290 0.618439 0.439838 -0.242382
C7    C     C_3   0.962408 0.367767 0.394796 0.147414
C8    C     C_3   0.034253 0.634789 0.613871 0.143056
H1    H     H_    0.093325 0.286892 0.618979 0.122524
H2    H     H_    0.905091 0.714699 0.389702 0.134081
C9    C     C_3   0.876707 0.488841 0.494260 -0.009135
C10   C     C_3   0.122224 0.514045 0.512667 -0.007013
C11   C     C_3   0.961082 0.503309 0.667926 -0.196211
C12   C     C_3   0.036569 0.497458 0.337942 -0.198439
H3    H     H_    0.930964 0.507944 0.805780 0.131478
H4    H     H_    0.066134 0.492638 0.199609 0.129387
H5    H     H_    0.400701 0.385864 0.951918 0.224924
H6    H     H_    0.599535 0.613809 0.048019 0.226678
C13   C     C_2   0.482212 0.037157 0.433855 -0.219752
C14   C     C_2   0.530719 0.961187 0.558392 -0.222995
C15   C     C_3   0.913263 0.224912 0.259890 -0.421794
C16   C     C_3   0.964231 0.072101 0.285730 -0.371667
C17   C     C_3   0.889406 0.940601 0.158671 -0.858005
H7    H     H_    0.794815 0.929837 0.205434 0.241166
H8    H     H_    0.879348 0.963519 0.020631 0.271815
H9    H     H_    0.935649 0.829329 0.151005 0.225735
H10   H     H_    0.062618 0.068738 0.252396 0.237090
H11   H     H_    0.959081 0.060009 0.426630 0.207293
H12   H     H_    0.810835 0.219922 0.263157 0.205038
H13   H     H_    0.942312 0.237925 0.127339 0.195928
C18   C     C_3   0.038553 0.787686 0.752233 -0.425214
C19   C     C_3   0.130278 0.904267 0.711873 -0.361850
C20   C     C_3   0.148018 0.047046 0.863882 -0.855981
H14   H     H_    0.058287 0.103735 0.890000 0.250262
H15   H     H_    0.186776 0.016351 0.989503 0.280022
H16   H     H_    0.213628 0.130150 0.824849 0.227226
H17   H     H_    0.221489 0.850420 0.685082 0.221981
H18   H     H_    0.089147 0.941281 0.592048 0.206694
H19   H     H_    0.944320 0.836491 0.749676 0.199370
H20   H     H_    0.056577 0.767494 0.888599 0.207454
C21   C     C_R   0.388493 0.963354 0.294685 0.161311
C22   C     C_R   0.271404 0.938480 0.349808 -0.219694
C23   C     C_R   0.197172 0.815001 0.254788 -0.168156
C24   C     C_R   0.235558 0.728077 0.094051 -0.064954
C25   C     C_R   0.341453 0.775268 0.022348 -0.105638
C26   C     C_R   0.421972 0.888157 0.125121 -0.116860
H21   H     H_    0.245196 0.009893 0.473427 0.120660
H22   H     H_    0.111704 0.786448 0.306546 0.142164
H23   H     H_    0.181851 0.627828 0.021728 0.108202
H24   H     H_    0.364618 0.718177 0.892527 0.208357
H25   H     H_    0.513595 0.905722 0.081202 0.121066
C27   C     C_R   0.624841 0.035059 0.696082 0.143819
C28   C     C_R   0.588481 0.108427 0.864768 -0.102854
C29   C     C_R   0.664631 0.224681 0.968696 -0.119544
C30   C     C_R   0.773637 0.270223 0.903398 -0.091061
C31   C     C_R   0.817769 0.181184 0.747889 -0.159508
C32   C     C_R   0.743174 0.062978 0.643349 -0.186401
H26   H     H_    0.496015 0.089464 0.905049 0.123647
H27   H     H_    0.635908 0.284582 0.095141 0.199804
H28   H     H_    0.825472 0.371133 0.977587 0.109747
H29   H     H_    0.907103 0.206533 0.705644 0.134902
H30   H     H_    0.772005 0.001593 0.515148 0.126243

loop_
_geom_bond_atom_site_label_1
_geom_bond_atom_site_label_2
_geom_bond_distance
_ccdc_geom_bond_type
C19   H17   1.111228 S    
C2    C14   1.445834 S    
C23   C24   1.390260 A    
C17   H7    1.109877 S    
C6    C12   1.551273 S    
C18   C19   1.510236 S    
C25   H24   1.056226 S    
C21   C22   1.383502 A    
O5    C3    1.318150 A    
C4    C9    1.481022 S    
C16   H11   1.101966 S    
C15   H13   1.100134 S    
C17   H8    1.108013 S    
C10   C12   1.549991 S    
C16   C17   1.533209 S    
C18   H20   1.093734 S    
C8    C11   1.537103 S    
N2    H6    1.029274 S    
C28   H26   1.081918 S    
C3    C10   1.492135 S    
C24   C25   1.390432 A    
C30   H28   1.080490 S    
O4    Cu1   1.991318 S    
C7    C12   1.539787 S    
C16   H10   1.105419 S    
C8    C10   1.552804 S    
C31   C32   1.388214 A    
C29   C30   1.390098 A    
C23   H22   1.071187 S    
O2    C2    1.307224 A    
N1    H5    1.029253 S    
C22   H21   1.072905 S    
C20   H15   1.105601 S    
C5    C10   1.538898 S    
C6    C9    1.521639 S    
C17   H9    1.104127 S    
C14   C27   1.455982 S    
O4    C2    1.312298 A    
C7    C15   1.519130 S    
C31   H29   1.069373 S    
C20   H14   1.106672 S    
C5    H1    1.109729 S    
C30   C31   1.390665 A    
C7    C9    1.533631 S    
O7    Cu2   1.977268 S    
C29   H27   1.062001 S    
Cu2   N1    2.066616 S    
O6    C4    1.322173 A    
C15   C16   1.515080 S    
C32   H30   1.077483 S    
C27   C32   1.394837 A    
C13   C21   1.459579 S    
O7    C3    1.316467 A    
O3    Cu2   1.991317 S    
O8    C4    1.306220 A    
O1    C1    1.312845 A    
O1    Cu1   2.004998 S    
C8    C18   1.530048 S    
C19   C20   1.525621 S    
C20   H16   1.110484 S    
C19   H18   1.101186 S    
C26   H25   1.081545 S    
C22   C23   1.391183 A    
O6    Cu2   1.997649 S    
C6    H2    1.107241 S    
C13   C14   1.355755 D    
O3    C1    1.305999 A    
O8    Cu1   1.977268 S    
C21   C26   1.391999 A    
C11   H3    1.107566 S    
C12   H4    1.108710 S    
C15   H12   1.107304 S    
C27   C28   1.392150 A    
C5    C11   1.553648 S    
C18   H19   1.111289 S    
C25   C26   1.390011 A    
C5    C7    1.540087 S    
C6    C8    1.541934 S    
C9    C11   1.537918 S    
O2    Cu2   2.005000 S    
O5    Cu1   1.997647 S    
C28   C29   1.384766 A    
Cu1   N2    2.066616 S    
C24   H23   1.081703 S    
Cu1   Cu2   2.750181 S    
N1    N2    1.322733 D    
C1    C13   1.442339 S    
