data_mof_unit_40257.cif
_audit_creation_date              2012-10-26T18:43:51-0400
_audit_creation_method            fapswitch 2.2
_symmetry_space_group_name_H-M    P1
_symmetry_Int_Tables_number       1
_space_group_crystal_system       triclinic
_cell_length_a                    9.583848
_cell_length_b                    10.77825
_cell_length_c                    17.31574
_cell_angle_alpha                 91.014741
_cell_angle_beta                  87.160879
_cell_angle_gamma                 90.664148
_cell_volume                      1786.08742058

loop_
_atom_site_label
_atom_site_type_symbol
_atom_type_description
_atom_site_fract_x
_atom_site_fract_y
_atom_site_fract_z
_atom_type_partial_charge
C1    C     C_R   0.500161 0.737464 0.502145 0.578380
C2    C     C_R   0.522966 0.481014 0.265164 0.035080
C3    C     C_R   0.414507 0.933969 0.457551 0.026529
C4    C     C_R   0.483222 0.502086 0.649840 0.577195
C5    C     C_R   0.497696 0.871129 0.507246 -0.046529
C6    C     C_R   0.561878 0.938514 0.566822 0.223355
C7    C     C_R   0.562787 0.069145 0.565893 0.247180
C8    C     C_R   0.495295 0.130058 0.506961 -0.027894
C9    C     C_R   0.412816 0.061455 0.457587 -0.065971
C10   C     C_3   0.403841 0.064668 0.371350 0.127291
C11   C     C_3   0.406371 0.922901 0.371746 0.121782
C12   C     C_R   0.351382 0.494372 0.777399 -0.101788
C13   C     C_R   0.931115 0.442616 0.441331 0.199488
C14   C     C_R   0.924622 0.564145 0.555132 0.342333
C15   C     C_R   0.072011 0.562882 0.554775 0.088996
C16   C     C_R   0.499137 0.262830 0.501009 0.606868
C17   C     C_R   0.078468 0.443908 0.440953 0.121070
C18   C     C_3   0.089561 0.311222 0.416071 -0.155403
C19   C     C_3   0.930971 0.307509 0.418543 0.391777
C20   C     C_R   0.516681 0.496210 0.349940 0.573367
C21   C     C_R   0.478366 0.508212 0.734321 0.039993
C22   C     C_R   0.602440 0.529327 0.772637 -0.058335
C23   C     C_R   0.412224 0.434583 0.143785 0.235859
C24   C     C_R   0.600255 0.533465 0.852720 -0.042972
C25   C     C_R   0.474595 0.514027 0.895502 0.054858
C26   C     C_R   0.349622 0.497846 0.857890 -0.076552
C27   C     C_R   0.400340 0.459264 0.224271 0.243498
C28   C     C_R   0.653625 0.484425 0.224856 -0.176613
C29   C     C_R   0.663322 0.469490 0.145048 -0.137187
C30   C     C_R   0.543265 0.446895 0.104350 0.065867
C31   C     C_2   0.472053 0.513488 0.979775 -0.066920
C32   C     C_2   0.554882 0.440835 0.019714 0.263552
Cl1   Cl    Cl    0.634475 0.861930 0.644221 -0.504969
Cl2   Cl    Cl    0.646837 0.155142 0.638457 -0.423734
Cl3   Cl    Cl    0.674289 0.334956 0.974784 -0.527287
Cu1   Cu    Cu3+1 0.359330 0.500020 0.500000 1.030351
Cu2   Cu    Cu3+1 0.640670 0.499980 0.500000 1.062346
H1    H     H_    0.701453 0.542854 0.740914 0.191703
H2    H     H_    0.254195 0.479444 0.749071 0.149061
H3    H     H_    0.395437 0.572363 0.010360 0.131279
H4    H     H_    0.696647 0.551263 0.881325 0.162277
H5    H     H_    0.607413 0.080949 0.352882 0.328700
H6    H     H_    0.281131 0.867196 0.294654 0.336945
H7    H     H_    0.768741 0.655391 0.596829 0.401020
H8    H     H_    0.200859 0.491387 0.227429 0.334278
H9    H     H_    0.773575 0.289323 0.353478 0.364996
H10   H     H_    0.888587 0.143395 0.457120 0.344519
H11   H     H_    0.231260 0.352440 0.137650 0.353097
H12   H     H_    0.764651 0.477355 0.114791 0.173893
H13   H     H_    0.304352 0.104556 0.353281 0.184441
H14   H     H_    0.499514 0.878346 0.342383 0.122861
H15   H     H_    0.125325 0.612792 0.599597 0.158834
H16   H     H_    0.138642 0.300474 0.356900 0.175196
H17   H     H_    0.135184 0.252286 0.460193 0.145076
H18   H     H_    0.748765 0.501111 0.254851 0.168181
H19   H     H_    0.251544 0.485283 0.890834 0.152050
N1    N     N_R   0.852130 0.499070 0.499500 -0.245049
N2    N     N_R   0.148040 0.499110 0.499500 -0.284756
O1    O     O_R   0.381190 0.680360 0.500000 -0.474316
O2    O     O_3   0.278795 0.869559 0.351998 -0.671332
O3    O     O_3   0.859105 0.630126 0.614444 -0.674983
O4    O     O_3   0.271240 0.463942 0.263319 -0.694775
O5    O     O_3   0.876625 0.284553 0.345786 -0.698699
O6    O     O_3   0.873991 0.229737 0.476440 -0.633665
O7    O     O_3   0.299252 0.396114 0.102472 -0.697302
O8    O     O_R   0.618770 0.680320 0.499990 -0.521539
O9    O     O_R   0.367430 0.500040 0.613600 -0.525191
O10   O     O_R   0.605020 0.500000 0.613590 -0.486102
O11   O     O_R   0.381230 0.319680 0.500010 -0.518310
O12   O     O_R   0.618810 0.319640 0.500000 -0.422722
O13   O     O_R   0.394980 0.500000 0.386410 -0.429819
O14   O     O_R   0.632570 0.499960 0.386400 -0.543197
O15   O     O_3   0.522231 0.118529 0.333155 -0.701511

loop_
_geom_bond_atom_site_label_1
_geom_bond_atom_site_label_2
_ccdc_geom_bond_type
C25   C31   S    
C4    O9    A    
C23   C30   A    
C20   O13   A    
Cu2   N1    S    
C6    C7    A    
C3    C9    A    
C27   O4    S    
C23   C27   A    
H11   O7    S    
C3    C11   S    
C15   N2    A    
C9    C10   S    
C19   O6    S    
C31   C32   D    
C6    Cl1   S    
C13   C17   A    
H9    O5    S    
Cu1   O1    S    
Cu2   O8    S    
C23   O7    S    
C12   H2    S    
C15   H15   S    
C17   C18   S    
C25   C26   A    
Cu1   O9    S    
C7    C8    A    
C8    C16   S    
C10   H13   S    
C29   H12   S    
Cu2   O12   S    
Cu1   O11   S    
C17   N2    A    
C30   C32   S    
C4    C21   S    
C29   C30   A    
C24   H4    S    
H6    O2    S    
C1    C5    S    
C28   C29   A    
C7    Cl2   S    
C28   H18   S    
C1    O8    A    
Cu1   N2    S    
C1    O1    A    
C2    C27   A    
C5    C6    A    
H7    O3    S    
C10   O15   S    
C22   C24   A    
C11   H14   S    
C10   C11   S    
C18   H17   S    
C2    C20   S    
C11   O2    S    
C22   H1    S    
Cu2   O10   S    
H8    O4    S    
C13   N1    A    
C16   O12   A    
C24   C25   A    
Cu1   O13   S    
C18   C19   S    
C16   O11   A    
Cu2   O14   S    
C19   O5    S    
H10   O6    S    
C4    O10   A    
C14   N1    A    
C13   C19   S    
C14   C15   A    
Cu1   Cu2   S    
H5    O15   S    
C2    C28   A    
C18   H16   S    
C31   H3    S    
C21   C22   A    
C14   O3    S    
C12   C21   A    
C20   O14   A    
C32   Cl3   S    
C12   C26   A    
C8    C9    A    
C3    C5    A    
C26   H19   S    
