data_mof_unit_48875.cif
_audit_creation_date              2012-12-10T17:43:18-0500
_audit_creation_method            fapswitch 2.2
_symmetry_space_group_name_H-M    P1
_symmetry_Int_Tables_number       1
_space_group_crystal_system       triclinic
_cell_length_a                    15.070103
_cell_length_b                    13.935878
_cell_length_c                    10.726521
_cell_angle_alpha                 90.401339
_cell_angle_beta                  89.501466
_cell_angle_gamma                 91.364251
_cell_volume                      2251.95568803

loop_
_atom_site_label
_atom_site_type_symbol
_atom_type_description
_atom_site_fract_x
_atom_site_fract_y
_atom_site_fract_z
_atom_type_partial_charge
C1    C     C_R   0.329057 0.499184 0.501757 0.796932
C2    C     C_R   0.670649 0.501250 0.498377 0.816196
C3    C     C_R   0.952928 0.518818 0.504546 -0.063756
C4    C     C_R   0.046574 0.516812 0.506376 -0.056310
C5    C     C_R   0.907901 0.535200 0.391180 0.045756
C6    C     C_R   0.091537 0.498755 0.619111 0.022689
C7    C     C_R   0.949993 0.497522 0.729254 -0.231331
C8    C     C_R   0.050361 0.562380 0.288329 -0.228084
C9    C     C_R   0.042821 0.498342 0.732767 0.252032
C10   C     C_R   0.958221 0.567278 0.286317 0.259292
C11   C     C_R   0.446832 0.794223 0.582066 0.304897
C12   C     C_R   0.557899 0.206032 0.424345 0.290200
C13   C     C_R   0.555504 0.795692 0.419875 0.286421
C14   C     C_R   0.443382 0.203732 0.577221 0.288284
C15   C     C_R   0.563381 0.898618 0.426147 -0.040819
C16   C     C_R   0.448949 0.101520 0.589342 -0.034531
C17   C     C_R   0.454709 0.896209 0.594439 -0.037698
C18   C     C_R   0.566886 0.104472 0.434083 -0.031294
C19   C     C_R   0.510067 0.948797 0.512263 -0.104080
C20   C     C_R   0.509559 0.051660 0.513279 -0.102140
C21   C     C_R   0.624302 0.953000 0.350015 0.204402
C22   C     C_R   0.396099 0.047577 0.676479 0.209369
C23   C     C_R   0.405615 0.946996 0.685774 0.213942
C24   C     C_R   0.630663 0.054275 0.362247 0.221877
C25   C     C_R   0.497583 0.499652 0.260035 0.811978
C26   C     C_R   0.500805 0.500338 0.739944 0.797582
C27   C     C_3   0.438202 0.560615 0.040856 0.188918
C28   C     C_3   0.557966 0.439513 0.959029 0.191110
C29   C     C_3   0.519167 0.587482 0.961267 0.164464
C30   C     C_3   0.476464 0.412775 0.038145 0.173513
C31   C     C_3   0.416333 0.473536 0.955413 -0.324387
C32   C     C_3   0.579677 0.527106 0.044079 -0.372348
C33   C     C_3   0.499516 0.500811 0.875956 -0.042408
C34   C     C_3   0.496646 0.499308 0.123833 -0.055468
C35   C     C_R   0.814756 0.520844 0.387964 0.154776
C36   C     C_R   0.183999 0.482128 0.615028 0.154093
C37   C     C_R   0.767273 0.505777 0.499946 -0.177252
C38   C     C_R   0.231867 0.499236 0.503210 -0.184380
C39   C     C_R   0.811370 0.503754 0.614726 0.183664
C40   C     C_R   0.187441 0.523614 0.393464 0.171802
C41   C     C_R   0.904556 0.505431 0.616438 0.045675
C42   C     C_R   0.094924 0.532635 0.395085 0.042695
Cu1   Cu    Cu3+1 0.500000 0.597420 0.500000 0.913209
Cu2   Cu    Cu3+1 0.500000 0.402580 0.500000 0.924594
H1    H     H_    0.349618 0.451161 0.922251 0.152868
H2    H     H_    0.646107 0.551041 0.076625 0.159763
H3    H     H_    0.912883 0.492454 0.815624 0.191345
H4    H     H_    0.087226 0.585494 0.206316 0.195912
N1    N     N_R   0.500000 0.743810 0.500000 -0.230625
N2    N     N_R   0.500000 0.256190 0.500000 -0.228477
O1    O     O_R   0.370260 0.582280 0.500030 -0.602904
O2    O     O_R   0.629740 0.417720 0.499970 -0.587641
O3    O     O_R   0.629740 0.582280 0.499970 -0.598935
O4    O     O_R   0.370260 0.417720 0.500030 -0.595247
O5    O     O_R   0.499980 0.582260 0.316850 -0.604187
O6    O     O_R   0.500020 0.417740 0.683150 -0.583834
O7    O     O_R   0.500020 0.582260 0.683150 -0.586273
O8    O     O_R   0.499980 0.417740 0.316850 -0.587160
N3    N     N_3   0.373504 0.629376 0.084490 -0.598050
H5    H     H_    0.407954 0.684156 0.131922 0.214857
H6    H     H_    0.345790 0.660284 0.005821 0.235059
N4    N     N_3   0.622341 0.370338 0.914702 -0.587651
H7    H     H_    0.620119 0.311942 0.975286 0.232768
H8    H     H_    0.685400 0.401767 0.925590 0.219709
N5    N     N_3   0.538615 0.685188 0.920794 -0.596993
H9    H     H_    0.556917 0.724939 0.999778 0.202940
H10   H     H_    0.594149 0.684061 0.862384 0.224877
N6    N     N_3   0.453569 0.315516 0.077599 -0.615170
H11   H     H_    0.442968 0.274317 0.997070 0.226503
H12   H     H_    0.392769 0.317727 0.124695 0.215757
N7    N     N_2   0.769281 0.516397 0.272065 -0.437862
H13   H     H_    0.708978 0.549556 0.270913 0.237115
C43   C     C_3   0.769425 0.424113 0.208483 -0.718232
H14   H     H_    0.804662 0.431160 0.117721 0.223308
H15   H     H_    0.700332 0.399678 0.188793 0.224383
H16   H     H_    0.802288 0.368231 0.264192 0.238884
N8    N     N_2   0.227472 0.442250 0.720015 -0.415244
H17   H     H_    0.295072 0.453885 0.723392 0.229647
C44   C     C_3   0.200751 0.344077 0.749016 -0.641558
H18   H     H_    0.132799 0.339842 0.788613 0.251510
H19   H     H_    0.246285 0.314399 0.819085 0.221493
H20   H     H_    0.200842 0.298798 0.663769 0.219016
N9    N     N_2   0.762339 0.501980 0.728931 -0.442630
H21   H     H_    0.702961 0.464048 0.725447 0.271806
C45   C     C_3   0.753491 0.595484 0.786417 -0.737486
H22   H     H_    0.711490 0.641248 0.727857 0.242097
H23   H     H_    0.819352 0.631640 0.798543 0.238771
H24   H     H_    0.722710 0.587185 0.879938 0.225991
N10   N     N_2   0.234663 0.531689 0.278349 -0.426593
H25   H     H_    0.293676 0.570127 0.283731 0.286202
C46   C     C_3   0.243359 0.441132 0.213309 -0.704349
H26   H     H_    0.290540 0.395133 0.262916 0.227481
H27   H     H_    0.268196 0.454321 0.117440 0.247353
H28   H     H_    0.178078 0.402732 0.206872 0.227365
N11   N     N_2   0.088117 0.506891 0.849076 -0.397327
H29   H     H_    0.128650 0.567121 0.858722 0.267754
C47   C     C_3   0.045879 0.472377 0.962161 -0.723827
H30   H     H_    0.096567 0.466118 0.035524 0.244037
H31   H     H_    0.014659 0.400290 0.946782 0.226175
H32   H     H_    0.995603 0.523787 0.994064 0.230803
N12   N     N_2   0.920145 0.615965 0.184231 -0.436093
H33   H     H_    0.881294 0.575230 0.124955 0.273204
C48   C     C_3   0.886851 0.710313 0.212184 -0.660326
H34   H     H_    0.866533 0.745118 0.124463 0.219070
H35   H     H_    0.939544 0.755842 0.256225 0.228628
H36   H     H_    0.828341 0.705284 0.275631 0.237308
N13   N     N_3   0.372072 0.748133 0.641970 -0.554817
H37   H     H_    0.323907 0.730256 0.575959 0.227779
H38   H     H_    0.389642 0.690282 0.695940 0.275213
N14   N     N_3   0.600307 0.251621 0.320100 -0.562188
H39   H     H_    0.553154 0.270039 0.254966 0.263436
H40   H     H_    0.641451 0.308383 0.346709 0.267889
N15   N     N_3   0.600422 0.748312 0.319946 -0.555417
H41   H     H_    0.641099 0.694336 0.349488 0.254008
H42   H     H_    0.555687 0.727407 0.250789 0.229898
N16   N     N_3   0.369071 0.248708 0.632740 -0.559293
H43   H     H_    0.387664 0.306715 0.688316 0.267145
H44   H     H_    0.325893 0.266449 0.561653 0.233848
N17   N     N_2   0.681963 0.906230 0.264099 -0.407922
H45   H     H_    0.748294 0.924841 0.272192 0.250350
C49   C     C_3   0.651161 0.903519 0.136358 -0.704920
H46   H     H_    0.693229 0.854647 0.080435 0.226113
H47   H     H_    0.654849 0.976005 0.094184 0.212384
H48   H     H_    0.581291 0.876438 0.132077 0.233746
N18   N     N_2   0.336067 0.094198 0.759178 -0.408200
H49   H     H_    0.344451 0.078927 0.852138 0.249925
C50   C     C_3   0.244013 0.088581 0.720974 -0.704007
H50   H     H_    0.203029 0.131325 0.786309 0.225148
H51   H     H_    0.218318 0.013343 0.721290 0.210893
H52   H     H_    0.236728 0.117668 0.625590 0.239542
N19   N     N_2   0.371593 0.897520 0.792686 -0.406278
H53   H     H_    0.309491 0.916358 0.823339 0.257043
C51   C     C_3   0.434643 0.890765 0.892939 -0.692103
H54   H     H_    0.407690 0.841314 0.965376 0.231920
H55   H     H_    0.447231 0.962484 0.935974 0.206133
H56   H     H_    0.498432 0.862577 0.857449 0.254082
N20   N     N_2   0.703881 0.105618 0.306602 -0.410558
H57   H     H_    0.726414 0.080945 0.221757 0.257060
C52   C     C_3   0.774840 0.130411 0.391775 -0.701353
H58   H     H_    0.825770 0.175566 0.343018 0.223150
H59   H     H_    0.806388 0.064306 0.425627 0.214322
H60   H     H_    0.749113 0.172011 0.472559 0.244863

loop_
_geom_bond_atom_site_label_1
_geom_bond_atom_site_label_2
_ccdc_geom_bond_type
N12   H33   S    
C27   C29   S    
C43   H15   S    
C43   H14   S    
C19   C20   A    
C1    O4    A    
C6    C9    A    
C12   N14   S    
C47   H30   S    
C39   C41   A    
C45   H22   S    
C15   C19   A    
N20   C52   S    
C17   C23   A    
C18   C24   A    
C35   C37   A    
C8    C42   A    
C29   C32   S    
C36   N8    S    
C30   C31   S    
C8    C10   A    
C52   H60   S    
C29   C33   S    
N16   H43   S    
N14   H39   S    
C49   H48   S    
N4    H8    S    
Cu1   O3    S    
C3    C41   A    
N11   H29   S    
Cu2   O8    S    
N6    H11   S    
N5    H10   S    
C51   H56   S    
N13   H37   S    
C31   C33   S    
C40   N10   S    
N10   C46   S    
C9    N11   S    
C18   C20   A    
C25   C34   S    
Cu2   O2    S    
C40   C42   A    
C35   N7    S    
N3    H5    S    
N12   C48   S    
N13   H38   S    
C47   H31   S    
N8    C44   S    
C27   C34   S    
C52   H58   S    
N3    H6    S    
C30   C34   S    
C45   H23   S    
C27   C31   S    
C28   C32   S    
C4    C6    A    
C46   H26   S    
N7    C43   S    
Cu1   N1    S    
C22   N18   S    
C3    C5    A    
N8    H17   S    
C3    C4    A    
C7    H3    S    
Cu1   Cu2   S    
C50   H51   S    
N4    H7    S    
C11   N1    A    
C46   H27   S    
C51   H54   S    
Cu2   O6    S    
C26   C33   S    
N9    H21   S    
C15   C21   A    
C16   C20   A    
C23   N19   S    
C48   H35   S    
N18   C50   S    
C1    O1    A    
C49   H46   S    
N17   C49   S    
C2    O2    A    
C1    C38   S    
C13   N1    A    
Cu1   O5    S    
N9    C45   S    
C28   C33   S    
C13   C15   A    
C11   N13   S    
N18   H49   S    
C43   H16   S    
C29   N5    S    
C25   O8    A    
C50   H50   S    
C47   H32   S    
C44   H19   S    
N15   H41   S    
C45   H24   S    
Cu2   N2    S    
C7    C9    A    
C11   C17   A    
C16   C22   A    
C32   H2    S    
C10   N12   S    
C25   O5    A    
N19   C51   S    
C2    O3    A    
C26   O6    A    
C44   H20   S    
C12   N2    A    
N17   H45   S    
N11   C47   S    
C30   N6    S    
C24   N20   S    
N20   H57   S    
C6    C36   A    
C28   C30   S    
C50   H52   S    
C39   N9    S    
C5    C10   A    
C37   C39   A    
C27   N3    S    
C8    H4    S    
C46   H28   S    
C38   C40   A    
C52   H59   S    
C2    C37   S    
Cu1   O1    S    
C14   N2    A    
C4    C42   A    
C14   N16   S    
C5    C35   A    
C36   C38   A    
C17   C19   A    
N16   H44   S    
C48   H36   S    
C14   C16   A    
C7    C41   A    
C26   O7    A    
N14   H40   S    
C49   H47   S    
Cu1   O7    S    
C44   H18   S    
Cu2   O4    S    
N7    H13   S    
C21   N17   S    
N5    H9    S    
C31   H1    S    
C21   C24   A    
C12   C18   A    
C48   H34   S    
C51   H55   S    
N6    H12   S    
C22   C23   A    
N10   H25   S    
C13   N15   S    
N19   H53   S    
C32   C34   S    
N15   H42   S    
C28   N4    S    
