data_mof_unit_13286.cif
_audit_creation_date              2012-12-10T17:44:34-0500
_audit_creation_method            fapswitch 2.2
_symmetry_space_group_name_H-M    P1
_symmetry_Int_Tables_number       1
_space_group_crystal_system       triclinic
_cell_length_a                    9.933687
_cell_length_b                    10.629845
_cell_length_c                    15.444476
_cell_angle_alpha                 91.491013
_cell_angle_beta                  67.979721
_cell_angle_gamma                 89.950881
_cell_volume                      1511.25850061

loop_
_atom_site_label
_atom_site_type_symbol
_atom_type_description
_atom_site_fract_x
_atom_site_fract_y
_atom_site_fract_z
_atom_type_partial_charge
C1    C     C_R   0.501292 0.739242 0.497628 0.855458
C2    C     C_R   0.427721 0.572517 0.908145 0.065748
C3    C     C_R   0.287346 0.623977 0.960074 0.144735
C4    C     C_R   0.536269 0.570539 0.946666 0.066509
C5    C     C_R   0.495555 0.594176 0.043299 0.072486
C6    C     C_R   0.356595 0.646864 0.094425 -0.339288
C7    C     C_R   0.254918 0.666996 0.053256 -0.025471
C8    C     C_R   0.684268 0.544907 0.891529 -0.223070
C9    C     C_R   0.785365 0.527058 0.932427 -0.238542
C10   C     C_R   0.741163 0.530134 0.029228 0.176850
C11   C     C_R   0.595517 0.563235 0.085469 0.112164
C12   C     C_R   0.409157 0.502926 0.676018 0.856838
C13   C     C_R   0.839427 0.496516 0.070693 -0.188871
C14   C     C_R   0.792894 0.489942 0.167442 -0.177692
C15   C     C_R   0.551016 0.553607 0.182121 -0.281420
C16   C     C_R   0.469405 0.862922 0.340702 -0.169969
C17   C     C_R   0.452880 0.925813 0.267118 -0.121739
C18   C     C_R   0.453076 0.056708 0.267043 -0.124094
C19   C     C_R   0.470077 0.125172 0.340459 -0.189691
C20   C     C_R   0.485610 0.062811 0.416120 0.095386
C21   C     C_R   0.485266 0.930908 0.416256 0.100926
C22   C     C_R   0.505198 0.871322 0.491239 -0.088573
C23   C     C_R   0.501658 0.260600 0.497315 0.873856
C24   C     C_R   0.530890 0.938072 0.562024 -0.210344
C25   C     C_R   0.531205 0.066613 0.561881 -0.195550
C26   C     C_R   0.505789 0.128024 0.490974 -0.101660
C27   C     C_R   0.790404 0.666667 0.622028 -0.163931
C28   C     C_R   0.825532 0.745901 0.683370 -0.201219
C29   C     C_R   0.964008 0.742873 0.684753 -0.191923
C30   C     C_R   0.068697 0.661583 0.624045 -0.167974
C31   C     C_R   0.037147 0.580243 0.560877 0.164521
C32   C     C_R   0.893006 0.581371 0.560341 0.172995
C33   C     C_R   0.962505 0.422748 0.441930 -0.123922
C34   C     C_R   0.590922 0.501945 0.324116 0.840320
C35   C     C_R   0.105550 0.422994 0.441793 -0.110514
C36   C     C_R   0.355624 0.528745 0.776661 -0.049302
C37   C     C_R   0.647303 0.515168 0.223020 -0.057270
C38   C     C_R   0.183601 0.626791 0.917544 -0.175624
C39   C     C_R   0.218807 0.582076 0.825875 -0.245582
C40   C     C_R   0.454804 0.518193 0.819967 -0.253892
H1    H     H_    0.950686 0.470854 0.028273 0.139594
H2    H     H_    0.547628 0.890386 0.618497 0.140880
H3    H     H_    0.471829 0.761323 0.336920 0.147438
H4    H     H_    0.441427 0.872853 0.209524 0.141674
H5    H     H_    0.441544 0.105370 0.209457 0.142748
H6    H     H_    0.473259 0.226578 0.336410 0.141403
H7    H     H_    0.548142 0.118612 0.618252 0.152855
H8    H     H_    0.936653 0.359545 0.394474 0.147142
H9    H     H_    0.682009 0.675677 0.625282 0.202066
H10   H     H_    0.744374 0.809774 0.730384 0.157609
H11   H     H_    0.438981 0.569314 0.226775 0.160354
H12   H     H_    0.990815 0.804218 0.732890 0.160412
H13   H     H_    0.173021 0.664778 0.628512 0.202644
H14   H     H_    0.186884 0.359910 0.394213 0.148501
H15   H     H_    0.869087 0.461146 0.198376 0.149168
H16   H     H_    0.896922 0.504907 0.888237 0.149777
H17   H     H_    0.074975 0.663279 0.953538 0.197409
H18   H     H_    0.140413 0.591607 0.793094 0.153414
H19   H     H_    0.554417 0.466620 0.783015 0.159262
H20   H     H_    0.327421 0.679962 0.165886 0.135191
H21   H     H_    0.725271 0.540343 0.816163 0.164739
N1    N     N_R   0.856800 0.501200 0.500850 -0.118113
N2    N     N_R   0.142390 0.501280 0.500880 -0.119267
O1    O     O_R   0.385310 0.683220 0.500000 -0.635714
O2    O     O_R   0.614640 0.683250 0.500010 -0.625070
O3    O     O_R   0.319840 0.499980 0.632240 -0.627078
O4    O     O_R   0.549160 0.500000 0.632250 -0.634889
O5    O     O_R   0.385360 0.316750 0.499990 -0.609468
O6    O     O_R   0.614690 0.316780 0.500000 -0.606699
O7    O     O_R   0.450840 0.500000 0.367750 -0.628842
O8    O     O_R   0.680160 0.500020 0.367760 -0.608168
Zn1   Zn    Zn3+2 0.346880 0.499980 0.499990 0.927450
Zn2   Zn    Zn3+2 0.653120 0.500020 0.500010 0.935430
C41   C     C_2   0.116523 0.730837 0.112254 0.372123
H22   H     H_    0.074000 0.719367 0.187367 0.073359
O9    O     O_2   0.053556 0.802558 0.079319 -0.570997

loop_
_geom_bond_atom_site_label_1
_geom_bond_atom_site_label_2
_ccdc_geom_bond_type
C8    C9    A    
C18   H5    S    
C16   C21   A    
C34   C37   S    
C24   H2    S    
C23   O6    A    
C19   C20   A    
C4    C8    A    
C13   H1    S    
C19   H6    S    
C41   O9    D    
C28   C29   A    
C5    C11   A    
C3    C7    A    
C30   C31   A    
O2    Zn2   S    
C18   C19   A    
C23   C26   S    
C15   C37   A    
C11   C15   A    
O3    Zn1   S    
C3    C38   A    
C16   C17   A    
C1    O2    A    
N1    Zn2   S    
O6    Zn2   S    
O4    Zn2   S    
C15   H11   S    
C12   C36   S    
C9    C10   A    
C25   H7    S    
C8    H21   S    
C14   H15   S    
C1    C22   S    
C40   H19   S    
C21   C22   A    
C35   H14   S    
C28   H10   S    
C12   O4    A    
C7    C41   S    
C38   C39   A    
C30   H13   S    
C41   H22   S    
C31   N2    A    
C36   C40   A    
C24   C25   A    
O8    Zn2   S    
C33   N1    A    
C25   C26   A    
C39   H18   S    
C12   O3    A    
C23   O5    A    
C2    C4    A    
C29   C30   A    
C6    H20   S    
C38   H17   S    
C31   C32   A    
O5    Zn1   S    
C17   C18   A    
C9    H16   S    
N2    Zn1   S    
C16   H3    S    
C22   C24   A    
C1    O1    A    
C34   O7    A    
C27   C32   A    
C36   C39   A    
C4    C5    A    
C10   C13   A    
C35   N2    A    
C6    C7    A    
C2    C3    A    
C17   H4    S    
C32   N1    A    
C14   C37   A    
C5    C6    A    
C20   C26   A    
C33   C35   A    
O1    Zn1   S    
C10   C11   A    
C2    C40   A    
C20   C21   A    
C27   C28   A    
C33   H8    S    
O7    Zn1   S    
C13   C14   A    
C34   O8    A    
C27   H9    S    
C29   H12   S    
