data_mof_unit_66270.cif
_audit_creation_date              2012-12-10T19:38:21-0500
_audit_creation_method            fapswitch 2.2
_symmetry_space_group_name_H-M    P1
_symmetry_Int_Tables_number       1
_space_group_crystal_system       triclinic
_cell_length_a                    15.812698
_cell_length_b                    15.892481
_cell_length_c                    17.055206
_cell_angle_alpha                 90.367175
_cell_angle_beta                  96.12474
_cell_angle_gamma                 92.297388
_cell_volume                      4257.88807725

loop_
_atom_site_label
_atom_site_type_symbol
_atom_type_description
_atom_site_fract_x
_atom_site_fract_y
_atom_site_fract_z
_atom_type_partial_charge
C1    C     C_R   0.510243 0.502737 0.651303 0.875335
C2    C     C_3   0.582478 0.051398 0.549582 0.131080
C3    C     C_3   0.500902 0.082806 0.501125 0.149201
C4    C     C_3   0.498884 0.048886 0.415448 -0.394013
C5    C     C_3   0.498318 0.951082 0.414239 0.263628
C6    C     C_1   0.500937 0.174989 0.500661 -0.019797
C7    C     C_1   0.499168 0.824992 0.500261 -0.062724
C8    C     C_1   0.499242 0.749498 0.500320 -0.131007
C9    C     C_R   0.516217 0.507358 0.737289 -0.139941
C10   C     C_R   0.466521 0.562619 0.776380 0.187490
C11   C     C_R   0.474400 0.565027 0.859286 0.262443
C12   C     C_R   0.499772 0.659920 0.500195 0.854224
C13   C     C_R   0.531038 0.511179 0.902150 0.269811
C14   C     C_R   0.582429 0.459835 0.862575 -0.204620
C15   C     C_R   0.575061 0.457706 0.780776 -0.232627
C16   C     C_R   0.557406 0.500153 0.143578 -0.151211
C17   C     C_R   0.560646 0.501091 0.225283 -0.223518
C18   C     C_R   0.478219 0.495726 0.096695 0.389326
C19   C     C_R   0.485294 0.497535 0.261958 -0.036025
C20   C     C_R   0.406443 0.492213 0.215424 -0.207685
C21   C     C_R   0.403193 0.491172 0.133376 -0.152691
C22   C     C_R   0.248032 0.551982 0.525882 0.056481
C23   C     C_R   0.489824 0.499035 0.348371 0.787613
C24   C     C_R   0.158721 0.555071 0.518662 0.277087
C25   C     C_R   0.108314 0.488614 0.478044 0.203741
C26   C     C_R   0.151583 0.425575 0.441968 0.137647
C27   C     C_R   0.241108 0.427673 0.448551 -0.022085
C28   C     C_R   0.840189 0.463415 0.460685 -0.355238
C29   C     C_R   0.751103 0.461930 0.458689 -0.053096
C30   C     C_R   0.891126 0.513226 0.517450 0.330286
C31   C     C_R   0.759271 0.561420 0.563729 0.486046
C32   C     C_R   0.850220 0.560928 0.570856 0.196305
C33   C     C_R   0.500234 0.340075 0.500013 0.817600
C34   C     C_3   0.580795 0.953611 0.549390 -0.461805
C35   C     C_3   0.420948 0.948641 0.536996 -0.309946
C36   C     C_3   0.420792 0.046077 0.536084 -0.345166
C37   C     C_1   0.500774 0.250486 0.500306 -0.126271
C38   C     C_3   0.499446 0.917185 0.499889 0.177689
Cu1   Cu    Cu3+1 0.584780 0.504030 0.503820 1.005550
Cu2   Cu    Cu3+1 0.415220 0.495970 0.496180 0.985312
H1    H     H_    0.638413 0.931597 0.524472 0.160389
H2    H     H_    0.639279 0.074864 0.521653 0.136812
H3    H     H_    0.441752 0.071471 0.378987 0.223919
H4    H     H_    0.622396 0.504787 0.259654 0.168278
H5    H     H_    0.616936 0.503039 0.117508 0.165209
H6    H     H_    0.627381 0.420154 0.895489 0.180108
H7    H     H_    0.614587 0.416244 0.751240 0.188504
H8    H     H_    0.347372 0.489048 0.242297 0.175167
H9    H     H_    0.341963 0.487526 0.098123 0.168932
H10   H     H_    0.583164 0.929389 0.610615 0.238202
H11   H     H_    0.712823 0.422006 0.415924 0.166868
H12   H     H_    0.868701 0.424408 0.419251 0.214895
H13   H     H_    0.273336 0.379527 0.419562 0.176237
H14   H     H_    0.285869 0.602127 0.557294 0.202668
H15   H     H_    0.361161 0.922177 0.504039 0.214836
H16   H     H_    0.422071 0.926466 0.598867 0.194721
H17   H     H_    0.418269 0.070551 0.596982 0.217653
H18   H     H_    0.362310 0.066289 0.500156 0.187174
H19   H     H_    0.556847 0.931547 0.388782 0.090981
H20   H     H_    0.555523 0.074340 0.388415 0.133664
N1    N     N_2   0.540249 0.509550 0.985284 -0.229633
N2    N     N_2   0.471201 0.496394 0.013050 -0.194999
N3    N     N_R   0.287860 0.489910 0.490440 -0.231969
N4    N     N_2   0.016502 0.484159 0.469434 -0.194254
N5    N     N_2   0.982778 0.515229 0.525565 -0.128212
N6    N     N_R   0.712150 0.510100 0.509550 -0.188764
O1    O     O_R   0.579470 0.503770 0.617500 -0.530158
O2    O     O_R   0.436280 0.496960 0.611050 -0.552997
O3    O     O_R   0.571630 0.623970 0.503220 -0.533988
O4    O     O_R   0.428430 0.617160 0.496770 -0.581354
O5    O     O_R   0.563720 0.503040 0.388950 -0.597918
O6    O     O_R   0.420530 0.496230 0.382500 -0.584411
O7    O     O_R   0.571570 0.382840 0.503230 -0.578488
O8    O     O_R   0.428370 0.376030 0.496780 -0.579025
Br1   Br    Br    0.597529 0.095675 0.657658 -0.487455
Br2   Br    Br    0.412895 0.645737 0.913564 -0.363041
Br3   Br    Br    0.393186 0.639460 0.717460 -0.417727
Br4   Br    Br    0.089945 0.335435 0.383136 -0.458259
O9    O     O_3   0.716552 0.613211 0.609752 -0.690475
H21   H     H_    0.752941 0.664263 0.624248 0.315348
O10   O     O_3   0.124563 0.625280 0.548667 -0.659227
H22   H     H_    0.073169 0.638741 0.513344 0.356665
O11   O     O_3   0.900721 0.605009 0.629567 -0.678084
H23   H     H_    0.868117 0.611616 0.675499 0.339328
O12   O     O_3   0.425703 0.919524 0.366559 -0.700788
H24   H     H_    0.439184 0.863195 0.346938 0.330240

loop_
_geom_bond_atom_site_label_1
_geom_bond_atom_site_label_2
_ccdc_geom_bond_type
C31   N6    A    
C12   O3    A    
C18   C21   A    
C11   C13   A    
C19   C20   A    
C15   H7    S    
C3    C6    S    
C21   H9    S    
O10   H22   S    
C7    C8    T    
C14   H6    S    
O12   H24   S    
C26   C27   A    
C26   Br4   S    
Cu2   N3    S    
Cu2   O4    S    
C28   C29   A    
C36   H18   S    
C11   Br2   S    
C1    O2    A    
C17   C19   A    
C22   N3    A    
O11   H23   S    
C16   C17   A    
C9    C10   A    
C5    O12   S    
C2    C34   S    
C5    C38   S    
C34   H1    S    
C10   Br3   S    
C34   H10   S    
C5    H19   S    
C35   H15   S    
C23   O5    A    
C35   C38   S    
C1    C9    S    
C24   C25   A    
C22   H14   S    
C36   H17   S    
Cu1   Cu2   S    
C18   N2    S    
C25   C26   A    
C33   C37   S    
O9    H21   S    
C25   N4    S    
C19   C23   S    
C24   O10   S    
C31   C32   A    
C8    C12   S    
C4    H20   S    
Cu1   O3    S    
C6    C37   T    
C20   H8    S    
C27   N3    A    
C33   O7    A    
Cu1   N6    S    
C22   C24   A    
C3    C4    S    
C29   H11   S    
C32   O11   S    
C12   O4    A    
Cu2   O6    S    
C35   H16   S    
C34   C38   S    
Cu1   O1    S    
C23   O6    A    
C4    C5    S    
C16   H5    S    
C27   H13   S    
C31   O9    S    
C4    H3    S    
N4    N5    D    
C28   C30   A    
C2    C3    S    
C9    C15   A    
C17   H4    S    
C30   C32   A    
C28   H12   S    
C3    C36   S    
C2    H2    S    
C1    O1    A    
C7    C38   S    
Cu2   O8    S    
Cu1   O7    S    
N1    N2    D    
C30   N5    S    
C10   C11   A    
C29   N6    A    
C33   O8    A    
C13   N1    S    
C20   C21   A    
C16   C18   A    
Cu2   O2    S    
Cu1   O5    S    
C14   C15   A    
C35   C36   S    
C13   C14   A    
C2    Br1   S    
