data_mof_unit_60306.cif
_audit_creation_date              2013-03-05T16:38:06-0500
_audit_creation_method            fapswitch 2.2
_symmetry_space_group_name_H-M    P1
_symmetry_Int_Tables_number       1
_space_group_crystal_system       triclinic
_cell_length_a                    19.333042
_cell_length_b                    18.468523
_cell_length_c                    10.660063
_cell_angle_alpha                 90.272057
_cell_angle_beta                  90.036968
_cell_angle_gamma                 89.743486
_cell_volume                      3806.12281172

loop_
_atom_site_label
_atom_site_type_symbol
_atom_site_description
_atom_site_fract_x
_atom_site_fract_y
_atom_site_fract_z
_atom_type_partial_charge
O1    O     O_R   0.398180 0.560840 0.499970 -0.611614
O2    O     O_R   0.601820 0.439160 0.500030 -0.606074
O3    O     O_R   0.601820 0.560840 0.500030 -0.603693
O4    O     O_R   0.398180 0.439160 0.499970 -0.597466
C1    C     C_R   0.365928 0.499878 0.499471 0.995029
C2    C     C_R   0.634351 0.499302 0.498336 0.988822
O5    O     O_R   0.499980 0.560800 0.313940 -0.591252
O6    O     O_R   0.500020 0.439200 0.686060 -0.617036
O7    O     O_R   0.500020 0.560800 0.686060 -0.574740
O8    O     O_R   0.499980 0.439200 0.313940 -0.592240
C3    C     C_R   0.498320 0.500249 0.257329 0.987341
C4    C     C_R   0.500839 0.500455 0.742628 0.958211
Zn1   Zn    Zn3+2 0.500000 0.581210 0.500000 1.058653
Zn2   Zn    Zn3+2 0.500000 0.418790 0.500000 1.041601
C5    C     C_3   0.474333 0.566359 0.041046 -0.092299
C6    C     C_3   0.523118 0.438438 0.959058 -0.129854
C7    C     C_3   0.539495 0.556089 0.960581 -0.112964
C8    C     C_3   0.456854 0.448949 0.038651 -0.136883
C9    C     C_3   0.434458 0.513475 0.955830 -0.142799
C10   C     C_3   0.562825 0.492411 0.043350 -0.151319
C11   C     C_3   0.500053 0.502320 0.876752 -0.189393
C12   C     C_3   0.497148 0.501973 0.123062 -0.185918
C13   C     C_R   0.741731 0.449709 0.402025 0.153030
C14   C     C_R   0.260390 0.526210 0.378609 0.180061
C15   C     C_R   0.251422 0.465844 0.581480 0.141110
C16   C     C_R   0.749728 0.538636 0.572424 0.176205
C17   C     C_R   0.812878 0.456244 0.380017 -0.065406
C18   C     C_R   0.188638 0.521089 0.362804 -0.048431
C19   C     C_R   0.179270 0.471843 0.576314 -0.049584
C20   C     C_R   0.822006 0.535360 0.565321 -0.043705
C21   C     C_R   0.853150 0.496870 0.465155 -0.027649
C22   C     C_R   0.148034 0.497388 0.464681 -0.033136
C23   C     C_R   0.709640 0.496408 0.490271 -0.171100
C24   C     C_R   0.291279 0.498808 0.487927 -0.187200
C25   C     C_R   0.963995 0.561314 0.431103 0.244865
C26   C     C_R   0.037140 0.430554 0.459203 0.244497
C27   C     C_R   0.035878 0.562664 0.441644 0.239866
C28   C     C_R   0.965393 0.430848 0.470707 0.241644
C29   C     C_R   0.072450 0.496918 0.453427 -0.098962
C30   C     C_R   0.928736 0.496148 0.453516 -0.102835
C31   C     C_R   0.552930 0.726003 0.555433 0.122732
C32   C     C_R   0.444883 0.274049 0.452049 0.089965
C33   C     C_R   0.447120 0.725990 0.443919 0.107032
C34   C     C_R   0.555113 0.273876 0.548160 0.083770
H1    H     H_    0.594477 0.696254 0.599630 0.184121
H2    H     H_    0.401424 0.303806 0.414407 0.161812
H3    H     H_    0.405759 0.696164 0.399307 0.161624
H4    H     H_    0.598471 0.303564 0.586042 0.158081
C35   C     C_R   0.553992 0.801940 0.556064 -0.230642
C36   C     C_R   0.443913 0.198107 0.450826 -0.235612
C37   C     C_R   0.446006 0.801967 0.442786 -0.234308
C38   C     C_R   0.556153 0.197904 0.549369 -0.227039
H5    H     H_    0.596293 0.829564 0.602209 0.162782
H6    H     H_    0.399855 0.170772 0.409993 0.156723
H7    H     H_    0.403746 0.829624 0.396322 0.156659
H8    H     H_    0.600215 0.170402 0.590230 0.156121
C39   C     C_R   0.499978 0.841288 0.499364 0.093368
C40   C     C_R   0.500047 0.158532 0.500059 0.106545
N1    N     N_R   0.500000 0.689440 0.500000 -0.110228
N2    N     N_R   0.500000 0.310560 0.500000 -0.105825
C41   C     C_R   0.438257 0.962076 0.516459 -0.146888
C42   C     C_R   0.561742 0.037439 0.482427 -0.143860
C43   C     C_R   0.561721 0.961413 0.482440 -0.144378
C44   C     C_R   0.438304 0.038102 0.517086 -0.142963
H9    H     H_    0.389866 0.934202 0.531753 0.156586
H10   H     H_    0.610171 0.065084 0.466522 0.158735
H11   H     H_    0.610100 0.933011 0.466973 0.158290
H12   H     H_    0.389892 0.066275 0.533215 0.157848
C45   C     C_R   0.500041 0.077119 0.499915 0.109507
C46   C     C_R   0.499973 0.922533 0.499319 0.111126
C47   C     C_2   0.363610 0.530461 0.906497 1.056484
O9    O     O_2   0.312777 0.503394 0.955192 -0.529811
O10   O     O_R   0.356027 0.579439 0.807895 -0.762439
H13   H     H_    0.305866 0.587131 0.783365 0.358285
C48   C     C_2   0.635845 0.487434 0.089319 1.030665
O11   O     O_2   0.675389 0.442480 0.044588 -0.530403
O12   O     O_R   0.659342 0.537553 0.178000 -0.759609
H14   H     H_    0.710927 0.533457 0.193388 0.358075
C49   C     C_2   0.450709 0.640247 0.084383 0.994476
O13   O     O_2   0.488609 0.676857 0.150746 -0.601010
O14   O     O_R   0.387030 0.667986 0.044945 -0.731815
H15   H     H_    0.377492 0.718234 0.079713 0.360003
C50   C     C_2   0.553130 0.367937 0.913021 1.021434
O15   O     O_2   0.526772 0.310605 0.943160 -0.585399
O16   O     O_R   0.611711 0.368478 0.836378 -0.752909
H16   H     H_    0.628069 0.317910 0.813406 0.346297
C51   C     C_2   0.581217 0.620631 0.921071 1.008952
O17   O     O_2   0.556001 0.664801 0.849147 -0.606466
O18   O     O_R   0.646568 0.632603 0.972824 -0.719697
H17   H     H_    0.667816 0.679722 0.943756 0.378327
C52   C     C_2   0.406970 0.390648 0.075901 1.057019
O19   O     O_2   0.383956 0.349842 0.995679 -0.528487
O20   O     O_R   0.384639 0.385088 0.199937 -0.791445
H18   H     H_    0.349428 0.345176 0.211596 0.347400
Br1   Br    Br    0.689580 0.376242 0.312696 -0.376377
Br2   Br    Br    0.317750 0.561841 0.245134 -0.420239
Br3   Br    Br    0.295855 0.410391 0.712232 -0.348083
Br4   Br    Br    0.705902 0.592481 0.705598 -0.428602
C53   C     C_2   0.845554 0.423011 0.266829 1.013976
O21   O     O_2   0.835641 0.359453 0.240133 -0.499241
O22   O     O_R   0.889429 0.464731 0.192378 -0.771407
H19   H     H_    0.909444 0.436373 0.119163 0.373171
C54   C     C_2   0.155954 0.538262 0.239803 1.036867
O23   O     O_2   0.170214 0.594283 0.185087 -0.512866
O24   O     O_R   0.107702 0.490551 0.187820 -0.765539
H20   H     H_    0.088482 0.508273 0.104888 0.365862
C55   C     C_2   0.136310 0.453440 0.687513 1.012721
O25   O     O_2   0.144111 0.395661 0.741312 -0.500744
O26   O     O_R   0.085704 0.502247 0.729006 -0.777252
H21   H     H_    0.059498 0.483782 0.804646 0.366455
C56   C     C_2   0.865246 0.570412 0.663738 1.024901
O27   O     O_2   0.855694 0.633892 0.692200 -0.518355
O28   O     O_R   0.917819 0.530780 0.722213 -0.772908
H22   H     H_    0.944003 0.560498 0.786650 0.371701
Br5   Br    Br    0.914059 0.648351 0.386661 -0.303154
Br6   Br    Br    0.086698 0.339509 0.450927 -0.297250
Br7   Br    Br    0.083038 0.654599 0.448617 -0.316083
Br8   Br    Br    0.918782 0.343080 0.519947 -0.294547

loop_
_geom_bond_atom_site_label_1
_geom_bond_atom_site_label_2
_geom_bond_distance
_ccdc_geom_bond_type
C41   C46   1.407687 A    
C51   O17   1.221834 D    
C6    C11   1.537918 S    
O10   H13   1.013813 S    
C9    C47   1.499297 S    
C56   O27   1.222850 D    
O3    C2    1.296511 A    
O14   H15   1.013828 S    
O12   H14   1.013142 S    
C5    C9    1.539757 S    
C17   C53   1.490681 S    
O20   H18   1.013726 S    
O1    C1    1.289442 A    
C8    C52   1.503647 S    
C44   H12   1.082273 S    
C9    C11   1.535775 S    
C19   C22   1.416070 A    
C14   Br2   1.924772 S    
C20   C21   1.413421 A    
C7    C10   1.539341 S    
C35   C39   1.407284 A    
C21   C30   1.466640 S    
C8    C9    1.546589 S    
C32   H2    1.080043 S    
C22   C29   1.466169 S    
O7    Zn1   2.020670 S    
C5    C12   1.541967 S    
C5    C49   1.507587 S    
C50   O15   1.221594 D    
C13   C23   1.414906 A    
C55   O25   1.222532 D    
C25   Br5   1.932122 S    
C37   C39   1.407739 A    
C13   C17   1.401321 A    
C39   C46   1.500472 S    
O3    Zn1   2.002462 S    
C33   N1    1.362003 A    
C15   C24   1.403527 A    
C34   C38   1.403263 A    
C7    C51   1.504227 S    
C55   O26   1.397949 S    
O2    C2    1.279087 A    
C31   C35   1.402667 A    
C15   C19   1.399896 A    
C43   H11   1.082640 S    
C42   H10   1.082292 S    
C17   C21   1.410923 A    
C36   C40   1.408254 A    
O22   H19   1.013843 S    
C18   C22   1.412775 A    
C31   N1    1.361591 A    
C54   O24   1.398491 S    
O8    Zn2   2.020670 S    
C32   N2    1.361571 A    
C52   O19   1.222137 D    
C49   O14   1.396626 S    
O16   H16   1.013627 S    
C4    C11   1.430119 S    
C6    C50   1.503458 S    
C14   C24   1.404547 A    
C10   C48   1.496615 S    
C41   C44   1.404086 A    
O5    C3    1.268732 A    
C48   O11   1.221549 D    
C42   C43   1.404092 A    
C41   H9    1.082652 S    
C52   O20   1.395586 S    
C16   C23   1.404936 A    
C53   O21   1.222442 D    
C43   C46   1.407927 A    
C6    C10   1.545237 S    
C1    C24   1.448567 S    
C56   O28   1.397929 S    
C36   H6    1.082196 S    
C44   C45   1.409445 A    
C48   O12   1.397022 S    
C38   C40   1.408640 A    
C16   Br4   1.924261 S    
C15   Br3   1.932264 S    
C50   O16   1.397020 S    
C32   C36   1.402750 A    
C16   C20   1.400478 A    
C51   O18   1.396409 S    
O1    Zn1   2.005772 S    
C26   Br6   1.933216 S    
C47   O10   1.397196 S    
O28   H22   1.013793 S    
C5    C7    1.535086 S    
O6    Zn2   2.017153 S    
C25   C27   1.394504 A    
C8    C12   1.540477 S    
C26   C29   1.407225 A    
C14   C18   1.400835 A    
C10   C12   1.537351 S    
O4    C1    1.280656 A    
C40   C45   1.503581 S    
Zn1   N1    1.998846 S    
Zn2   N2    1.998846 S    
O24   H20   1.013892 S    
C3    C12   1.431957 S    
C2    C23   1.458895 S    
C20   C56   1.488578 S    
C26   C28   1.392563 A    
C25   C30   1.407288 A    
C47   O9    1.221750 D    
C27   C29   1.408438 A    
O26   H21   1.013806 S    
C28   C30   1.408746 A    
C18   C54   1.490029 S    
C33   C37   1.403361 A    
C38   H8    1.082188 S    
C34   N2    1.361617 A    
C35   H5    1.082543 S    
C13   Br1   1.939864 S    
C37   H7    1.082541 S    
O4    Zn2   2.002464 S    
O2    Zn2   2.005770 S    
O7    C4    1.269712 A    
C7    C11   1.537410 S    
O8    C3    1.281616 A    
C49   O13   1.222179 D    
C28   Br8   1.933081 S    
C34   H4    1.080713 S    
O5    Zn1   2.017153 S    
C27   Br7   1.931905 S    
C42   C45   1.409219 A    
C6    C8    1.548032 S    
C54   O23   1.222775 D    
C31   H1    1.080304 S    
C19   C55   1.489315 S    
O18   H17   1.013874 S    
C33   H3    1.081659 S    
C53   O22   1.398433 S    
O6    C4    1.279590 A    
