data_mof_unit_17701.cif
_audit_creation_date              2012-12-10T20:55:05-0500
_audit_creation_method            fapswitch 2.2
_symmetry_space_group_name_H-M    P1
_symmetry_Int_Tables_number       1
_space_group_crystal_system       triclinic
_cell_length_a                    15.834873
_cell_length_b                    15.086779
_cell_length_c                    10.778969
_cell_angle_alpha                 91.248289
_cell_angle_beta                  89.867869
_cell_angle_gamma                 91.59852
_cell_volume                      2573.44910924

loop_
_atom_site_label
_atom_site_type_symbol
_atom_type_description
_atom_site_fract_x
_atom_site_fract_y
_atom_site_fract_z
_atom_type_partial_charge
C1    C     C_R   0.339032 0.498804 0.498886 0.997876
C2    C     C_R   0.661003 0.500893 0.498075 0.879008
C3    C     C_R   0.953159 0.421862 0.445523 0.342184
C4    C     C_R   0.040988 0.415502 0.464532 0.344191
C5    C     C_1   0.823997 0.501699 0.491421 0.104897
C6    C     C_1   0.176122 0.493498 0.503264 0.108026
C7    C     C_1   0.250879 0.496007 0.500937 -0.025211
C8    C     C_1   0.749249 0.502472 0.494558 -0.029323
C9    C     C_R   0.429880 0.949327 0.452703 0.367665
C10   C     C_R   0.571785 0.956330 0.544333 0.362344
C11   C     C_R   0.501136 0.905074 0.498867 -0.247538
C12   C     C_R   0.568870 0.050678 0.548521 -0.129733
C13   C     C_R   0.430759 0.043992 0.449722 -0.138575
C14   C     C_R   0.499540 0.094871 0.499259 -0.135221
C15   C     C_1   0.500794 0.807032 0.499751 0.467797
C16   C     C_1   0.499501 0.193070 0.499532 0.166184
C17   C     C_R   0.500045 0.499463 0.259617 0.942140
C18   C     C_R   0.505063 0.501884 0.740028 0.958161
C19   C     C_R   0.646421 0.571595 0.132488 0.330560
C20   C     C_R   0.655801 0.558935 0.881257 0.302682
C21   C     C_R   0.724944 0.552002 0.078899 -0.118272
C22   C     C_R   0.728813 0.540935 0.949034 -0.116135
C23   C     C_R   0.577184 0.535645 0.938128 -0.086487
C24   C     C_R   0.573637 0.538155 0.067782 -0.058508
C25   C     C_R   0.501823 0.500194 0.127227 -0.260624
C26   C     C_R   0.503530 0.508325 0.872294 -0.249380
C27   C     C_R   0.430016 0.468744 0.059892 0.303638
C28   C     C_R   0.427164 0.486932 0.933336 0.358436
C29   C     C_R   0.959245 0.573301 0.536512 -0.087863
C30   C     C_R   0.046871 0.570610 0.541469 -0.097092
C31   C     C_R   0.913243 0.499333 0.488902 -0.118224
C32   C     C_R   0.086824 0.492281 0.505336 -0.114660
N1    N     N_1   0.500000 0.270550 0.500000 -0.066660
N2    N     N_1   0.500000 0.729450 0.500000 -0.012759
O1    O     O_R   0.378020 0.573650 0.500040 -0.613571
O2    O     O_R   0.621980 0.573650 0.499960 -0.524738
O3    O     O_R   0.378020 0.426320 0.500100 -0.563305
O4    O     O_R   0.621980 0.426320 0.499900 -0.633538
O5    O     O_R   0.500000 0.573680 0.316780 -0.570542
O6    O     O_R   0.500000 0.573680 0.683220 -0.539137
O7    O     O_R   0.500000 0.426350 0.316830 -0.583765
O8    O     O_R   0.500000 0.426350 0.683170 -0.614136
Zn1   Zn    Zn3+2 0.500000 0.598370 0.500000 1.183012
Zn2   Zn    Zn3+2 0.500000 0.401630 0.500000 1.087233
S1    S     S_3+6 0.345514 0.406915 0.132433 0.102693
O9    O     O_2   0.379051 0.338373 0.216912 -0.271434
O10   O     O_2   0.292747 0.470115 0.206807 -0.295406
O11   O     O_3   0.284048 0.351978 0.027690 -0.443843
H1    H     H_    0.234797 0.329413 0.075554 0.412629
S2    S     S_3+6 0.328832 0.496863 0.854117 0.090315
O12   O     O_2   0.258483 0.516123 0.943764 -0.198365
O13   O     O_2   0.334831 0.572044 0.765224 -0.307259
O14   O     O_3   0.306576 0.401945 0.774679 -0.507241
H2    H     H_    0.246726 0.406185 0.749551 0.391747
S3    S     S_3+6 0.642401 0.679693 0.201802 0.080523
O15   O     O_2   0.554572 0.714880 0.197510 -0.233670
O16   O     O_2   0.672726 0.678152 0.333019 -0.298960
O17   O     O_3   0.707371 0.749512 0.125465 -0.461135
H3    H     H_    0.702164 0.807515 0.169265 0.398288
S4    S     S_3+6 0.665736 0.661047 0.802517 0.099764
O18   O     O_2   0.705203 0.645487 0.678138 -0.345723
O19   O     O_2   0.582519 0.705248 0.789195 -0.185992
O20   O     O_3   0.731363 0.730271 0.882956 -0.450527
H4    H     H_    0.759785 0.767828 0.820307 0.408901
C33   C     C_1   0.801450 0.563148 0.151306 0.355537
N3    N     N_1   0.862853 0.572477 0.208664 -0.142274
C34   C     C_1   0.809032 0.534100 0.885418 0.283330
N4    N     N_1   0.873169 0.528548 0.834566 -0.161365
C35   C     C_1   0.095945 0.647873 0.585630 0.263921
N5    N     N_1   0.135028 0.709295 0.620824 -0.089272
C36   C     C_1   0.916748 0.652728 0.578409 0.290509
N6    N     N_1   0.883337 0.716155 0.611955 -0.131270
S5    S     S_3+6 0.892863 0.336621 0.364704 0.090080
O21   O     O_2   0.859686 0.271128 0.457269 -0.230557
O22   O     O_2   0.819364 0.374823 0.298236 -0.333441
O23   O     O_3   0.951974 0.284088 0.257854 -0.454415
H5    H     H_    0.916286 0.232969 0.228346 0.396980
S6    S     S_3+6 0.094544 0.313233 0.442671 0.112798
O24   O     O_2   0.126629 0.307698 0.311453 -0.225794
O25   O     O_2   0.168311 0.309166 0.529728 -0.290513
O26   O     O_3   0.030373 0.225172 0.470293 -0.447014
H6    H     H_    0.062880 0.172956 0.443458 0.400125
C37   C     C_1   0.361797 0.090572 0.395061 0.368587
N7    N     N_1   0.307071 0.128511 0.351487 -0.056061
C38   C     C_1   0.636733 0.103562 0.605531 0.356758
N8    N     N_1   0.690663 0.146128 0.651045 -0.096910
S7    S     S_3+6 0.341374 0.884020 0.396315 0.059274
O27   O     O_2   0.263905 0.937556 0.378558 -0.247372
O28   O     O_2   0.365562 0.841844 0.274159 -0.248737
O29   O     O_3   0.317654 0.803685 0.497619 -0.541838
H7    H     H_    0.283178 0.759040 0.449952 0.391399
S8    S     S_3+6 0.663438 0.903508 0.600158 0.060616
O30   O     O_2   0.741637 0.958237 0.571561 -0.282974
O31   O     O_2   0.655600 0.895228 0.738338 -0.222432
O32   O     O_3   0.674187 0.802207 0.535237 -0.495383
H8    H     H_    0.735762 0.792628 0.533054 0.411367

loop_
_geom_bond_atom_site_label_1
_geom_bond_atom_site_label_2
_ccdc_geom_bond_type
C6    C32   S    
S3    O15   D    
S5    O21   D    
O32   H8    S    
C18   C26   S    
S7    O27   D    
O26   H6    S    
O14   H2    S    
C4    S6    S    
C12   C38   S    
S4    O20   S    
C19   C21   A    
C18   O8    A    
C38   N8    T    
S6    O25   D    
C19   S3    S    
S4    O19   D    
C17   O5    A    
C23   C26   A    
C9    C13   A    
C18   O6    A    
C28   S2    S    
O6    Zn1   S    
S2    O13   D    
C23   C24   A    
C20   S4    S    
O1    Zn1   S    
C15   N2    T    
C1    O3    A    
C27   S1    S    
C10   S8    S    
C13   C14   A    
S5    O22   D    
O8    Zn2   S    
S1    O10   D    
S2    O14   S    
C34   N4    T    
C24   C25   A    
S6    O24   D    
O5    Zn1   S    
O17   H3    S    
S1    O9    D    
S8    O32   S    
S4    O18   D    
O4    Zn2   S    
C29   C30   A    
C16   N1    T    
C2    O4    A    
C37   N7    T    
C20   C23   A    
S8    O31   D    
S2    O12   D    
O23   H5    S    
C3    C31   A    
C9    C11   A    
C4    C32   A    
C10   C12   A    
O11   H1    S    
C12   C14   A    
C11   C15   S    
S3    O16   D    
O7    Zn2   S    
C14   C16   S    
S3    O17   S    
C3    C4    A    
C30   C35   S    
C1    O1    A    
S1    O11   S    
C2    O2    A    
C21   C33   S    
C1    C7    S    
N1    Zn2   S    
C2    C8    S    
N2    Zn1   S    
C20   C22   A    
C5    C8    T    
C6    C7    T    
C25   C27   A    
C13   C37   S    
C26   C28   A    
C17   C25   S    
O3    Zn2   S    
S7    O28   D    
C19   C24   A    
C36   N6    T    
C29   C31   A    
C9    S7    S    
C30   C32   A    
S6    O26   S    
O29   H7    S    
S8    O30   D    
S5    O23   S    
C35   N5    T    
C3    S5    S    
C17   O7    A    
C22   C34   S    
C10   C11   A    
O20   H4    S    
C33   N3    T    
S7    O29   S    
C27   C28   A    
O2    Zn1   S    
C5    C31   S    
C21   C22   A    
C29   C36   S    
