data_mof_unit_48496.cif
_audit_creation_date              2012-12-11T21:05:59-0500
_audit_creation_method            fapswitch 2.2
_symmetry_space_group_name_H-M    P1
_symmetry_Int_Tables_number       1
_space_group_crystal_system       triclinic
_cell_length_a                    36.280886
_cell_length_b                    39.301868
_cell_length_c                    8.683467
_cell_angle_alpha                 91.207963
_cell_angle_beta                  92.807058
_cell_angle_gamma                 89.944436
_cell_volume                      12364.207638

loop_
_atom_site_label
_atom_site_type_symbol
_atom_type_description
_atom_site_fract_x
_atom_site_fract_y
_atom_site_fract_z
_atom_type_partial_charge
Ba1   Ba    Ba6+2 0.000060 0.523150 0.844950 1.744397
Ba2   Ba    Ba6+2 0.000060 0.476850 0.344950 1.729033
Ba3   Ba    Ba6+2 0.500060 0.023150 0.844950 1.771037
Ba4   Ba    Ba6+2 0.500060 0.976850 0.344950 1.741047
C1    C     C_3   0.984321 0.688326 0.678429 -0.060331
C2    C     C_2   0.934463 0.642305 0.362139 -0.068928
C3    C     C_R   0.648513 0.816642 0.794935 0.589486
C4    C     C_2   0.103239 0.624515 0.435601 -0.111214
C5    C     C_2   0.084560 0.360813 0.858177 -0.091379
C6    C     C_2   0.598461 0.130235 0.416777 -0.116259
C7    C     C_2   0.599933 0.871657 0.906298 -0.133261
C8    C     C_3   0.078758 0.594892 0.473096 0.012025
C9    C     C_3   0.050698 0.382630 0.880331 -0.128597
C10   C     C_3   0.575526 0.100333 0.460361 -0.071514
C11   C     C_3   0.562917 0.888922 0.918995 -0.083001
C12   C     C_1   0.080001 0.576446 0.205017 0.001337
C13   C     C_2   0.407570 0.866708 0.792932 -0.054928
C14   C     C_1   0.078026 0.422713 0.695356 -0.024467
C15   C     C_1   0.580477 0.076475 0.203619 -0.015994
C16   C     C_1   0.580770 0.923912 0.701422 -0.032673
C17   C     C_2   0.102941 0.601235 0.170042 -0.050565
C18   C     C_2   0.107900 0.403630 0.684232 -0.142528
C19   C     C_2   0.603397 0.100917 0.164880 -0.080359
C20   C     C_2   0.604467 0.899984 0.659456 -0.072711
C21   C     C_2   0.116486 0.626818 0.292746 0.243473
C22   C     C_2   0.111861 0.370311 0.765869 0.202840
C23   C     C_2   0.613620 0.129747 0.276979 0.249159
C24   C     C_2   0.424563 0.139825 0.335013 -0.106895
C25   C     C_2   0.617917 0.873308 0.772274 0.213459
C26   C     C_R   0.740307 0.288673 0.110852 0.002424
C27   C     C_R   0.774872 0.732640 0.724495 0.003578
C28   C     C_R   0.245262 0.785274 0.136073 0.002470
C29   C     C_R   0.271438 0.231255 0.731247 0.004722
C30   C     C_R   0.774168 0.277677 0.052616 0.040560
C31   C     C_R   0.795263 0.735845 0.591230 0.040864
C32   C     C_R   0.278630 0.774286 0.073378 0.040515
C33   C     C_R   0.286199 0.229875 0.582966 0.042992
C34   C     C_R   0.781015 0.242357 0.030327 0.032205
C35   C     C_3   0.938531 0.388666 0.760606 -0.038531
C36   C     C_R   0.786571 0.762272 0.486642 0.033829
C37   C     C_R   0.285037 0.738976 0.048544 0.032388
C38   C     C_R   0.272469 0.251987 0.466097 0.034620
C39   C     C_3   0.867112 0.514854 0.079862 1.076074
C40   C     C_3   0.854521 0.500175 0.578344 1.044211
C41   C     C_3   0.365812 0.012887 0.084102 1.080991
C42   C     C_3   0.357955 0.998804 0.602816 1.037717
C43   C     C_R   0.733472 0.324006 0.119461 -0.141643
C44   C     C_R   0.787077 0.709144 0.835676 -0.147775
C45   C     C_R   0.238590 0.820626 0.145982 -0.139137
C46   C     C_3   0.960898 0.613961 0.320580 -0.081154
C47   C     C_R   0.284698 0.207456 0.840209 -0.143087
C48   C     C_R   0.843636 0.255938 0.961225 -0.096287
C49   C     C_R   0.828901 0.735917 0.307983 -0.106447
C50   C     C_R   0.347618 0.752395 0.977496 -0.094233
C51   C     C_R   0.311010 0.222049 0.283070 -0.104975
C52   C     C_R   0.257231 0.680753 0.013071 0.391046
C53   C     C_R   0.235710 0.304391 0.398928 0.378653
C54   C     C_R   0.754267 0.183699 0.998872 0.391264
C55   C     C_R   0.758186 0.820502 0.458013 0.396496
C56   C     C_R   0.231512 0.657023 0.058116 -0.094863
C57   C     C_3   0.443289 0.885593 0.773614 -0.050768
C58   C     C_R   0.205078 0.324652 0.426328 -0.071846
C59   C     C_R   0.728890 0.159914 0.045696 -0.099248
C60   C     C_R   0.730387 0.843543 0.496903 -0.099759
C61   C     C_R   0.816962 0.232268 0.994283 -0.088679
C62   C     C_R   0.803000 0.760945 0.342544 -0.089491
C63   C     C_R   0.320724 0.728762 0.009319 -0.088450
C64   C     C_R   0.284035 0.245975 0.314755 -0.101709
C65   C     C_3   0.823364 0.512788 0.063451 -0.046116
C66   C     C_3   0.835482 0.533330 0.634084 0.146977
C67   C     C_3   0.322402 0.007851 0.080466 -0.042207
C68   C     C_3   0.453808 0.114291 0.292714 -0.139761
C69   C     C_3   0.329013 0.027404 0.615933 0.141201
C70   C     C_3   0.122679 0.487795 0.199244 0.668341
C71   C     C_3   0.130289 0.509390 0.703648 0.654369
C72   C     C_3   0.632581 0.995967 0.212645 0.673816
C73   C     C_3   0.627715 0.008833 0.713375 0.669875
C74   C     C_3   0.163643 0.474657 0.200034 0.164800
C75   C     C_3   0.172269 0.500645 0.742570 0.181525
C76   C     C_3   0.675732 0.999267 0.199860 0.148456
C77   C     C_3   0.670173 0.001079 0.735562 0.175023
C78   C     C_3   0.004593 0.654920 0.711583 0.331549
C79   C     C_1   0.923373 0.422946 0.988857 0.017247
C80   C     C_3   0.982065 0.352840 0.098011 0.396423
C81   C     C_3   0.503782 0.152390 0.548104 0.316391
C82   C     C_3   0.491619 0.851588 0.104428 0.357076
C83   C     C_R   0.823264 0.360806 0.000042 0.586279
C84   C     C_R   0.866639 0.667224 0.643697 0.588249
C85   C     C_R   0.327518 0.857421 0.014566 0.596534
C86   C     C_R   0.359771 0.162962 0.633137 0.599164
C87   C     C_3   0.770084 0.485039 0.932994 -0.218129
C88   C     C_3   0.770202 0.523540 0.548638 -0.225235
C89   C     C_3   0.269322 0.986881 0.922031 -0.257661
C90   C     C_1   0.925157 0.576729 0.486245 -0.001214
C91   C     C_3   0.268276 0.012436 0.491437 -0.252732
C92   C     C_3   0.095946 0.452013 0.011681 0.377794
C93   C     C_3   0.146238 0.554066 0.539456 0.225705
C94   C     C_3   0.627848 0.941506 0.100009 0.315285
C95   C     C_3   0.638190 0.060686 0.589746 0.216428
C96   C     C_3   0.158111 0.413598 0.274659 -0.121538
C97   C     C_3   0.181341 0.550138 0.937463 -0.130702
C98   C     C_3   0.698941 0.957319 0.396963 -0.172877
C99   C     C_3   0.679489 0.055734 0.908828 -0.174782
C100  C     C_3   0.223001 0.485030 0.340848 -0.288212
C101  C     C_1   0.426680 0.921124 0.999395 0.048386
C102  C     C_3   0.215858 0.457677 0.841339 -0.262210
C103  C     C_3   0.729728 0.035907 0.267250 -0.219216
C104  C     C_3   0.712800 0.954791 0.820702 -0.202394
C105  C     C_3   0.732520 0.394801 0.940874 -0.188283
C106  C     C_3   0.803320 0.632192 0.906659 -0.212988
C107  C     C_3   0.236867 0.891800 0.967220 -0.180470
C108  C     C_3   0.295626 0.126532 0.868935 -0.233626
C109  C     C_3   0.143299 0.752646 0.577893 -0.180325
C110  C     C_3   0.145004 0.258789 0.069724 -0.193949
C111  C     C_3   0.633277 0.257094 0.533440 -0.198083
C112  C     C_3   0.965327 0.317659 0.120323 0.016137
C113  C     C_1   0.427962 0.076859 0.489357 0.030878
C114  C     C_3   0.630612 0.729090 0.897326 -0.179423
C115  C     C_3   0.266993 0.678120 0.757436 0.146045
C116  C     C_3   0.284788 0.333628 0.319596 0.146243
C117  C     C_3   0.765217 0.179756 0.744545 0.145456
C118  C     C_3   0.813484 0.846623 0.443311 0.139579
C119  C     C_3   0.992894 0.747400 0.608258 -0.252086
C120  C     C_3   0.012393 0.283109 0.995121 -0.195293
C121  C     C_3   0.523244 0.243733 0.455948 -0.218935
C122  C     C_3   0.529385 0.783976 0.019391 -0.151578
C123  C     C_3   0.966943 0.720243 0.169062 0.054784
C124  C     C_2   0.900177 0.399014 0.030884 -0.157249
C125  C     C_3   0.921627 0.306102 0.505429 0.181975
C126  C     C_3   0.442598 0.220330 0.100763 0.109909
C127  C     C_3   0.454642 0.795412 0.595749 0.163794
C128  C     C_3   0.095574 0.692492 0.969640 0.219092
C129  C     C_3   0.059088 0.333488 0.482936 0.306250
C130  C     C_3   0.576053 0.191783 0.950508 0.263210
C131  C     C_3   0.587184 0.824348 0.427571 0.237359
C132  C     C_3   0.860209 0.559642 0.271896 0.081682
C133  C     C_3   0.863243 0.450235 0.727808 0.155272
C134  C     C_3   0.365232 0.057630 0.268791 0.126715
C135  C     C_2   0.904840 0.603029 0.531518 -0.150848
C136  C     C_3   0.397656 0.962578 0.727874 0.319689
C137  C     C_3   0.877372 0.567013 0.958420 0.271482
C138  C     C_3   0.841305 0.459410 0.376695 0.217120
C139  C     C_3   0.357923 0.063243 0.929794 0.238425
C140  C     C_3   0.348733 0.953667 0.407643 0.151973
C141  C     C_2   0.402551 0.897733 0.039370 -0.125947
C142  C     C_2   0.405784 0.101695 0.535390 -0.119134
C143  C     C_2   0.885635 0.373226 0.913492 0.184917
C144  C     C_2   0.907144 0.637452 0.460860 0.189126
C145  C     C_2   0.389918 0.870040 0.926632 0.196258
C146  C     C_2   0.401060 0.134228 0.448738 0.180843
C147  C     C_R   0.801655 0.302068 0.017976 -0.119245
C148  C     C_3   0.496648 0.190590 0.539536 -0.010236
C149  C     C_R   0.824028 0.712116 0.561085 -0.117308
C150  C     C_R   0.306075 0.798653 0.037042 -0.118110
C151  C     C_R   0.314282 0.205478 0.549654 -0.118145
C152  C     C_R   0.794767 0.337427 0.032694 -0.044584
C153  C     C_R   0.835945 0.688525 0.673396 -0.044095
C154  C     C_R   0.299270 0.834027 0.051385 -0.047863
C155  C     C_R   0.328856 0.183820 0.664555 -0.050152
C156  C     C_R   0.759640 0.348102 0.079640 0.212603
C157  C     C_R   0.817006 0.687391 0.812455 0.221738
C158  C     C_R   0.264437 0.844714 0.102197 0.212271
C159  C     C_3   0.477258 0.815482 0.125756 -0.001207
C160  C     C_R   0.311844 0.183457 0.807241 0.233465
C161  C     C_R   0.836154 0.290875 0.968928 -0.026353
C162  C     C_R   0.840383 0.711754 0.417490 -0.021929
C163  C     C_R   0.340483 0.787413 0.987156 -0.015765
C164  C     C_R   0.326889 0.201928 0.399689 -0.017294
C165  C     C_3   0.007046 0.674258 0.135707 0.716501
C166  C     C_3   0.978446 0.331216 0.589077 0.736739
C167  C     C_3   0.481910 0.173854 0.060922 0.908972
C168  C     C_3   0.499189 0.839167 0.609166 0.727800
C169  C     C_2   0.943731 0.419499 0.866343 -0.290054
C170  C     C_R   0.863052 0.314697 0.932058 0.568471
C171  C     C_2   0.946604 0.579374 0.366826 -0.177751
C172  C     C_2   0.450258 0.914737 0.889271 -0.318926
C173  C     C_2   0.450002 0.080324 0.372226 -0.195032
C174  C     C_2   0.060156 0.579749 0.328211 -0.223056
C175  C     C_2   0.049512 0.413682 0.777883 -0.223140
C176  C     C_2   0.559494 0.080450 0.323333 -0.204628
C177  C     C_2   0.559433 0.920224 0.820546 -0.238527
C178  C     C_R   0.219548 0.760646 0.185567 0.019700
C179  C     C_R   0.242657 0.254927 0.763334 0.018849
C180  C     C_R   0.714264 0.264099 0.157324 0.019191
C181  C     C_R   0.866700 0.686389 0.383607 0.561625
C182  C     C_R   0.742608 0.752714 0.741410 0.022591
C183  C     C_R   0.256237 0.714987 0.070198 -0.045480
C184  C     C_R   0.246259 0.277894 0.502117 -0.050337
C185  C     C_R   0.752388 0.218240 0.051393 -0.045488
C186  C     C_R   0.760668 0.788083 0.528113 -0.042920
C187  C     C_R   0.224590 0.725669 0.148686 -0.006245
C188  C     C_R   0.230168 0.278037 0.648723 -0.006446
C189  C     C_R   0.720029 0.229036 0.124586 -0.007229
C190  C     C_R   0.736694 0.781540 0.648680 -0.006450
C191  C     C_R   0.189276 0.769802 0.273794 -0.133461
C192  C     C_R   0.367645 0.811217 0.951497 0.566310
C193  C     C_R   0.225445 0.256016 0.906256 -0.112660
C194  C     C_R   0.682901 0.273421 0.238574 -0.134418
C195  C     C_R   0.715602 0.744348 0.845514 -0.132489
C196  C     C_R   0.163553 0.745808 0.319012 0.206493
C197  C     C_R   0.197475 0.279249 0.938481 0.243794
C198  C     C_R   0.656795 0.249503 0.280292 0.210959
C199  C     C_R   0.683742 0.764056 0.860500 0.209725
C200  C     C_R   0.166703 0.711181 0.272140 -0.057273
C201  C     C_R   0.185881 0.303207 0.827177 -0.032915
C202  C     C_R   0.661008 0.214717 0.238721 -0.049013
C203  C     C_R   0.353827 0.177183 0.366734 0.559856
C204  C     C_R   0.679446 0.794868 0.779203 -0.027288
C205  C     C_R   0.197662 0.701222 0.189067 -0.131596
C206  C     C_R   0.201286 0.301589 0.680914 -0.127657
C207  C     C_R   0.693132 0.204570 0.164065 -0.128309
C208  C     C_R   0.706798 0.804021 0.677720 -0.125110
C209  C     C_R   0.201915 0.666687 0.146805 -0.084704
C210  C     C_R   0.187486 0.323390 0.565692 -0.082122
C211  C     C_R   0.698566 0.169819 0.129352 -0.083505
C212  C     C_R   0.704243 0.835539 0.604585 -0.078136
C213  C     C_3   0.039564 0.696159 0.085258 0.336402
C214  C     C_2   0.901598 0.371547 0.775957 -0.060165
C215  C     C_3   0.006724 0.303838 0.541524 0.282970
C216  C     C_3   0.515393 0.195070 0.017542 0.373832
C217  C     C_3   0.532152 0.819526 0.546728 0.321504
C218  C     C_R   0.175872 0.642416 0.189370 0.575406
C219  C     C_R   0.156649 0.344109 0.592415 0.574548
C220  C     C_R   0.673035 0.145503 0.174861 0.577220
C221  C     C_R   0.676388 0.858977 0.644352 0.578407
C222  C     C_R   0.139597 0.686291 0.303172 0.620110
C223  C     C_R   0.159429 0.328911 0.857608 0.589189
C224  C     C_R   0.633983 0.189753 0.267925 0.584636
H1    H     H_    0.024618 0.659887 0.809241 0.093423
H2    H     H_    0.826454 0.531150 0.753275 0.098329
H3    H     H_    0.255267 0.977824 0.024373 0.107452
H4    H     H_    0.300570 0.053020 0.438117 0.180743
H5    H     H_    0.253411 0.012064 0.376552 0.102775
H6    H     H_    0.251457 0.026768 0.574489 0.084498
H7    H     H_    0.271458 0.985801 0.529526 0.161962
H8    H     H_    0.118173 0.461962 0.945291 -0.084143
H9    H     H_    0.069137 0.460927 0.961638 -0.020355
H10   H     H_    0.100604 0.424537 0.001192 0.031859
H11   H     H_    0.174041 0.543114 0.530701 0.040332
H12   H     H_    0.151528 0.581734 0.549444 0.039090
H13   H     H_    0.306269 0.031706 0.080785 0.029702
H14   H     H_    0.130141 0.548406 0.430844 -0.008207
H15   H     H_    0.651714 0.948388 0.033870 0.014061
H16   H     H_    0.602877 0.944036 0.024823 -0.012424
H17   H     H_    0.632749 0.914729 0.131999 0.049806
H18   H     H_    0.668269 0.056935 0.594433 -0.007475
H19   H     H_    0.635754 0.088407 0.610383 0.043586
H20   H     H_    0.626105 0.053709 0.474584 -0.005224
H21   H     H_    0.191069 0.432219 0.109925 0.197888
H22   H     H_    0.151694 0.388945 0.214786 0.190565
H23   H     H_    0.133956 0.421625 0.339597 0.177622
H24   H     H_    0.312818 0.023072 0.717822 0.088557
H25   H     H_    0.182137 0.409890 0.356945 0.076151
H26   H     H_    0.222138 0.527082 0.807292 0.186463
H27   H     H_    0.192782 0.576014 0.924740 0.131660
H28   H     H_    0.191918 0.540540 0.050021 0.107650
H29   H     H_    0.151048 0.552679 0.934440 0.165372
H30   H     H_    0.720958 0.965780 0.185537 0.184930
H31   H     H_    0.709380 0.930793 0.399347 0.136226
H32   H     H_    0.671555 0.957612 0.447827 0.168610
H33   H     H_    0.718949 0.973532 0.464992 0.075918
H34   H     H_    0.719879 0.026884 0.802384 0.182858
H35   H     H_    0.117161 0.498877 0.312749 0.037729
H36   H     H_    0.679050 0.077859 0.832238 0.104820
H37   H     H_    0.699192 0.062840 0.004727 0.147311
H38   H     H_    0.652345 0.051731 0.957695 0.160210
H39   H     H_    0.174886 0.467529 0.432193 0.202040
H40   H     H_    0.234869 0.492990 0.456220 0.109738
H41   H     H_    0.230744 0.504374 0.256768 0.119450
H42   H     H_    0.234902 0.459961 0.308793 0.112962
H43   H     H_    0.161093 0.450188 0.782616 0.159383
H44   H     H_    0.216733 0.430783 0.877898 0.104664
H45   H     H_    0.231716 0.473381 0.929232 0.118040
H46   H     H_    0.114233 0.505059 0.804889 0.029737
H47   H     H_    0.229217 0.458676 0.729003 0.096968
H48   H     H_    0.684359 0.029446 0.396702 0.176278
H49   H     H_    0.735073 0.063252 0.293936 0.140061
H50   H     H_    0.738154 0.030018 0.148405 0.101683
H51   H     H_    0.746990 0.020546 0.348812 0.094174
H52   H     H_    0.659282 0.948823 0.730768 0.183439
H53   H     H_    0.712209 0.928383 0.863598 0.124083
H54   H     H_    0.727409 0.970862 0.910623 0.104322
H55   H     H_    0.728261 0.954848 0.713870 0.103151
H56   H     H_    0.734349 0.389757 0.177493 0.177266
H57   H     H_    0.623937 0.010733 0.313625 -0.015572
H58   H     H_    0.706776 0.380272 0.911196 0.070901
H59   H     H_    0.751787 0.391763 0.845932 0.130133
H60   H     H_    0.725288 0.422108 0.953052 0.086433
H61   H     H_    0.824839 0.672544 0.036862 0.226452
H62   H     H_    0.773473 0.638663 0.895598 0.074740
H63   H     H_    0.807474 0.616195 0.009671 0.098642
H64   H     H_    0.811242 0.617513 0.802612 0.111754
H65   H     H_    0.239910 0.886383 0.203703 0.179542
H66   H     H_    0.210356 0.878166 0.941889 0.067658
H67   H     H_    0.255121 0.887872 0.869308 0.133935
H68   H     H_    0.614186 0.998678 0.813325 0.020527
H69   H     H_    0.231015 0.919400 0.979405 0.092028
H70   H     H_    0.314508 0.163272 0.024043 0.233075
H71   H     H_    0.266024 0.133610 0.852530 0.084419
H72   H     H_    0.297852 0.107931 0.963170 0.091367
H73   H     H_    0.305168 0.114449 0.761122 0.108616
H74   H     H_    0.125347 0.781126 0.391096 0.177701
H75   H     H_    0.166813 0.769239 0.617803 0.071547
H76   H     H_    0.150339 0.725705 0.602323 0.115010
H77   H     H_    0.118802 0.759718 0.643401 0.096426
H78   H     H_    0.196757 0.267943 0.170164 0.196459
H79   H     H_    0.177073 0.488546 0.108808 0.115241
H80   H     H_    0.149527 0.231680 0.036738 0.068476
H81   H     H_    0.125648 0.270513 0.983071 0.115795
H82   H     H_    0.132143 0.259932 0.183165 0.115175
H83   H     H_    0.617485 0.284865 0.341456 0.173513
H84   H     H_    0.656415 0.273744 0.577022 0.078299
H85   H     H_    0.639868 0.230230 0.561215 0.117367
H86   H     H_    0.607997 0.264488 0.593017 0.089630
H87   H     H_    0.668665 0.745190 0.068129 0.178924
H88   H     H_    0.644537 0.704730 0.868541 0.067200
H89   H     H_    0.616727 0.739329 0.791174 0.131940
H90   H     H_    0.184553 0.495870 0.632056 0.065428
H91   H     H_    0.609241 0.724071 0.981256 0.094462
H92   H     H_    0.263434 0.706087 0.745160 0.030924
H93   H     H_    0.240297 0.664787 0.730777 0.024618
H94   H     H_    0.286593 0.669419 0.670754 0.076598
H95   H     H_    0.304151 0.321014 0.403900 0.030609
H96   H     H_    0.274578 0.358030 0.369204 0.020508
H97   H     H_    0.300512 0.339784 0.217407 0.068042
H98   H     H_    0.761456 0.207602 0.728718 0.032131
H99   H     H_    0.738745 0.166081 0.717442 0.023122
H100  H     H_    0.785295 0.170721 0.660476 0.075377
H101  H     H_    0.679850 0.002757 0.077421 0.121530
H102  H     H_    0.827296 0.828364 0.523717 0.032453
H103  H     H_    0.804263 0.869611 0.507940 0.026172
H104  H     H_    0.834265 0.854937 0.362449 0.068111
H105  H     H_    0.034438 0.715098 0.686656 0.208212
H106  H     H_    0.012048 0.764014 0.548136 0.112438
H107  H     H_    0.987753 0.758997 0.723065 0.099297
H108  H     H_    0.966420 0.745722 0.538634 0.107629
H109  H     H_    0.956272 0.273459 0.988441 0.229568
H110  H     H_    0.021581 0.272107 0.107447 0.124170
H111  H     H_    0.030259 0.304894 0.969233 0.121610
H112  H     H_    0.965290 0.372054 0.158834 0.024661
H113  H     H_    0.681106 0.001687 0.619735 0.034248
H114  H     H_    0.015367 0.263464 0.902774 0.083006
H115  H     H_    0.552748 0.203323 0.549682 0.236527
H116  H     H_    0.548080 0.254059 0.403656 0.148480
H117  H     H_    0.518738 0.257941 0.565420 0.076717
H118  H     H_    0.499246 0.247445 0.373737 0.094001
H119  H     H_    0.474155 0.770298 0.996630 0.214837
H120  H     H_    0.537398 0.773256 0.133570 0.075220
H121  H     H_    0.545958 0.807058 0.999813 0.152982
H122  H     H_    0.535646 0.764919 0.928089 0.096134
H123  H     H_    0.982779 0.741273 0.120167 0.016442
H124  H     H_    0.984042 0.635574 0.742991 0.064148
H125  H     H_    0.973956 0.718337 0.294536 0.028924
H126  H     H_    0.937248 0.726841 0.155422 0.133802
H127  H     H_    0.911166 0.328717 0.442305 0.043261
H128  H     H_    0.897247 0.293052 0.548962 0.086679
H129  H     H_    0.934627 0.287983 0.425118 -0.019451
H130  H     H_    0.459218 0.241368 0.056365 -0.005108
H131  H     H_    0.448749 0.217492 0.226220 0.008476
H132  H     H_    0.413117 0.227608 0.085428 0.116558
H133  H     H_    0.436169 0.809440 0.513304 0.050685
H134  H     H_    0.436643 0.780477 0.668628 0.120018
H135  H     H_    0.980860 0.357941 0.972620 -0.053831
H136  H     H_    0.471877 0.776765 0.534166 -0.019316
H137  H     H_    0.103061 0.718189 0.017649 0.009223
H138  H     H_    0.083809 0.694340 0.849645 0.016059
H139  H     H_    0.121277 0.677317 0.964384 0.049934
H140  H     H_    0.076219 0.340343 0.386291 0.159223
H141  H     H_    0.076687 0.318146 0.563747 -0.014053
H142  H     H_    0.049900 0.357467 0.539058 0.022862
H143  H     H_    0.582791 0.216221 0.012538 0.021129
H144  H     H_    0.568986 0.196447 0.826788 0.019175
H145  H     H_    0.601101 0.175572 0.955731 0.048830
H146  H     H_    0.512825 0.143626 0.433138 -0.025937
H147  H     H_    0.608112 0.842696 0.391345 0.075018
H148  H     H_    0.577559 0.809291 0.323500 0.037810
H149  H     H_    0.600977 0.807465 0.513976 0.001356
H150  H     H_    0.830962 0.561875 0.233264 0.013220
H151  H     H_    0.874141 0.583793 0.247783 0.022895
H152  H     H_    0.859629 0.559041 0.395623 0.077897
H153  H     H_    0.877641 0.436347 0.636668 0.021751
H154  H     H_    0.847807 0.431256 0.791495 0.088306
H155  H     H_    0.883587 0.462845 0.807655 0.075608
H156  H     H_    0.337242 0.063933 0.223985 -0.045608
H157  H     H_    0.492604 0.856162 0.978773 -0.013657
H158  H     H_    0.384665 0.077424 0.236020 0.053899
H159  H     H_    0.362485 0.059733 0.392614 0.058874
H160  H     H_    0.405385 0.955934 0.608856 0.009031
H161  H     H_    0.385127 0.939566 0.774201 -0.002397
H162  H     H_    0.424345 0.970275 0.782844 0.007761
H163  H     H_    0.900628 0.577311 0.031519 0.091879
H164  H     H_    0.850428 0.576187 0.993703 -0.088350
H165  H     H_    0.879398 0.578646 0.845572 0.095275
H166  H     H_    0.819290 0.446374 0.437613 0.043338
H167  H     H_    0.868112 0.446325 0.391371 0.101483
H168  H     H_    0.961936 0.683838 0.589144 0.088764
H169  H     H_    0.832657 0.456757 0.253735 0.065082
H170  H     H_    0.360148 0.084198 0.014837 0.055860
H171  H     H_    0.328780 0.058076 0.898525 -0.070566
H172  H     H_    0.369613 0.075034 0.830265 0.118066
H173  H     H_    0.364767 0.930642 0.437652 0.081702
H174  H     H_    0.364208 0.969946 0.333554 0.125624
H175  H     H_    0.323904 0.944759 0.338859 0.070015
H176  H     H_    0.934897 0.320626 0.120645 0.051502
H177  H     H_    0.472532 0.194713 0.458589 0.043260
H178  H     H_    0.446683 0.816379 0.115042 0.087428
H179  H     H_    0.971483 0.697335 0.785514 0.116909
H180  H     H_    0.477767 0.139590 0.575736 0.022540
H181  H     H_    0.974230 0.307355 0.233687 0.123011
H182  H     H_    0.489544 0.200911 0.654040 0.090736
H183  H     H_    0.484591 0.806344 0.243085 0.077601
H184  H     H_    0.046309 0.715903 0.175949 0.012558
H185  H     H_    0.023510 0.295455 0.644991 -0.062298
H186  H     H_    0.519598 0.216509 0.102395 -0.040575
H187  H     H_    0.545296 0.804959 0.643548 0.001483
H188  H     H_    0.890545 0.398793 0.147215 0.113164
H189  H     H_    0.883007 0.599110 0.607706 0.086810
H190  H     H_    0.391591 0.898605 0.153442 0.112861
H191  H     H_    0.472057 0.869744 0.156581 0.035007
H192  H     H_    0.384936 0.095725 0.614279 0.075955
H193  H     H_    0.113645 0.641246 0.528882 0.088964
H194  H     H_    0.085315 0.336096 0.911259 0.094614
H195  H     H_    0.606390 0.149390 0.504018 0.083448
H196  H     H_    0.609558 0.855544 0.999720 0.111718
H197  H     H_    0.185794 0.795524 0.316365 0.060400
H198  H     H_    0.232189 0.238428 0.996251 0.050898
H199  H     H_    0.678654 0.299236 0.278242 0.059988
H200  H     H_    0.717493 0.721230 0.910515 0.063197
H201  H     H_    0.707042 0.333895 0.150273 0.062175
H202  H     H_    0.811679 0.509072 0.177316 0.101658
H203  H     H_    0.773915 0.707419 0.944175 0.065257
H204  H     H_    0.212438 0.830465 0.180756 0.062158
H205  H     H_    0.273375 0.205417 0.951560 0.055703
H206  H     H_    0.890540 0.354554 0.685620 0.102299
H207  H     H_    0.939186 0.667248 0.318325 0.128830
H208  H     H_    0.398923 0.847449 0.707370 0.097329
H209  H     H_    0.424493 0.163893 0.278025 0.138882
H210  H     H_    0.870560 0.246636 0.931478 0.114309
H211  H     H_    0.840151 0.735742 0.194646 0.114045
H212  H     H_    0.374376 0.742974 0.946176 0.111660
H213  H     H_    0.854799 0.554254 0.639929 -0.159834
H214  H     H_    0.319294 0.219284 0.165371 0.109920
H215  H     H_    0.234034 0.630971 0.016464 0.126166
H216  H     H_    0.196459 0.342939 0.340085 0.145151
H217  H     H_    0.732181 0.133600 0.008858 0.124210
H218  H     H_    0.729485 0.867969 0.441271 0.121076
H219  H     H_    0.111602 0.603385 0.052820 0.121643
H220  H     H_    0.130382 0.412683 0.618336 0.080192
H221  H     H_    0.613573 0.101039 0.049552 0.118941
H222  H     H_    0.612339 0.898641 0.540684 0.149828
H223  H     H_    0.825826 0.206110 0.997270 0.139641
H224  H     H_    0.315210 0.995391 0.188293 0.066039
H225  H     H_    0.794596 0.777794 0.250852 0.138351
H226  H     H_    0.329234 0.702483 0.009345 0.138833
H227  H     H_    0.271567 0.258236 0.215857 0.137383
H228  H     H_    0.967242 0.435832 0.852557 0.075714
H229  H     H_    0.955505 0.556666 0.305758 0.081896
H230  H     H_    0.475370 0.929359 0.884181 0.073116
H231  H     H_    0.466464 0.059041 0.333784 0.086807
H232  H     H_    0.031966 0.570504 0.327556 0.047372
H233  H     H_    0.026284 0.430592 0.788404 0.071707
H234  H     H_    0.530015 0.076151 0.310910 0.039232
H235  H     H_    0.342980 0.052126 0.630551 -0.134112
H236  H     H_    0.536787 0.937499 0.839841 0.065645
H237  H     H_    0.009520 0.671355 0.263345 -0.046649
H238  H     H_    0.991731 0.343713 0.693829 -0.121308
H239  H     H_    0.484686 0.170377 0.187824 -0.308386
H240  H     H_    0.511992 0.857982 0.693362 -0.063744
H241  H     H_    0.030477 0.709347 0.977387 -0.054169
H242  H     H_    0.992450 0.280329 0.499149 0.037357
H243  H     H_    0.509301 0.205749 0.901645 -0.040536
H244  H     H_    0.522529 0.801310 0.454096 -0.028409
H245  H     H_    0.819157 0.461624 0.990021 0.253330
H246  H     H_    0.811388 0.536847 0.019628 0.020559
H247  H     H_    0.762783 0.467123 0.835768 0.125460
H248  H     H_    0.759624 0.510666 0.902326 0.093741
H249  H     H_    0.756536 0.476667 0.037808 0.095163
H250  H     H_    0.799187 0.568620 0.531623 0.175993
H251  H     H_    0.750892 0.528910 0.448996 0.096732
H252  H     H_    0.756838 0.531403 0.655795 0.082719
H253  H     H_    0.775703 0.495775 0.548673 0.155058
H254  H     H_    0.319077 0.961893 0.952632 0.267892
H255  H     H_    0.261728 0.969970 0.821427 0.115571
H256  H     H_    0.259814 0.013054 0.894891 0.103263
N1    N     N_R   0.856673 0.349276 0.948567 -0.427901
N2    N     N_2   0.803813 0.542723 0.534436 -0.434696
N3    N     N_2   0.308917 0.986407 0.951249 -0.402845
N4    N     N_2   0.303799 0.028800 0.480141 -0.431750
N5    N     N_2   0.166955 0.438393 0.161383 -0.441986
N6    N     N_2   0.193867 0.528884 0.812698 -0.444103
N7    N     N_2   0.696386 0.968369 0.239549 -0.434295
N8    N     N_2   0.692741 0.025225 0.831860 -0.451752
N9    N     N_2   0.183243 0.482643 0.345427 -0.460837
N10   N     N_2   0.177895 0.469418 0.826849 -0.437114
N11   N     N_2   0.690915 0.028773 0.283800 -0.440482
N12   N     N_R   0.880287 0.664432 0.496802 -0.432539
N13   N     N_2   0.675335 0.966656 0.791187 -0.456741
N14   N     N_2   0.749605 0.383118 0.084240 -0.379937
N15   N     N_2   0.825551 0.662676 0.926061 -0.354366
N16   N     N_2   0.254580 0.879764 0.108724 -0.379614
N17   N     N_2   0.317819 0.156189 0.910803 -0.356886
N18   N     N_2   0.134944 0.756978 0.414768 -0.379763
N19   N     N_2   0.179825 0.276828 0.081050 -0.369918
N20   N     N_2   0.626932 0.260861 0.368808 -0.386623
N21   N     N_2   0.657114 0.753319 0.964343 -0.383819
N22   N     N_2   0.009233 0.714073 0.626597 -0.393835
N23   N     N_R   0.361088 0.845896 0.964027 -0.426123
N24   N     N_2   0.974240 0.293803 0.997632 -0.392794
N25   N     N_2   0.528650 0.207989 0.485638 -0.383162
N26   N     N_2   0.490349 0.791819 0.009877 -0.391898
N27   N     N_R   0.371489 0.158684 0.483680 -0.429802
N28   N     N_R   0.144341 0.652342 0.261195 -0.418508
N29   N     N_R   0.143188 0.347614 0.738606 -0.426269
N30   N     N_R   0.640529 0.155492 0.238992 -0.426287
N31   N     N_R   0.648211 0.849541 0.737850 -0.422047
N32   N     N_2   0.809706 0.485449 0.960917 -0.398285
O1    O     O_2   0.072110 0.546320 0.923350 -0.442783
O2    O     O_3   0.971752 0.355932 0.473687 -0.612267
O3    O     O_3   0.483440 0.142394 0.980769 -0.552218
O4    O     O_3   0.478927 0.855951 0.489189 -0.606787
O5    O     O_3   0.958050 0.483830 0.034350 -0.472666
O6    O     O_3   0.958050 0.516170 0.534350 -0.437754
O7    O     O_3   0.458050 0.983830 0.034350 -0.475359
O8    O     O_3   0.458050 0.016170 0.534350 -0.462052
O9    O     O_2   0.818368 0.391364 0.016942 -0.608452
O10   O     O_2   0.881730 0.651815 0.749877 -0.550376
O11   O     O_2   0.322222 0.888018 0.026941 -0.594160
O12   O     O_2   0.072110 0.453680 0.423350 -0.399744
O13   O     O_2   0.376921 0.149665 0.740363 -0.533790
O14   O     O_2   0.111250 0.694979 0.363264 -0.562933
O15   O     O_2   0.151481 0.335111 0.990347 -0.577261
O16   O     O_2   0.604240 0.198549 0.315362 -0.570714
O17   O     O_2   0.621401 0.805856 0.855835 -0.605614
O18   O     O_2   0.892477 0.304559 0.886072 -0.584859
O19   O     O_2   0.876944 0.683623 0.252086 -0.596496
O20   O     O_2   0.397468 0.800931 0.910454 -0.621126
O21   O     O_2   0.361084 0.171868 0.232666 -0.605398
O22   O     O_2   0.181560 0.612237 0.164188 -0.644927
O23   O     O_2   0.572110 0.046320 0.923350 -0.405774
O24   O     O_2   0.141409 0.358539 0.483966 -0.640922
O25   O     O_2   0.680053 0.115274 0.159309 -0.638298
O26   O     O_2   0.677682 0.887902 0.596617 -0.647436
O27   O     O_3   0.042000 0.516250 0.155330 -0.468469
O28   O     O_3   0.042000 0.483750 0.655330 -0.480669
O29   O     O_3   0.542000 0.016250 0.155330 -0.471185
O30   O     O_3   0.542000 0.983750 0.655330 -0.477732
O31   O     O_3   0.012540 0.574900 0.645500 -0.473087
O32   O     O_3   0.012540 0.425100 0.145500 -0.461506
O33   O     O_3   0.512540 0.074900 0.645500 -0.468842
O34   O     O_2   0.572110 0.953680 0.423350 -0.376424
O35   O     O_3   0.512540 0.925100 0.145500 -0.472859
O36   O     O_2   0.066548 0.610719 0.786655 -0.475287
O37   O     O_2   0.075068 0.392275 0.201609 -0.456392
O38   O     O_2   0.573521 0.100582 0.781456 -0.430094
O39   O     O_2   0.576575 0.900106 0.247953 -0.447521
O40   O     O_3   0.117672 0.513330 0.089342 -0.719168
O41   O     O_3   0.116127 0.489431 0.576607 -0.697051
O42   O     O_3   0.613683 0.007587 0.076483 -0.699573
O43   O     O_3   0.613233 0.992631 0.576657 -0.675274
O44   O     O_3   0.023475 0.643868 0.582610 -0.630436
O45   O     O_3   0.894352 0.499721 0.597999 -0.632234
O46   O     O_3   0.018349 0.354024 0.162043 -0.563939
O47   O     O_3   0.530313 0.145799 0.666225 -0.584572
O48   O     O_3   0.526478 0.855476 0.180291 -0.575974
O49   O     O_2   0.928110 0.546600 0.766510 -0.461393
O50   O     O_2   0.928110 0.453400 0.266510 -0.437413
O51   O     O_2   0.428110 0.046600 0.766510 -0.440851
O52   O     O_2   0.428110 0.953400 0.266510 -0.467383
O53   O     O_3   0.987780 0.574950 0.044470 -0.454987
O54   O     O_3   0.987780 0.425050 0.544470 -0.451651
O55   O     O_3   0.487780 0.074950 0.044470 -0.450418
O56   O     O_3   0.878378 0.480170 0.078852 -0.665669
O57   O     O_3   0.487780 0.925050 0.544470 -0.454887
O58   O     O_2   0.941265 0.624727 0.998788 -0.444119
O59   O     O_2   0.921375 0.403547 0.447584 -0.517349
O60   O     O_2   0.424768 0.103210 0.979453 -0.436765
O61   O     O_2   0.423659 0.898240 0.453714 -0.524109
O62   O     O_3   0.097601 0.461087 0.168214 -0.614805
O63   O     O_3   0.126265 0.544416 0.668552 -0.659152
O64   O     O_3   0.623498 0.961497 0.235084 -0.613957
O65   O     O_3   0.619811 0.044127 0.706946 -0.628794
O66   O     O_3   0.281785 0.670025 0.905452 -0.657310
O67   O     O_3   0.387314 0.009175 0.511597 -0.660752
O68   O     O_3   0.255282 0.311971 0.271616 -0.654856
O69   O     O_3   0.779440 0.172612 0.894513 -0.658186
O70   O     O_3   0.783830 0.831210 0.357047 -0.656605
O71   O     O_3   0.972913 0.689393 0.087367 -0.658273
O72   O     O_3   0.945450 0.315447 0.633503 -0.655380
O73   O     O_3   0.448184 0.189958 0.015147 -0.647587
O74   O     O_3   0.476317 0.817632 0.693061 -0.683620
O75   O     O_3   0.071010 0.675627 0.063432 -0.617363
O76   O     O_3   0.028686 0.314634 0.422012 -0.648186
O77   O     O_3   0.547363 0.174440 0.019734 -0.614406
O78   O     O_3   0.378457 0.978971 0.058792 -0.653819
O79   O     O_3   0.557762 0.842635 0.490365 -0.626443
O80   O     O_3   0.880748 0.530797 0.221071 -0.681033
O81   O     O_3   0.838186 0.474505 0.668104 -0.701182
O82   O     O_3   0.379191 0.024995 0.230486 -0.683330
O83   O     O_3   0.372868 0.989873 0.746980 -0.660851
O84   O     O_3   0.880380 0.530958 0.949036 -0.686694
O85   O     O_3   0.844444 0.494371 0.419320 -0.668551
O86   O     O_3   0.379172 0.033821 0.966643 -0.619590
O87   O     O_3   0.337066 0.969969 0.542786 -0.692406
O88   O     O_3   0.010109 0.641757 0.065341 -0.594928
P1    P     P_3+3 0.075650 0.535480 0.098240 0.988507
P2    P     P_3+3 0.954088 0.393438 0.557948 0.963832
P3    P     P_3+3 0.460686 0.110387 0.077433 1.077488
P4    P     P_3+3 0.456982 0.891770 0.567443 0.951905
P5    P     P_3+3 0.039855 0.390030 0.093543 0.973464
P6    P     P_3+3 0.046385 0.605590 0.625977 0.996697
P7    P     P_3+3 0.545815 0.893514 0.121653 0.982044
P8    P     P_3+3 0.547925 0.104928 0.635883 1.030093
P9    P     P_3+3 0.075650 0.464520 0.598240 0.964282
P10   P     P_3+3 0.575650 0.035480 0.098240 0.997199
P11   P     P_3+3 0.575650 0.964520 0.598240 1.009786
P12   P     P_3+3 0.924520 0.535770 0.591580 1.043169
P13   P     P_3+3 0.924520 0.464230 0.091580 1.058697
P14   P     P_3+3 0.424520 0.035770 0.591580 1.029365
P15   P     P_3+3 0.424520 0.964230 0.091580 1.065650
P16   P     P_3+3 0.973909 0.614885 0.111173 0.993456

loop_
_geom_bond_atom_site_label_1
_geom_bond_atom_site_label_2
_ccdc_geom_bond_type
C40   O45   S    
C38   C64   A    
C149  C162  A    
C123  H126  S    
C110  H81   S    
C92   H9    S    
C35   C214  S    
C133  H154  S    
C166  H238  S    
C123  H123  S    
C50   C163  A    
C80   H135  S    
C57   P4    S    
C37   C63   A    
C101  P15   S    
H43   N10   S    
C179  C193  A    
H245  N32   S    
C91   H7    S    
C65   N32   S    
C150  C154  A    
C74   N9    S    
O36   P6    D    
C7    H196  S    
C148  H182  S    
C189  C207  A    
C65   H202  S    
C158  N16   S    
C180  C189  A    
Ba4   P11   S    
Ba2   O32   S    
C37   C183  A    
C220  N30   Am   
C219  O24   D    
C33   C38   A    
C23   N30   S    
C5    C9    S    
C100  H41   S    
C203  N27   Am   
Ba3   O8    S    
C13   C57   S    
C85   O11   D    
C68   P3    S    
C7    C11   S    
O61   P4    D    
C119  H106  S    
C206  C210  A    
O2    P2    S    
C114  N21   S    
C97   H29   S    
H87   N21   S    
C128  H137  S    
C134  H158  S    
C40   C66   S    
C139  H172  S    
C198  N20   S    
C79   C124  D    
C94   H16   S    
C167  C216  S    
C69   H24   S    
C70   H35   S    
C125  H127  S    
C122  H121  S    
C120  N24   S    
C107  H66   S    
C83   O9    D    
C129  O76   S    
C90   C135  D    
C58   C210  A    
C146  N27   S    
C22   N29   S    
C51   C164  A    
C139  H171  S    
C121  H116  S    
C113  C173  D    
C5    C22   D    
C51   C64   A    
C186  C190  A    
C136  H161  S    
C81   H146  S    
C137  H164  S    
C77   N8    S    
C108  H71   S    
C7    C25   D    
C126  H130  S    
O51   P14   D    
O29   P10   S    
C94   H17   S    
C98   H33   S    
C75   N10   S    
Ba1   O28   S    
C205  C209  A    
C113  C142  D    
C145  N23   S    
C15   C19   D    
C107  N16   S    
C209  C218  A    
C3    N31   Am   
Ba4   O35   S    
C204  C208  A    
C115  H94   S    
C118  O70   S    
C214  H206  S    
C117  O69   S    
H52   N13   S    
C139  O86   S    
Ba1   P12   S    
C188  C206  A    
O41   P9    S    
C134  H156  S    
C76   N11   S    
C78   H1    S    
C180  C194  A    
C27   C44   A    
Ba2   O50   S    
C148  N25   S    
C182  C195  A    
C17   H219  S    
C29   C47   A    
H78   N19   S    
C84   N12   Am   
C131  H147  S    
C33   C151  A    
Ba1   O31   S    
C42   O83   S    
C51   H214  S    
C77   N13   S    
C87   H248  S    
C223  O15   D    
C195  H200  S    
C87   N32   S    
O50   P13   D    
Ba3   O23   S    
C199  N21   S    
C102  H47   S    
C11   P7    S    
C6    H195  S    
C173  H231  S    
C124  C143  S    
C50   C63   A    
H119  N26   S    
C56   H215  S    
H48   N11   S    
C222  O14   D    
C220  O25   D    
C41   O82   S    
C69   H235  S    
C47   H205  S    
C73   H68   S    
C1    C78   S    
C130  H144  S    
C216  O77   S    
C116  H96   S    
C176  H234  S    
C9    C175  S    
C128  H139  S    
C98   H32   S    
Ba4   O34   S    
C99   H37   S    
C100  N9    S    
C190  C208  A    
C125  H129  S    
C49   C162  A    
O58   P16   D    
C119  N22   S    
C140  H174  S    
C196  N18   S    
C112  H176  S    
C120  H114  S    
C82   C159  S    
Ba2   O5    S    
C103  N11   S    
C10   C176  S    
C48   C61   A    
H254  N3    S    
C54   O69   S    
Ba3   O55   S    
C6    C23   D    
C8    C174  S    
C106  H63   S    
C66   N2    S    
C132  H151  S    
C12   C17   D    
C129  H140  S    
C127  H136  S    
C41   C67   S    
C88   N2    S    
C19   H221  S    
O45   P12   S    
C66   H2    S    
C35   P2    S    
C121  N25   S    
O42   P10   S    
O59   P2    D    
C112  H181  S    
C43   H201  S    
C17   C21   S    
C1    H168  S    
C39   O84   S    
C28   C32   A    
C13   H208  S    
C84   O10   D    
C97   H27   S    
O38   P8    D    
C50   H212  S    
C117  H98   S    
O49   P12   D    
C74   H79   S    
C124  H188  S    
C86   C155  A    
C85   N23   Am   
C93   H14   S    
C73   O65   S    
O88   P16   S    
C168  H240  S    
C121  H117  S    
C194  C198  A    
C52   C183  A    
C82   H157  S    
C168  C217  S    
C218  N28   Am   
C165  O71   S    
C115  O66   S    
C8    P6    S    
C196  C200  A    
C90   C171  D    
C221  O26   D    
C116  H97   S    
C119  H107  S    
C39   C65   S    
H65   N16   S    
C142  C146  S    
Ba4   O52   S    
C46   P16   S    
C89   H256  S    
C102  H45   S    
O55   P3    S    
C74   N5    S    
C12   C174  D    
C88   H251  S    
C93   H11   S    
Ba4   P15   S    
C135  C144  S    
C107  H67   S    
C26   C30   A    
C151  C155  A    
C152  C156  A    
C102  N10   S    
C118  H104  S    
C136  H160  S    
Ba3   O30   S    
C161  C170  A    
C147  C161  A    
Ba4   O57   S    
C101  C172  D    
C45   H204  S    
C79   P13   S    
C137  H165  S    
C46   C171  S    
C61   H223  S    
C86   N27   Am   
O34   P11   D    
C49   C62   A    
C174  H232  S    
C48   C161  A    
C34   C61   A    
C4    C8    S    
C70   O62   S    
C73   O43   S    
C126  O73   S    
O78   P15   S    
C2    C46   S    
C55   O70   S    
C42   O67   S    
C18   C22   S    
C113  P14   S    
C187  C205  A    
C105  H58   S    
C131  H149  S    
C193  H198  S    
C49   H211  S    
C127  H134  S    
O7    P15   S    
C215  H185  S    
C148  H177  S    
C95   H19   S    
Ba3   Ba4   S    
C219  N29   Am   
C166  C215  S    
O47   P8    S    
C114  H88   S    
O46   P5    S    
C66   H213  S    
C110  H82   S    
C92   H10   S    
C182  C190  A    
C133  H153  S    
Ba1   O6    S    
C31   C149  A    
O60   P3    D    
C48   H210  S    
C119  H108  S    
O1    P1    D    
Ba2   O54   S    
C117  H100  S    
C170  N1    Am   
H105  N22   S    
C87   H249  S    
O3    P3    S    
C199  C204  A    
O48   P7    S    
C184  C188  A    
C89   N3    S    
C82   O48   S    
C213  H184  S    
C191  H197  S    
C169  H228  S    
O8    P14   S    
C76   N7    S    
C89   H3    S    
C71   C75   S    
C201  C206  A    
C109  H76   S    
C131  H148  S    
C21   N28   S    
C78   O44   S    
C215  H242  S    
O37   P5    D    
C53   O68   S    
C9    P5    S    
C100  H42   S    
C28   C45   A    
C81   H180  S    
C78   H124  S    
C210  C219  A    
C65   H246  S    
C185  C189  A    
H30   N7    S    
C88   H252  S    
C91   N4    S    
C171  H229  S    
Ba1   P1    S    
C141  H190  S    
C217  H187  S    
C197  C201  A    
C83   C152  A    
C178  C191  A    
C112  N24   S    
C59   H217  S    
C103  H50   S    
C42   C69   S    
C104  H53   S    
C109  N18   S    
C6    C10   S    
C16   C177  D    
C168  O4    S    
C159  N26   S    
C165  C213  S    
C122  H122  S    
H70   N17   S    
C192  O20   D    
C167  H239  S    
C41   O78   S    
C35   C169  S    
C96   H23   S    
C165  H237  S    
C211  C220  A    
C118  H102  S    
C92   O62   S    
C215  O76   S    
C32   C37   A    
C138  H169  S    
C32   C150  A    
C130  O77   S    
C136  H162  S    
C24   C146  D    
C137  H163  S    
C132  H150  S    
C12   P1    S    
C108  H72   S    
C126  H131  S    
O39   P7    D    
C88   H253  S    
C203  O21   D    
C18   H220  S    
C115  H92   S    
C128  O75   S    
C179  C188  A    
C111  H86   S    
Ba1   O49   S    
C20   C25   S    
H34   N8    S    
C144  N12   S    
C105  H60   S    
Ba3   O51   S    
C115  H93   S    
C200  C205  A    
C60   H218  S    
C194  H199  S    
O32   P5    S    
C91   H6    S    
C129  H142  S    
O31   P6    S    
C166  O2    S    
C36   C62   A    
C195  C199  A    
C39   O80   S    
C143  N1    S    
C67   H224  S    
C213  O75   S    
C57   C172  S    
H56   N14   S    
C105  N14   S    
C192  N23   Am   
C86   O13   D    
C87   H247  S    
C62   H225  S    
O43   P11   S    
C72   C76   S    
C53   C58   A    
C218  O22   D    
C147  C152  A    
H74   N18   S    
C99   H36   S    
C97   N6    S    
C223  N29   Am   
C134  O82   S    
C82   H191  S    
Ba2   P9    S    
C125  O72   S    
C69   N4    S    
C29   C33   A    
C52   C56   A    
Ba2   O27   S    
C14   P9    S    
C30   C34   A    
C118  H103  S    
C120  H111  S    
Ba1   O53   S    
C2    H207  S    
C167  O73   S    
C130  H145  S    
C166  O72   S    
C73   C77   S    
C151  C164  A    
C63   H226  S    
C101  C141  D    
C93   O63   S    
C168  O74   S    
C108  H73   S    
C164  C203  A    
C84   C153  A    
C94   H15   S    
C104  H55   S    
C39   O56   S    
C125  H128  S    
C5    H194  S    
C122  H120  S    
H83   N20   S    
C27   C31   A    
C181  N12   Am   
H39   N9    S    
C178  C187  A    
C4    C21   D    
C40   O81   S    
Ba2   O6    S    
C153  C157  A    
C165  O88   S    
O44   P6    S    
C138  H167  S    
C38   C184  A    
C106  H64   S    
Ba4   O29   S    
C132  H152  S    
C116  O68   S    
O30   P11   S    
O27   P1    S    
C170  O18   D    
C71   O63   S    
C44   C157  A    
C71   O41   S    
C114  H91   S    
Ba2   P13   S    
C212  C221  A    
C136  O83   S    
C44   H203  S    
C14   C18   D    
C111  H84   S    
C81   C148  S    
C143  C214  D    
C11   C177  S    
C222  N28   Am   
C159  H183  S    
C201  C223  A    
C149  C153  A    
C77   H113  S    
C216  H243  S    
C70   C74   S    
O67   P14   S    
C55   C186  A    
C80   H112  S    
C59   C211  A    
C83   N1    Am   
C24   C68   S    
C15   C176  D    
C75   H90   S    
C141  C145  S    
C40   O85   S    
C207  C211  A    
C3    O17   D    
C102  H44   S    
C159  H178  S    
C162  C181  A    
C163  C192  A    
C89   H255  S    
C110  N19   S    
O4    P4    S    
C20   H222  S    
C103  H51   S    
O57   P4    S    
C85   C154  A    
C122  N26   S    
C16   P11   S    
C217  H244  S    
C167  O3    S    
C160  N17   S    
C55   C60   A    
Ba1   O1    S    
O35   P7    S    
C28   C178  A    
Ba1   Ba2   S    
C96   H22   S    
C15   P10   S    
C130  H143  S    
C116  H95   S    
O5    P13   S    
C98   H31   S    
C58   H216  S    
C111  N20   S    
C99   H38   S    
C53   C184  A    
O40   P1    S    
C1    N22   S    
C208  C212  A    
C75   N6    S    
C140  H173  S    
C107  H69   S    
C29   C179  A    
C109  H77   S    
C193  C197  A    
C19   C23   S    
C139  H170  S    
Ba2   O12   S    
C183  C187  A    
C1    H179  S    
C34   C185  A    
C106  H62   S    
C127  H133  S    
C80   O46   S    
C123  O71   S    
C68   C173  S    
C224  O16   D    
C111  H85   S    
C202  C207  A    
H21   N5    S    
C43   C156  A    
Ba3   P14   S    
C114  H89   S    
C157  N15   S    
C24   H209  S    
C4    H193  S    
C31   C36   A    
C134  H159  S    
C16   C20   D    
C26   C43   A    
C47   C160  A    
C97   H28   S    
Ba1   O5    S    
C131  O79   S    
C67   H13   S    
C213  H241  S    
C67   N3    S    
C117  H99   S    
C42   O87   S    
C156  N14   S    
C132  O80   S    
C95   H18   S    
C56   C209  A    
C175  H233  S    
O52   P15   D    
C197  N19   S    
C2    C144  D    
C70   O40   S    
C135  H189  S    
C109  H75   S    
C121  H118  S    
O53   P16   S    
C54   C185  A    
C72   O42   S    
C92   H8    S    
C138  O85   S    
Ba4   O7    S    
C41   O86   S    
Ba3   O33   S    
C45   C158  A    
C25   N31   S    
C120  H110  S    
C64   H227  S    
C216  H186  S    
C14   C175  D    
C79   C169  D    
C71   H46   S    
C202  C224  A    
H26   N6    S    
C224  N30   Am   
C72   H57   S    
H61   N15   S    
Ba4   O8    S    
H109  N24   S    
C103  H49   S    
C104  H54   S    
Ba3   P10   S    
C140  O87   S    
C191  C196  A    
C54   C59   A    
C123  H125  S    
C93   H12   S    
C221  N31   Am   
C128  H138  S    
C155  C160  A    
C127  O74   S    
C26   C180  A    
C106  N15   S    
C60   C212  A    
C13   C145  D    
C100  H40   S    
C3    C204  A    
C104  N13   S    
C217  O79   S    
C138  H166  S    
C30   C147  A    
C10   P8    S    
C99   N8    S    
C91   H5    S    
O23   P10   D    
C52   O66   S    
C76   H101  S    
C126  H132  S    
C81   O47   S    
C129  H141  S    
C95   O65   S    
O6    P12   S    
O54   P2    S    
C94   O64   S    
C98   N7    S    
C133  H155  S    
C96   N5    S    
C142  H192  S    
C140  H175  S    
C181  O19   D    
C27   C182  A    
C137  O84   S    
C110  H80   S    
C108  N17   S    
C150  C163  A    
H4    N4    S    
C154  C158  A    
C90   P12   S    
C105  H59   S    
C172  H230  S    
O12   P9    D    
H115  N25   S    
C177  H236  S    
C36   C186  A    
H250  N2    S    
C80   C112  S    
C198  C202  A    
Ba3   O7    S    
O28   P9    S    
C72   O64   S    
C133  O81   S    
C95   H20   S    
C200  C222  A    
O33   P8    S    
O56   P13   S    
C96   H25   S    
