data_mof_unit_50658.cif
_audit_creation_date              2012-12-10T18:13:49-0500
_audit_creation_method            fapswitch 2.2
_symmetry_space_group_name_H-M    P1
_symmetry_Int_Tables_number       1
_space_group_crystal_system       triclinic
_cell_length_a                    10.728139
_cell_length_b                    9.423446
_cell_length_c                    23.516461
_cell_angle_alpha                 89.979475
_cell_angle_beta                  90.156271
_cell_angle_gamma                 90.059681
_cell_volume                      2377.41076512

loop_
_atom_site_label
_atom_site_type_symbol
_atom_type_description
_atom_site_fract_x
_atom_site_fract_y
_atom_site_fract_z
_atom_type_partial_charge
C1    C     C_R   0.259912 0.499812 0.499669 0.869569
C2    C     C_R   0.277965 0.589949 0.969983 -0.162081
C3    C     C_R   0.277838 0.589987 0.029325 -0.160840
C4    C     C_R   0.383442 0.544895 0.059804 -0.016325
C5    C     C_R   0.489892 0.499267 0.030043 -0.017656
C6    C     C_R   0.596245 0.453687 0.060156 -0.014509
C7    C     C_R   0.701990 0.408591 0.030072 -0.160778
C8    C     C_R   0.702146 0.408651 0.970756 -0.162427
C9    C     C_R   0.385500 0.543872 0.119473 0.535982
C10   C     C_R   0.594063 0.454852 0.119786 0.534068
C11   C     C_R   0.492323 0.371079 0.238981 -0.103940
C12   C     C_R   0.498730 0.500009 0.390955 0.831904
C13   C     C_R   0.494907 0.371095 0.298245 -0.224039
C14   C     C_R   0.495515 0.499929 0.328371 -0.052735
C15   C     C_R   0.492344 0.628583 0.298114 -0.181496
C16   C     C_R   0.489608 0.628242 0.238835 -0.105027
C17   C     C_R   0.490010 0.499567 0.209079 0.352532
C18   C     C_R   0.488796 0.628162 0.761142 -0.106523
C19   C     C_R   0.491521 0.628483 0.701875 -0.249939
C20   C     C_R   0.496353 0.499877 0.671680 -0.037085
C21   C     C_R   0.497791 0.371098 0.701864 -0.217061
C22   C     C_R   0.495185 0.371094 0.761122 -0.105537
C23   C     C_R   0.740052 0.499866 0.499817 0.800387
C24   C     C_R   0.490959 0.499547 0.790969 0.357905
C25   C     C_3   0.069889 0.589857 0.448625 0.321546
C26   C     C_3   0.073651 0.570519 0.555407 0.309815
C27   C     C_3   0.926105 0.578564 0.445782 -0.459335
C28   C     C_3   0.928721 0.572744 0.554075 -0.425818
C29   C     C_3   0.070359 0.344330 0.498860 -0.376941
C30   C     C_3   0.122231 0.499388 0.499683 -0.037231
C31   C     C_3   0.877990 0.499420 0.499377 0.042834
C32   C     C_3   0.927990 0.344945 0.497730 -0.392736
C33   C     C_3   0.626219 0.083952 0.513705 -0.310265
C34   C     C_3   0.626185 0.916256 0.513811 -0.306200
C35   C     C_3   0.416361 0.083481 0.545701 -0.233841
C36   C     C_3   0.416261 0.916297 0.545671 -0.250509
C37   C     C_3   0.462381 0.083968 0.444781 0.365797
C38   C     C_3   0.462699 0.915930 0.444733 0.366932
C39   C     C_R   0.499064 0.499977 0.609093 0.811319
C40   C     C_R   0.594678 0.455028 0.880655 0.533163
C41   C     C_R   0.386018 0.543761 0.880221 0.531570
C42   C     C_R   0.383711 0.544855 0.939882 -0.012926
C43   C     C_R   0.490035 0.499279 0.970024 -0.017791
C44   C     C_R   0.596548 0.453771 0.940292 -0.014879
Cu1   Cu    Cu3+1 0.499860 0.642410 0.500030 0.939083
Cu2   Cu    Cu3+1 0.499860 0.357590 0.500030 0.934793
H1    H     H_    0.195012 0.625384 0.947820 0.190383
H2    H     H_    0.489954 0.729311 0.679800 0.144513
H3    H     H_    0.501229 0.270369 0.679791 0.144532
H4    H     H_    0.496551 0.271268 0.783937 0.140495
H5    H     H_    0.088146 0.702479 0.460376 0.098182
H6    H     H_    0.107476 0.682996 0.555820 0.039058
H7    H     H_    0.885616 0.687250 0.443835 0.149095
H8    H     H_    0.896020 0.684742 0.555653 0.125312
H9    H     H_    0.894116 0.523267 0.406694 0.181636
H10   H     H_    0.890699 0.518409 0.592342 0.196412
H11   H     H_    0.105866 0.281141 0.462796 0.157140
H12   H     H_    0.102178 0.285961 0.537405 0.211491
H13   H     H_    0.894698 0.290094 0.458590 0.162992
H14   H     H_    0.892706 0.283884 0.534934 0.182594
H15   H     H_    0.660285 0.123821 0.555495 0.175868
H16   H     H_    0.659915 0.876696 0.555705 0.175733
H17   H     H_    0.194791 0.625449 0.051192 0.191355
H18   H     H_    0.694305 0.121287 0.481406 0.144423
H19   H     H_    0.694540 0.878753 0.481690 0.145366
H20   H     H_    0.446946 0.120444 0.588399 0.160515
H21   H     H_    0.446681 0.879228 0.588377 0.158045
H22   H     H_    0.533484 0.117069 0.413012 0.082400
H23   H     H_    0.534346 0.883561 0.413126 0.078322
H24   H     H_    0.319948 0.124031 0.541019 0.140734
H25   H     H_    0.319801 0.875673 0.540991 0.129731
H26   H     H_    0.784954 0.373155 0.052228 0.191237
H27   H     H_    0.785227 0.373257 0.948898 0.190568
H28   H     H_    0.492260 0.271229 0.216203 0.145606
H29   H     H_    0.496712 0.270326 0.320362 0.172859
H30   H     H_    0.492280 0.729458 0.320141 0.173684
H31   H     H_    0.488100 0.727952 0.215942 0.144731
H32   H     H_    0.485861 0.727868 0.783973 0.141943
N1    N     N_R   0.490452 0.499389 0.851961 -0.469123
N2    N     N_R   0.489753 0.499361 0.148096 -0.469645
N3    N     N_3   0.500250 0.143650 0.501250 -0.150163
N4    N     N_3   0.500250 0.856350 0.501250 -0.151694
O1    O     O_R   0.317570 0.620260 0.500030 -0.577861
O2    O     O_R   0.317570 0.379740 0.500030 -0.569179
O3    O     O_R   0.499840 0.620290 0.417900 -0.548736
O4    O     O_R   0.499840 0.379710 0.417900 -0.564988
O5    O     O_R   0.682190 0.620260 0.500010 -0.601080
O6    O     O_R   0.682190 0.379740 0.500010 -0.603100
O7    O     O_R   0.499920 0.620230 0.582140 -0.597426
O8    O     O_R   0.499920 0.379770 0.582140 -0.588138
O9    O     O_2   0.696473 0.413385 0.851515 -0.536473
O10   O     O_2   0.284534 0.585619 0.850648 -0.544169
O11   O     O_2   0.283974 0.585969 0.148693 -0.528399
O12   O     O_2   0.695623 0.412957 0.149302 -0.534547
O13   O     O_3   0.130435 0.577335 0.394964 -0.550795
C45   C     C_3   0.132795 0.438762 0.372495 -0.227157
H33   H     H_    0.044346 0.379702 0.378358 0.140429
H34   H     H_    0.213339 0.379417 0.390044 0.189223
H35   H     H_    0.148206 0.446729 0.325986 0.202928
O14   O     O_3   0.116614 0.493242 0.603565 -0.577592
C46   C     C_3   0.145084 0.585772 0.648924 -0.293625
H36   H     H_    0.063345 0.652431 0.660349 0.163530
H37   H     H_    0.226663 0.653653 0.638264 0.150946
H38   H     H_    0.170507 0.521417 0.686716 0.214986
O15   O     O_3   0.349457 0.142362 0.425044 -0.713329
H39   H     H_    0.281395 0.113770 0.450823 0.303378
O16   O     O_3   0.350289 0.856639 0.424586 -0.668119
H40   H     H_    0.282072 0.881254 0.450907 0.310233

loop_
_geom_bond_atom_site_label_1
_geom_bond_atom_site_label_2
_ccdc_geom_bond_type
C45   H35   S    
C46   H36   S    
O13   C45   S    
C41   C42   A    
Cu1   N4    S    
C21   H3    S    
C35   N3    S    
C36   H21   S    
C7    C8    A    
Cu1   Cu2   S    
C1    O2    A    
C37   C38   S    
C12   O3    A    
C18   C24   A    
Cu1   O5    S    
C18   C19   A    
C29   C32   S    
C5    C6    A    
C27   H9    S    
C10   O12   S    
C15   C16   A    
C37   H22   S    
C34   H16   S    
C16   H31   S    
C38   O16   S    
C8    H27   S    
C19   C20   A    
C35   H24   S    
C36   N4    S    
C16   C17   A    
C45   H34   S    
O16   H40   S    
Cu1   O7    S    
C39   O8    A    
C36   H25   S    
C22   H4    S    
C15   H30   S    
C5    C43   A    
C38   H23   S    
C46   H37   S    
C23   O5    A    
C21   C22   A    
C38   N4    S    
C37   N3    S    
Cu1   O1    S    
C34   H19   S    
Cu2   O6    S    
C28   H10   S    
C27   C31   S    
C13   H29   S    
C9    N2    A    
C7    H26   S    
C20   C39   S    
C10   N2    A    
C19   H2    S    
C35   H20   S    
C17   N2    S    
C35   C36   S    
C23   C31   S    
Cu1   O3    S    
C43   C44   A    
C25   H5    S    
C37   O15   S    
C29   C30   S    
C26   H6    S    
Cu2   N3    S    
C24   N1    S    
C31   C32   S    
C18   H32   S    
C45   H33   S    
C33   C34   S    
C40   N1    A    
C20   C21   A    
Cu2   O2    S    
C29   H11   S    
C25   O13   S    
C46   H38   S    
C23   O6    A    
C22   C24   A    
C1    O1    A    
C42   C43   A    
C32   H14   S    
C3    C4    A    
C9    O11   S    
C25   C30   S    
C11   C17   A    
C28   H8    S    
C28   C31   S    
C8    C44   A    
C12   C14   S    
C4    C5    A    
C11   H28   S    
C41   N1    A    
C27   H7    S    
C26   C30   S    
C6    C7    A    
Cu2   O8    S    
C3    H17   S    
C2    H1    S    
C25   C27   S    
O15   H39   S    
C26   C28   S    
C12   O4    A    
C2    C3    A    
C11   C13   A    
C2    C42   A    
C33   H18   S    
C1    C30   S    
C40   O9    S    
C6    C10   A    
C40   C44   A    
C41   O10   S    
C29   H12   S    
C33   H15   S    
C14   C15   A    
O14   C46   S    
C34   N4    S    
C32   H13   S    
C4    C9    A    
C13   C14   A    
C33   N3    S    
C39   O7    A    
C26   O14   S    
Cu2   O4    S    
