data_mof_unit_23374.cif
_audit_creation_date              2012-12-11T14:33:55-0500
_audit_creation_method            fapswitch 2.2
_symmetry_space_group_name_H-M    P1
_symmetry_Int_Tables_number       1
_space_group_crystal_system       triclinic
_cell_length_a                    14.04053
_cell_length_b                    14.031245
_cell_length_c                    27.19606
_cell_angle_alpha                 90.519902
_cell_angle_beta                  89.89285
_cell_angle_gamma                 120.345361
_cell_volume                      4623.53743315

loop_
_atom_site_label
_atom_site_type_symbol
_atom_type_description
_atom_site_fract_x
_atom_site_fract_y
_atom_site_fract_z
_atom_type_partial_charge
C1    C     C_R   0.233157 0.788829 0.568106 0.563175
C2    C     C_R   0.211724 0.445031 0.568256 0.573371
C3    C     C_R   0.554637 0.767027 0.568240 0.561867
C4    C     C_3   0.687666 0.749925 0.784326 0.126164
C5    C     C_3   0.270890 0.920468 0.788604 0.130439
C6    C     C_3   0.081642 0.339226 0.788102 0.125767
C7    C     C_3   0.660812 0.736115 0.728677 -0.154174
C8    C     C_3   0.278281 0.918027 0.731667 -0.152205
C9    C     C_3   0.087418 0.354516 0.731655 -0.159886
C10   C     C_1   0.776626 0.888962 0.851476 0.002283
C11   C     C_1   0.137312 0.851871 0.858615 -0.002514
C12   C     C_1   0.153193 0.281894 0.858342 -0.002095
C13   C     C_1   0.652222 0.829190 0.654167 -0.007236
C14   C     C_1   0.177328 0.825715 0.655383 -0.015925
C15   C     C_1   0.179617 0.351614 0.655151 -0.009159
C16   C     C_1   0.613484 0.805103 0.613530 0.040597
C17   C     C_1   0.197794 0.811592 0.613862 0.037051
C18   C     C_1   0.190744 0.386818 0.613888 0.040591
C19   C     C_R   0.105520 0.221331 0.088702 0.546797
C20   C     C_R   0.776597 0.883798 0.087509 0.562077
C21   C     C_R   0.086402 0.935233 0.096031 0.568132
C22   C     C_R   0.106869 0.219100 0.950476 0.553233
C23   C     C_R   0.840804 0.909399 0.943659 0.564952
C24   C     C_R   0.113082 0.892658 0.950743 0.568752
C25   C     C_R   0.634677 0.900176 0.362759 -0.129902
C26   C     C_R   0.092826 0.738919 0.364630 -0.140655
C27   C     C_R   0.316335 0.470759 0.348977 -0.129817
C28   C     C_R   0.660212 0.915851 0.312698 0.019456
C29   C     C_R   0.066996 0.762295 0.318156 0.019488
C30   C     C_R   0.308002 0.446592 0.298666 0.016976
C31   C     C_R   0.695729 0.937655 0.210811 0.016694
C32   C     C_R   0.028199 0.803345 0.221264 0.012878
C33   C     C_R   0.273990 0.371429 0.200698 0.016936
C34   C     C_R   0.232890 0.788124 0.431690 0.534655
C35   C     C_R   0.237107 0.501486 0.425967 0.560341
C36   C     C_R   0.554924 0.766519 0.431625 0.533119
C37   C     C_R   0.696522 0.023050 0.238374 -0.125238
C38   C     C_R   0.953616 0.704263 0.244464 -0.126422
C39   C     C_R   0.366787 0.387004 0.226606 -0.118603
C40   C     C_R   0.676892 0.011365 0.288939 -0.128457
C41   C     C_R   0.972748 0.683880 0.292577 -0.133085
C42   C     C_R   0.382887 0.422596 0.275574 -0.120641
C43   C     C_R   0.719350 0.949907 0.160597 -0.132320
C44   C     C_R   0.013615 0.821143 0.171984 -0.131494
C45   C     C_R   0.246893 0.317423 0.154926 -0.141183
C46   C     C_R   0.719497 0.863874 0.134191 -0.007924
C47   C     C_R   0.093047 0.917628 0.148529 -0.022141
C48   C     C_R   0.150131 0.296776 0.131015 -0.025271
C49   C     C_R   0.632718 0.726003 0.359108 -0.132986
C50   C     C_R   0.257973 0.920459 0.367393 -0.125375
C51   C     C_R   0.154848 0.491355 0.344197 -0.129050
C52   C     C_R   0.651109 0.737074 0.308988 -0.019609
C53   C     C_R   0.235827 0.942890 0.320745 -0.010272
C54   C     C_R   0.145662 0.467623 0.293973 -0.006751
C55   C     C_R   0.663210 0.831338 0.285364 0.054402
C56   C     C_R   0.140561 0.863767 0.295634 0.055173
C57   C     C_R   0.220142 0.441436 0.271408 0.053561
C58   C     C_R   0.649977 0.651367 0.281940 -0.080416
C59   C     C_R   0.312507 0.040289 0.297741 -0.121386
C60   C     C_R   0.059848 0.464392 0.266584 -0.118030
C61   C     C_R   0.656103 0.655818 0.230960 0.100001
C62   C     C_R   0.296584 0.060054 0.249194 0.101171
C63   C     C_R   0.042222 0.427412 0.217687 0.096510
C64   C     C_R   0.670722 0.751161 0.206896 0.019229
C65   C     C_R   0.200194 0.982855 0.223914 0.054815
C66   C     C_R   0.111506 0.392956 0.196084 0.051872
C67   C     C_3   0.626060 0.897613 0.735273 0.121772
C68   C     C_3   0.119207 0.718700 0.732499 0.121302
C69   C     C_3   0.288420 0.401229 0.733275 0.126705
C70   C     C_R   0.676361 0.839993 0.234335 0.042693
C71   C     C_R   0.121959 0.884135 0.247182 0.034435
C72   C     C_R   0.203052 0.403934 0.222389 0.033929
C73   C     C_R   0.685728 0.762303 0.156403 -0.134615
C74   C     C_R   0.183235 0.999362 0.175052 -0.110271
C75   C     C_R   0.087384 0.341162 0.150062 -0.106990
C76   C     C_R   0.615259 0.802372 0.385321 0.003649
C77   C     C_R   0.190696 0.816692 0.388447 0.001874
C78   C     C_R   0.236210 0.487186 0.372366 -0.002964
C79   C     C_3   0.811913 0.927745 0.711089 -0.277132
C80   C     C_3   0.083960 0.875418 0.721392 -0.277484
C81   C     C_3   0.134557 0.206698 0.719953 -0.276864
C82   C     C_3   0.844170 0.945353 0.766238 -0.235818
C83   C     C_3   0.075337 0.881963 0.778182 -0.231217
C84   C     C_3   0.135697 0.192065 0.776656 -0.225740
C85   C     C_1   0.805055 0.898662 0.893765 0.036927
C86   C     C_1   0.126448 0.864475 0.901635 0.030301
C87   C     C_1   0.136729 0.259443 0.901348 0.033709
C88   C     C_3   0.686581 0.847558 0.705922 0.034373
C89   C     C_3   0.164591 0.834410 0.708710 0.032191
C90   C     C_3   0.172902 0.328696 0.708417 0.033440
C91   C     C_3   0.658600 0.911689 0.790621 -0.217091
C92   C     C_3   0.110971 0.725705 0.789195 -0.219180
C93   C     C_3   0.280103 0.389779 0.790209 -0.221472
C94   C     C_3   0.743289 0.873984 0.799538 0.031552
C95   C     C_3   0.149053 0.845696 0.805119 0.029960
C96   C     C_3   0.162080 0.299904 0.804791 0.030308
Cr1   Cr    Cr6+3 0.164410 0.584450 0.499910 1.031468
Cr2   Cr    Cr6+3 0.415550 0.579960 0.499910 1.033525
Cr3   Cr    Cr6+3 0.420040 0.835590 0.499910 1.031294
Cr4   Cr    Cr6+3 0.155170 0.075460 0.019960 1.038702
Cr5   Cr    Cr6+3 0.924540 0.079710 0.019960 1.043788
Cr6   Cr    Cr6+3 0.920290 0.844830 0.019960 1.037421
H1    H     H_    0.694561 0.999927 0.801638 0.161183
H2    H     H_    0.023995 0.669911 0.800748 0.149377
H3    H     H_    0.341140 0.367540 0.803671 0.141015
H4    H     H_    0.584893 0.863372 0.814223 0.169723
H5    H     H_    0.161946 0.696931 0.808184 0.169570
H6    H     H_    0.300860 0.469538 0.808243 0.172669
H7    H     H_    0.744054 0.027953 0.142912 0.125527
H8    H     H_    0.942837 0.758800 0.151570 0.125589
H9    H     H_    0.296788 0.285644 0.139547 0.123771
H10   H     H_    0.623248 0.960361 0.383181 0.123380
H11   H     H_    0.040072 0.658849 0.380951 0.114034
H12   H     H_    0.382454 0.472164 0.370085 0.129760
H13   H     H_    0.711454 0.098352 0.220772 0.111094
H14   H     H_    0.882555 0.640865 0.224892 0.115078
H15   H     H_    0.424559 0.367758 0.209374 0.134139
H16   H     H_    0.675014 0.076960 0.309451 0.105770
H17   H     H_    0.915479 0.605605 0.309260 0.100678
H18   H     H_    0.451453 0.427379 0.295859 0.104133
H19   H     H_    0.682769 0.695917 0.134624 0.132275
H20   H     H_    0.242333 0.074680 0.156745 0.162415
H21   H     H_    0.014705 0.328221 0.130372 0.175147
H22   H     H_    0.640638 0.578913 0.300331 0.115546
H23   H     H_    0.387533 0.099409 0.316766 0.101655
H24   H     H_    0.003719 0.486493 0.283610 0.104946
H25   H     H_    0.650517 0.980221 0.720036 0.149884
H26   H     H_    0.035272 0.661450 0.717508 0.148951
H27   H     H_    0.344640 0.372412 0.719807 0.146238
H28   H     H_    0.620369 0.651279 0.376434 0.129164
H29   H     H_    0.332881 0.981900 0.385739 0.135434
H30   H     H_    0.095937 0.509010 0.361718 0.123906
H31   H     H_    0.858530 0.894092 0.691584 0.126453
H32   H     H_    0.113260 0.958270 0.705261 0.123883
H33   H     H_    0.049886 0.151567 0.705294 0.128922
H34   H     H_    0.835128 0.008419 0.694020 0.121369
H35   H     H_    0.000941 0.818224 0.705557 0.132048
H36   H     H_    0.189962 0.181835 0.701882 0.120499
H37   H     H_    0.876851 0.033435 0.775606 0.176930
H38   H     H_    0.988802 0.826637 0.789465 0.184955
H39   H     H_    0.199321 0.170062 0.785805 0.172423
H40   H     H_    0.910357 0.926674 0.772879 0.139827
H41   H     H_    0.098515 0.967262 0.789407 0.151961
H42   H     H_    0.055981 0.122520 0.788978 0.143599
H43   H     H_    0.572899 0.673139 0.723190 0.213459
H44   H     H_    0.341153 0.896376 0.720986 0.215339
H45   H     H_    0.109209 0.440135 0.723297 0.208785
H46   H     H_    0.709176 0.704475 0.709135 0.157788
H47   H     H_    0.306756 0.001421 0.716306 0.155352
H48   H     H_    0.005083 0.300138 0.714545 0.156516
H49   H     H_    0.608937 0.702833 0.804975 0.169354
H50   H     H_    0.321926 0.888222 0.804584 0.178462
H51   H     H_    0.106856 0.420324 0.805987 0.162808
O1    O     O_R   0.137150 0.468200 0.553200 -0.495320
O2    O     O_R   0.531800 0.668950 0.553200 -0.498948
O3    O     O_R   0.331050 0.862850 0.553200 -0.500794
O4    O     O_R   0.179100 0.982980 0.967000 -0.479145
O5    O     O_R   0.017020 0.196120 0.967000 -0.492754
O6    O     O_R   0.803880 0.820900 0.967000 -0.485266
O7    O     O_R   0.173970 0.688730 0.549930 -0.484817
O8    O     O_R   0.311270 0.485240 0.549930 -0.479845
O9    O     O_R   0.514760 0.826030 0.549930 -0.486737
O10   O     O_R   0.140110 0.470540 0.446010 -0.516521
O11   O     O_R   0.529460 0.669570 0.446010 -0.537504
O12   O     O_R   0.330430 0.859890 0.446010 -0.525331
O13   O     O_R   0.176710 0.690910 0.450560 -0.527285
O14   O     O_R   0.309090 0.485800 0.450560 -0.507315
O15   O     O_R   0.514200 0.823290 0.450560 -0.507970
O16   O     O_3   0.333333 0.666667 0.499990 -0.290981
O17   O     O_R   0.176750 0.985260 0.074180 -0.501180
O18   O     O_R   0.014740 0.191490 0.074180 -0.517653
O19   O     O_R   0.808510 0.823250 0.074180 -0.530503
O20   O     O_R   0.146100 0.172630 0.068980 -0.518941
O21   O     O_R   0.827370 0.973470 0.068980 -0.492148
O22   O     O_R   0.026530 0.853900 0.068980 -0.486273
O23   O     O_3   1.000000 1.000000 0.020040 -0.282703
O24   O     O_R   0.148270 0.170520 0.969620 -0.497721
O25   O     O_R   0.829480 0.977750 0.969620 -0.482396
O26   O     O_R   0.022250 0.851730 0.969620 -0.510039
Cl1   Cl    Cl    0.479752 0.816047 0.728944 -0.549555
Cl2   Cl    Cl    0.201843 0.659506 0.716990 -0.545441
Cl3   Cl    Cl    0.352018 0.542826 0.716489 -0.534686
Cl4   Cl    Cl    0.768399 0.688188 0.799849 -0.663697
Cl5   Cl    Cl    0.329311 0.060153 0.810533 -0.639371
Cl6   Cl    Cl    0.941994 0.247700 0.807064 -0.659656
N1    N     N_3   0.647735 0.562764 0.204712 -0.659175
H52   H     H_    0.581631 0.533831 0.180077 0.231079
H53   H     H_    0.719840 0.588515 0.184479 0.219103
N2    N     N_3   0.382239 0.154762 0.224844 -0.657377
H54   H     H_    0.448410 0.141365 0.219781 0.233649
H55   H     H_    0.409910 0.221921 0.248978 0.224342
N3    N     N_3   0.951460 0.421077 0.190797 -0.650030
H56   H     H_    0.961302 0.500076 0.190204 0.238479
H57   H     H_    0.878864 0.369557 0.209962 0.224857

loop_
_geom_bond_atom_site_label_1
_geom_bond_atom_site_label_2
_ccdc_geom_bond_type
C62   N2    S    
C15   C18   T    
C40   H16   S    
C10   C85   T    
C82   C94   S    
C7    H43   S    
C2    C18   S    
C33   C45   A    
C91   H4    S    
C69   C90   S    
C82   H40   S    
C27   C78   A    
Cr2   O8    S    
C6    C9    S    
C53   C59   A    
C80   H32   S    
C34   C77   S    
C54   C60   A    
C55   C70   A    
C25   C28   A    
C79   H34   S    
C6    Cl6   S    
C67   C88   S    
C33   C39   A    
C5    H50   S    
C31   C43   A    
C60   C63   A    
C75   H21   S    
C19   O18   A    
Cr3   O15   S    
C37   C40   A    
C69   C93   S    
C67   Cl1   S    
C4    C7    S    
C93   H6    S    
C45   C48   A    
C28   C40   A    
C11   C86   T    
Cr6   O23   S    
C80   H35   S    
C30   C57   A    
C4    Cl4   S    
C36   O15   A    
Cr1   O16   S    
C48   C75   A    
C84   C96   S    
C80   C89   S    
N2    H55   S    
C83   H38   S    
C23   O25   A    
Cr5   O25   S    
C36   C76   S    
C25   H10   S    
C93   H3    S    
Cr2   O16   S    
Cr4   O4    S    
C31   C70   A    
C20   O21   A    
C21   O22   A    
C23   O6    A    
Cr4   O23   S    
C35   O14   A    
C64   C73   A    
C32   C38   A    
C39   C42   A    
C34   O12   A    
C68   H26   S    
C5    Cl5   S    
Cr2   O14   S    
C33   C72   A    
C44   C47   A    
C69   Cl3   S    
C1    O3    A    
C56   C71   A    
C58   C61   A    
C63   C66   A    
C2    O1    A    
C27   C30   A    
Cr6   O26   S    
C14   C17   T    
Cr5   O21   S    
C20   O19   A    
C22   O24   A    
Cr4   O24   S    
C84   H42   S    
C2    O8    A    
C3    O2    A    
C79   C88   S    
C5    C95   S    
C28   C55   A    
C81   H33   S    
C32   C71   A    
Cr6   O19   S    
C81   H36   S    
C79   H31   S    
C66   C72   A    
C68   Cl2   S    
C50   C53   A    
Cr4   O17   S    
C26   C77   A    
Cr1   O7    S    
C38   C41   A    
C21   O17   A    
C24   O4    A    
C22   O5    A    
Cr1   O10   S    
C63   N3    S    
C65   C71   A    
C9    H45   S    
C92   C95   S    
C35   O10   A    
C65   C74   A    
C31   C37   A    
N3    H57   S    
C37   H13   S    
Cr6   O6    S    
C61   C64   A    
C64   C70   A    
C19   O20   A    
C14   C89   S    
C82   H37   S    
C67   H25   S    
C5    C8    S    
Cr3   O9    S    
C38   H14   S    
C92   H5    S    
C7    C88   S    
C74   H20   S    
C49   C52   A    
C83   C95   S    
Cr3   O3    S    
C24   O26   A    
C67   C91   S    
C68   C89   S    
C32   C44   A    
C49   C76   A    
Cr1   O1    S    
C41   H17   S    
C52   C58   A    
C4    C94   S    
C81   C90   S    
Cr3   O12   S    
C3    O9    A    
Cr5   O5    S    
C93   C96   S    
C6    C96   S    
N1    H53   S    
C9    H48   S    
C50   C77   A    
C81   C84   S    
C80   C83   S    
C7    H46   S    
C53   C56   A    
C11   C95   S    
C4    H49   S    
Cr2   O2    S    
C59   C62   A    
C62   C65   A    
C29   C41   A    
C19   C48   S    
C1    C17   S    
C1    O7    A    
C8    H44   S    
C47   C74   A    
C91   H1    S    
C58   H22   S    
C22   C87   S    
C9    C90   S    
C79   C82   S    
Cr2   O11   S    
C51   H30   S    
C52   C55   A    
Cr3   O16   S    
C29   C56   A    
C59   H23   S    
C49   H28   S    
C35   C78   S    
C73   H19   S    
C51   C54   A    
N3    H56   S    
C25   C76   A    
C60   H24   S    
C8    H47   S    
Cr6   O22   S    
C26   H11   S    
C12   C87   T    
C39   H15   S    
C45   H9    S    
C15   C90   S    
C83   H41   S    
C42   H18   S    
C84   H39   S    
C66   C75   A    
C13   C88   S    
C61   N1    S    
C68   C92   S    
Cr5   O18   S    
C30   C42   A    
C57   C72   A    
N2    H54   S    
C43   C46   A    
C51   C78   A    
C6    H51   S    
C50   H29   S    
C92   H2    S    
C27   H12   S    
C26   C29   A    
C69   H27   S    
C23   C85   S    
C13   C16   T    
Cr4   O20   S    
C36   O11   A    
C10   C94   S    
C12   C96   S    
Cr5   O23   S    
C8    C89   S    
C43   H7    S    
C21   C47   S    
N1    H52   S    
C34   O13   A    
C24   C86   S    
C46   C73   A    
C20   C46   S    
C3    C16   S    
Cr1   O13   S    
C91   C94   S    
C54   C57   A    
C44   H8    S    
