data_mof_unit_58284.cif
_audit_creation_date              2012-12-10T18:50:49-0500
_audit_creation_method            fapswitch 2.2
_symmetry_space_group_name_H-M    P1
_symmetry_Int_Tables_number       1
_space_group_crystal_system       triclinic
_cell_length_a                    10.673093
_cell_length_b                    9.886723
_cell_length_c                    15.754176
_cell_angle_alpha                 90.164606
_cell_angle_beta                  92.361782
_cell_angle_gamma                 91.346795
_cell_volume                      1660.52751785

loop_
_atom_site_label
_atom_site_type_symbol
_atom_type_description
_atom_site_fract_x
_atom_site_fract_y
_atom_site_fract_z
_atom_type_partial_charge
C1    C     C_R   0.259414 0.498794 0.499701 0.864274
C2    C     C_3   0.602310 0.497760 0.958107 -0.162663
C3    C     C_3   0.588264 0.490135 0.056143 -0.497087
C4    C     C_1   0.475652 0.490439 0.824478 0.073004
C5    C     C_1   0.459809 0.495105 0.175439 0.138888
C6    C     C_1   0.476707 0.498267 0.250284 0.010695
C7    C     C_R   0.059760 0.382684 0.463286 -0.219326
C8    C     C_R   0.066558 0.621725 0.499081 -0.248068
C9    C     C_R   0.931061 0.387079 0.448189 -0.031811
C10   C     C_R   0.939843 0.629640 0.482599 -0.040675
C11   C     C_R   0.869663 0.507561 0.468894 -0.179048
C12   C     C_R   0.125794 0.498629 0.491448 -0.063363
C13   C     C_R   0.574675 0.074947 0.557142 -0.005735
C14   C     C_R   0.570322 0.931011 0.559938 -0.032756
C15   C     C_R   0.496066 0.499702 0.338465 0.908638
C16   C     C_R   0.428849 0.926122 0.441212 -0.047576
C17   C     C_R   0.427166 0.069550 0.442161 -0.073835
C18   C     C_R   0.738294 0.501914 0.488665 0.927540
C19   C     C_R   0.500945 0.499755 0.661768 0.908902
C20   C     C_3   0.387113 0.627950 0.047365 -0.239122
C21   C     C_3   0.380864 0.349909 0.050787 -0.238602
C22   C     C_3   0.393022 0.340197 0.945450 -0.176673
C23   C     C_3   0.375879 0.617531 0.942930 -0.187227
C24   C     C_1   0.490139 0.496664 0.750045 0.018354
C25   C     C_3   0.448827 0.490050 0.082892 -0.024830
C26   C     C_3   0.459558 0.486633 0.915649 -0.017276
H1    H     H_    0.371755 0.870397 0.394101 0.164382
H2    H     H_    0.368636 0.121900 0.395841 0.158857
H3    H     H_    0.643033 0.571330 0.090637 0.221766
H4    H     H_    0.634657 0.400908 0.082764 0.278725
H5    H     H_    0.109161 0.291145 0.449405 0.192108
H6    H     H_    0.120031 0.713891 0.514332 0.196331
N1    N     N_R   0.499970 0.857200 0.499980 -0.115113
N2    N     N_R   0.499970 0.142800 0.499980 -0.127524
O1    O     O_R   0.316750 0.614620 0.499990 -0.635555
O2    O     O_R   0.316750 0.385380 0.499990 -0.631219
O3    O     O_R   0.499990 0.614720 0.377140 -0.603412
O4    O     O_R   0.499990 0.385280 0.377140 -0.595802
O5    O     O_R   0.683220 0.614710 0.500000 -0.566148
O6    O     O_R   0.683220 0.385290 0.500000 -0.596275
O7    O     O_R   0.499980 0.614620 0.622860 -0.611989
O8    O     O_R   0.499980 0.385380 0.622860 -0.580792
Zn1   Zn    Zn3+2 0.499980 0.653120 0.500000 1.024031
Zn2   Zn    Zn3+2 0.499980 0.346880 0.500000 1.015420
C27   C     C_R   0.240616 0.608773 0.895139 0.082710
C28   C     C_R   0.126015 0.569981 0.931719 -0.024573
C29   C     C_R   0.012472 0.560913 0.884359 -0.075656
C30   C     C_R   0.006559 0.594659 0.798856 -0.133039
C31   C     C_R   0.114122 0.640211 0.760682 -0.148261
C32   C     C_R   0.228157 0.647516 0.807293 -0.183765
H7    H     H_    0.117609 0.546947 0.996642 0.184823
H8    H     H_    0.928508 0.527290 0.914753 0.177498
H9    H     H_    0.918820 0.585743 0.762137 0.188594
H10   H     H_    0.110043 0.667806 0.694188 0.163032
H11   H     H_    0.307739 0.680896 0.772160 0.157410
C33   C     C_R   0.267049 0.287374 0.897277 0.112370
C34   C     C_R   0.207810 0.164974 0.924495 -0.061277
C35   C     C_R   0.102873 0.106248 0.881625 -0.039482
C36   C     C_R   0.056894 0.161764 0.806199 -0.122935
C37   C     C_R   0.119224 0.272418 0.772271 -0.133143
C38   C     C_R   0.224364 0.330759 0.815396 -0.038596
H12   H     H_    0.240220 0.113864 0.980504 0.209906
H13   H     H_    0.058461 0.016030 0.906595 0.175449
H14   H     H_    0.975997 0.116187 0.772560 0.153074
H15   H     H_    0.088009 0.311597 0.711040 0.138747
H16   H     H_    0.271050 0.406271 0.780425 0.114918
C39   C     C_2   0.263002 0.666221 0.085477 0.906387
O9    O     O_2   0.221944 0.606698 0.146599 -0.595841
O10   O     O_R   0.201711 0.781467 0.055433 -0.739692
H17   H     H_    0.122686 0.800136 0.086622 0.364021
C40   C     C_2   0.247722 0.345034 0.086918 0.913609
O11   O     O_2   0.151881 0.337866 0.042550 -0.635215
O12   O     O_R   0.236354 0.337819 0.175266 -0.768197
H18   H     H_    0.145973 0.331273 0.192645 0.374824
C41   C     C_2   0.437221 0.225108 0.098667 1.004582
O13   O     O_2   0.388673 0.112720 0.087955 -0.584601
O14   O     O_R   0.537822 0.236870 0.158304 -0.794105
H19   H     H_    0.561482 0.147246 0.184908 0.360134
C42   C     C_2   0.470926 0.747645 0.086415 0.969809
O15   O     O_2   0.548362 0.810196 0.046298 -0.532758
O16   O     O_R   0.459347 0.783665 0.172001 -0.784929
H20   H     H_    0.518026 0.861128 0.190936 0.361443
C43   C     C_2   0.478275 0.225241 0.915204 0.866617
O17   O     O_2   0.545949 0.160241 0.963457 -0.550243
O18   O     O_R   0.478175 0.193832 0.828407 -0.751260
H21   H     H_    0.531795 0.113349 0.816339 0.406172
C44   C     C_2   0.419957 0.756213 0.908387 0.987685
O19   O     O_2   0.497616 0.766877 0.854200 -0.605079
O20   O     O_R   0.357114 0.872130 0.932217 -0.725909
H22   H     H_    0.386468 0.955694 0.901130 0.361175
C45   C     C_2   0.680858 0.623256 0.933316 0.960316
O21   O     O_2   0.737244 0.693746 0.986939 -0.578919
O22   O     O_R   0.706987 0.644284 0.847945 -0.769889
H23   H     H_    0.770765 0.720408 0.840551 0.338449
C46   C     C_2   0.692982 0.388019 0.929008 0.902179
O23   O     O_2   0.761624 0.329130 0.980230 -0.571928
O24   O     O_R   0.706619 0.363288 0.842339 -0.750927
H24   H     H_    0.772066 0.293326 0.831354 0.360075
C47   C     C_2   0.865942 0.270300 0.404089 0.997317
O25   O     O_2   0.908051 0.156720 0.411083 -0.611773
O26   O     O_R   0.760025 0.291202 0.350925 -0.783084
H25   H     H_    0.724662 0.204244 0.324232 0.357523
C48   C     C_2   0.888504 0.767626 0.475736 1.017600
O27   O     O_2   0.812747 0.794746 0.418259 -0.583504
O28   O     O_R   0.932823 0.868729 0.532288 -0.789953
H26   H     H_    0.891234 0.958256 0.521279 0.394601
C49   C     C_2   0.666628 0.150842 0.612572 0.964742
O29   O     O_2   0.637621 0.189309 0.682548 -0.570380
O30   O     O_R   0.789464 0.169864 0.587033 -0.821428
H27   H     H_    0.844591 0.221125 0.630764 0.328798
C50   C     C_2   0.633845 0.865250 0.633301 0.943843
O31   O     O_2   0.714139 0.781690 0.623551 -0.593050
O32   O     O_R   0.607208 0.908081 0.714929 -0.774762
H28   H     H_    0.668017 0.872247 0.759744 0.375309

loop_
_geom_bond_atom_site_label_1
_geom_bond_atom_site_label_2
_ccdc_geom_bond_type
C44   O19   D    
C11   C18   S    
O22   H23   S    
C23   C27   S    
C46   O23   D    
C49   O30   S    
O12   H18   S    
C20   C39   S    
C50   O31   D    
C13   C49   S    
C14   N1    A    
O24   H24   S    
C34   H12   S    
O14   H19   S    
C36   H14   S    
O26   H25   S    
C21   C40   S    
C10   C48   S    
O10   H17   S    
C5    C6    T    
C4    C24   T    
C20   C25   S    
C31   H10   S    
C33   C34   A    
C23   C26   S    
C3    H3    S    
C18   O5    A    
C18   O6    A    
C15   O3    A    
C6    C15   S    
C38   H16   S    
C47   O25   D    
C16   C17   A    
C49   O29   D    
O1    Zn1   S    
C19   O8    A    
C16   H1    S    
C36   C37   A    
C9    C47   S    
C23   C44   S    
C21   C22   S    
O7    Zn1   S    
C14   C50   S    
C1    C12   S    
O8    Zn2   S    
O16   H20   S    
C30   H9    S    
C7    H5    S    
C39   O9    D    
C8    H6    S    
C29   C30   A    
C3    C25   S    
N2    Zn2   S    
C50   O32   S    
C45   O21   D    
C42   O16   S    
C22   C33   S    
C35   C36   A    
O18   H21   S    
C28   H7    S    
C37   C38   A    
C39   O10   S    
N1    Zn1   S    
O3    Zn1   S    
C3    H4    S    
C41   O13   D    
C15   O4    A    
O4    Zn2   S    
C16   N1    A    
C45   O22   S    
C41   O14   S    
C4    C26   S    
C43   O17   D    
C20   C23   S    
O6    Zn2   S    
C8    C12   A    
C48   O28   S    
C9    C11   A    
C5    C25   S    
C30   C31   A    
C47   O26   S    
C37   H15   S    
C44   O20   S    
C7    C12   A    
O2    Zn2   S    
C17   N2    A    
C1    O1    A    
C40   O12   S    
O32   H28   S    
C35   H13   S    
C7    C9    A    
C21   C25   S    
C28   C29   A    
C2    C46   S    
C20   C42   S    
C43   O18   S    
C17   H2    S    
C2    C26   S    
O5    Zn1   S    
C46   O24   S    
C29   H8    S    
O28   H26   S    
C21   C41   S    
C32   H11   S    
C22   C43   S    
C2    C3    S    
C13   N2    A    
O30   H27   S    
C34   C35   A    
C27   C32   A    
C19   C24   S    
C2    C45   S    
C10   C11   A    
C42   O15   D    
C27   C28   A    
C40   O11   D    
C8    C10   A    
C31   C32   A    
C22   C26   S    
C48   O27   D    
C33   C38   A    
O20   H22   S    
C13   C14   A    
C19   O7    A    
C1    O2    A    
