data_mof_unit_28930.cif
_audit_creation_date              2013-03-05T15:52:20-0500
_audit_creation_method            fapswitch 2.2
_symmetry_space_group_name_H-M    P1
_symmetry_Int_Tables_number       1
_space_group_crystal_system       triclinic
_cell_length_a                    10.731483
_cell_length_b                    10.777172
_cell_length_c                    16.974537
_cell_angle_alpha                 80.323547
_cell_angle_beta                  99.92696
_cell_angle_gamma                 119.094449
_cell_volume                      1681.67468946

loop_
_atom_site_label
_atom_site_type_symbol
_atom_site_description
_atom_site_fract_x
_atom_site_fract_y
_atom_site_fract_z
_atom_type_partial_charge
O1    O     O_R   0.754020 0.497590 0.609930 -0.495866
O2    O     O_R   0.481420 0.271390 0.600630 -0.489379
C1    C     C_R   0.358431 0.223466 0.626134 0.554989
O3    O     O_R   0.263810 0.254550 0.589590 -0.508347
O4    O     O_R   0.300820 0.531200 0.560890 -0.501687
C2    C     C_R   0.369956 0.654391 0.585952 0.568687
O5    O     O_R   0.491480 0.744020 0.564270 -0.491427
O6    O     O_R   0.726290 0.693800 0.583010 -0.496671
C3    C     C_R   0.781404 0.620942 0.626018 0.550555
O7    O     O_R   0.747830 0.500190 0.434090 -0.525858
O8    O     O_R   0.475680 0.273800 0.437630 -0.483756
C4    C     C_R   0.350245 0.225281 0.400448 0.592056
O9    O     O_R   0.257620 0.257160 0.413750 -0.503994
O10   O     O_R   0.295080 0.533620 0.397890 -0.497954
C5    C     C_R   0.403977 0.624476 0.359311 0.550885
O11   O     O_R   0.485280 0.746620 0.388440 -0.374030
O12   O     O_R   0.720550 0.696220 0.420010 -0.464821
C6    C     C_R   0.773544 0.623977 0.400424 0.554225
Cr1   Cr    Cr6+3 0.608440 0.389080 0.519680 1.054743
Cr2   Cr    Cr6+3 0.288640 0.400090 0.490760 1.055135
Cr3   Cr    Cr6+3 0.602940 0.710800 0.489510 1.149136
O13   O     O_3   0.500010 0.499990 0.499980 -0.318084
C7    C     C_R   0.282494 0.733748 0.799164 -0.027304
C8    C     C_R   0.187969 0.606529 0.764753 0.081822
C9    C     C_R   0.204107 0.585041 0.689972 -0.062965
C10   C     C_R   0.393031 0.827259 0.674429 -0.135170
C11   C     C_R   0.376948 0.848556 0.750289 -0.187794
C12   C     C_3   0.137907 0.452205 0.795551 0.513282
C13   C     C_3   0.156055 0.429078 0.711978 -0.215675
C14   C     C_R   0.316359 0.689991 0.647412 0.006713
H1    H     H_    0.476015 0.914210 0.641193 0.166266
H2    H     H_    0.446340 0.951300 0.773034 0.136877
H3    H     H_    0.240310 0.399148 0.709229 0.110280
H4    H     H_    0.052878 0.363756 0.676667 0.142399
C15   C     C_1   0.851556 0.669378 0.702518 -0.020769
C16   C     C_1   0.898571 0.704282 0.769297 -0.034276
C17   C     C_1   0.329871 0.157890 0.705568 -0.058860
C18   C     C_1   0.293519 0.112094 0.771913 -0.071884
C19   C     C_1   0.372493 0.633428 0.274541 0.022807
C20   C     C_1   0.346094 0.651727 0.203454 0.050718
C21   C     C_R   0.830219 0.671062 0.158742 -0.065460
C22   C     C_R   0.854906 0.574023 0.213777 0.001582
C23   C     C_R   0.859133 0.571202 0.293933 -0.049078
C24   C     C_R   0.832328 0.784668 0.272668 0.156295
C25   C     C_R   0.817795 0.780071 0.187902 0.146747
C26   C     C_3   0.795308 0.417991 0.214081 0.125097
C27   C     C_3   0.794672 0.410995 0.303974 -0.182159
C28   C     C_R   0.835939 0.668254 0.325055 -0.020463
H5    H     H_    0.688418 0.367186 0.179080 0.122576
H6    H     H_    0.683904 0.357705 0.321269 0.146211
H7    H     H_    0.868370 0.373654 0.341123 0.202114
C29   C     C_R   0.345781 0.172987 0.160382 -0.039834
C30   C     C_R   0.296439 0.258601 0.181468 -0.087235
C31   C     C_R   0.286769 0.257532 0.260357 -0.092817
C32   C     C_R   0.414100 0.123371 0.303708 0.156963
C33   C     C_R   0.424214 0.121158 0.222032 0.131291
C34   C     C_3   0.163910 0.274792 0.156632 -0.193720
C35   C     C_3   0.151819 0.266167 0.245337 -0.166341
C36   C     C_R   0.334477 0.184037 0.321972 0.000598
H8    H     H_    0.074232 0.184549 0.126874 0.231609
H9    H     H_    0.188127 0.381000 0.124171 0.171146
H10   H     H_    0.170980 0.363508 0.268600 0.200270
H11   H     H_    0.059420 0.167004 0.267039 0.238864
O14   O     O_R   0.163320 0.092900 0.874450 -0.510710
O15   O     O_R   0.934650 0.822080 0.882840 -0.510748
C37   C     C_R   0.947511 0.725189 0.851917 0.506554
O16   O     O_R   0.915520 0.604140 0.893670 -0.481168
O17   O     O_R   0.191760 0.638110 0.923230 -0.458413
C38   C     C_R   0.282453 0.749552 0.882592 0.522914
O18   O     O_R   0.406180 0.826930 0.920660 -0.504416
O19   O     O_R   0.358620 0.062870 0.901950 -0.513724
C39   C     C_R   0.252590 0.059970 0.851264 0.504512
O20   O     O_R   0.163910 0.085460 0.050210 -0.511087
O21   O     O_R   0.935200 0.815170 0.045770 -0.454214
C40   C     C_R   0.882979 0.690057 0.082120 0.576986
O22   O     O_R   0.916120 0.596690 0.069430 -0.459254
O23   O     O_R   0.192310 0.631200 0.086170 -0.471643
C41   C     C_R   0.317547 0.696320 0.122061 0.577370
O24   O     O_R   0.406770 0.819480 0.096420 -0.404178
O25   O     O_R   0.359170 0.055960 0.064880 -0.447239
C42   C     C_R   0.289099 0.109054 0.084911 0.554767
Cr4   Cr    Cr6+3 0.052530 0.947560 0.964210 1.040869
Cr5   Cr    Cr6+3 0.059970 0.626800 0.992920 1.110451
Cr6   Cr    Cr6+3 0.373320 0.938440 0.995370 1.119698
O26   O     O_3   0.161940 0.837600 0.984160 -0.339860
N1    N     N_R   0.479063 0.060039 0.367427 0.114379
O27   O     O_R   0.613076 0.091856 0.369731 -0.274730
O28   O     O_R   0.406234 0.976434 0.426029 -0.317244
N2    N     N_R   0.499327 0.052101 0.203603 0.119618
O29   O     O_R   0.594237 0.113576 0.152416 -0.244646
O30   O     O_R   0.482944 0.932987 0.243939 -0.249079
O31   O     O_3   0.992141 0.388745 0.809826 -0.534300
C43   C     C_3   0.938595 0.241345 0.834283 0.038992
H12   H     H_    0.984566 0.224824 0.896664 0.197931
H13   H     H_    0.963124 0.187145 0.793414 0.133200
C44   C     C_3   0.776446 0.171884 0.833273 -0.361572
H14   H     H_    0.726950 0.185449 0.771524 0.152893
H15   H     H_    0.733065 0.056098 0.852938 0.125848
H16   H     H_    0.748028 0.221643 0.874672 0.184797
O32   O     O_3   0.225226 0.429354 0.864465 -0.530214
C45   C     C_3   0.367531 0.469834 0.851461 -0.018686
H17   H     H_    0.416429 0.570068 0.811218 0.120638
H18   H     H_    0.369681 0.382816 0.825878 0.147327
C46   C     C_3   0.459992 0.492572 0.931844 -0.326827
H19   H     H_    0.417076 0.392858 0.973090 0.164594
H20   H     H_    0.571731 0.522740 0.922879 0.126580
H21   H     H_    0.460732 0.579232 0.959588 0.195412
N3    N     N_R   0.838465 0.901849 0.305748 0.092430
O33   O     O_R   0.933162 0.957512 0.366030 -0.341415
O34   O     O_R   0.734639 0.934342 0.286902 -0.182782
N4    N     N_R   0.780117 0.876054 0.132153 0.108725
O35   O     O_R   0.830446 0.008299 0.145010 -0.258696
O36   O     O_R   0.690957 0.829557 0.068465 -0.338602
N5    N     N_R   0.901753 0.385361 0.193396 0.121190
O37   O     O_R   0.867326 0.299999 0.138563 -0.254466
O38   O     O_R   0.036304 0.470533 0.212510 -0.388019

loop_
_geom_bond_atom_site_label_1
_geom_bond_atom_site_label_2
_geom_bond_distance
_ccdc_geom_bond_type
C35   H10   1.095538 S    
C32   C33   1.414216 A    
O16   Cr5   2.042216 S    
C45   H17   1.110482 S    
C32   C36   1.398753 A    
C21   C22   1.375604 A    
C7    C38   1.454595 S    
C15   C16   1.201069 T    
O25   Cr6   1.941778 S    
C46   H20   1.110816 S    
N5    O37   1.299194 A    
O15   Cr4   1.923182 S    
O4    Cr2   1.939830 S    
O23   C41   1.270480 A    
C24   C25   1.426940 A    
C26   H5    1.110032 S    
O8    Cr1   1.920751 S    
C10   C11   1.398254 A    
O11   Cr3   2.047239 S    
C12   C13   1.540744 S    
O24   Cr6   2.051999 S    
C16   C37   1.424992 S    
O23   Cr5   1.925977 S    
C5    O11   1.300643 A    
C44   H16   1.110868 S    
C13   H3    1.107696 S    
C35   H11   1.106386 S    
N3    O33   1.301791 A    
C22   C26   1.479568 S    
O31   C43   1.413820 S    
C4    C36   1.431375 S    
N4    O35   1.298437 A    
O17   C38   1.296826 A    
C44   H15   1.110796 S    
C7    C8    1.400848 A    
C7    C11   1.404220 A    
N2    O30   1.293899 A    
O18   Cr6   2.062884 S    
C23   C28   1.385392 A    
C12   O32   1.434140 S    
C37   O16   1.288245 A    
O2    Cr1   1.932221 S    
C10   H1    1.083242 S    
C43   H13   1.113771 S    
Cr3   O13   1.976056 S    
C38   O18   1.297874 A    
O21   Cr4   1.930723 S    
O22   Cr5   2.058513 S    
O20   C42   1.289109 A    
C46   H19   1.110875 S    
O12   C6    1.273945 A    
C27   H6    1.108506 S    
C31   C36   1.383706 A    
C24   N3    1.435005 S    
C9    C13   1.497702 S    
C18   C39   1.425624 S    
O1    Cr1   2.038506 S    
O21   C40   1.271827 A    
C26   N5    1.456803 S    
O10   Cr2   1.933659 S    
Cr1   O13   1.994655 S    
O1    C3    1.281654 A    
C8    C9    1.381492 A    
N4    O36   1.301738 A    
C19   C20   1.196518 T    
C30   C34   1.496924 S    
N1    O27   1.301130 A    
O6    C3    1.268620 A    
C34   H8    1.102049 S    
C27   H7    1.112367 S    
C30   C31   1.358558 A    
C13   H4    1.111678 S    
O12   Cr3   1.943702 S    
C40   O22   1.277770 A    
C17   C18   1.200601 T    
C21   C40   1.451132 S    
O7    Cr1   2.050553 S    
O14   Cr4   2.049321 S    
C44   H14   1.110945 S    
O6    Cr3   1.928344 S    
C12   O31   1.417040 S    
C43   H12   1.112772 S    
Cr6   O26   1.971355 S    
C5    C19   1.418250 S    
C33   N2    1.431824 S    
C2    C14   1.456861 S    
Cr2   O13   1.971836 S    
C10   C14   1.410690 A    
C45   C46   1.521679 S    
C20   C41   1.416934 S    
C22   C23   1.349215 A    
C1    O3    1.253750 A    
O20   Cr4   2.041718 S    
C29   C30   1.382511 A    
O19   Cr6   1.934536 S    
C31   C35   1.471988 S    
C9    C14   1.397388 A    
C26   C27   1.516064 S    
O9    Cr2   2.054404 S    
Cr5   O26   1.976271 S    
C11   H2    1.082765 S    
C41   O24   1.257589 A    
O17   Cr5   1.942991 S    
C8    C12   1.504554 S    
O25   C42   1.257178 A    
C6    C28   1.446450 S    
N5    O38   1.297074 A    
O8    C4    1.271716 A    
C25   N4    1.440414 S    
C34   H9    1.108779 S    
C2    O5    1.261020 A    
C43   C44   1.521791 S    
Cr4   O26   1.994689 S    
C32   N1    1.440945 S    
O2    C1    1.286496 A    
O19   C39   1.293389 A    
O5    Cr3   2.064425 S    
C34   C35   1.516998 S    
O4    C2    1.271695 A    
O7    C6    1.273791 A    
O32   C45   1.416744 S    
N3    O34   1.298194 A    
N1    O28   1.301581 A    
O14   C39   1.306217 A    
C29   C42   1.451335 S    
O3    Cr2   2.051499 S    
C29   C33   1.439651 A    
C4    O9    1.262002 A    
C1    C17   1.422309 S    
C45   H18   1.109060 S    
O15   C37   1.316951 A    
C3    C15   1.426226 S    
C21   C25   1.418989 A    
O10   C5    1.299531 A    
N2    O29   1.298719 A    
C23   C27   1.506265 S    
C46   H21   1.110618 S    
C24   C28   1.423621 A    
