data_mof_unit_26868.cif
_audit_creation_date              2012-12-10T18:11:46-0500
_audit_creation_method            fapswitch 2.2
_symmetry_space_group_name_H-M    P1
_symmetry_Int_Tables_number       1
_space_group_crystal_system       triclinic
_cell_length_a                    10.627127
_cell_length_b                    12.685618
_cell_length_c                    13.201107
_cell_angle_alpha                 84.853555
_cell_angle_beta                  93.9216
_cell_angle_gamma                 99.96676
_cell_volume                      1743.20201639

loop_
_atom_site_label
_atom_site_type_symbol
_atom_type_description
_atom_site_fract_x
_atom_site_fract_y
_atom_site_fract_z
_atom_type_partial_charge
C1    C     C_R   0.503010 0.442469 0.690634 0.911141
C2    C     C_R   0.622091 0.464003 0.966427 -0.141808
C3    C     C_R   0.603161 0.493688 0.863068 -0.050331
C4    C     C_R   0.741273 0.497159 0.506423 1.027848
C5    C     C_R   0.611128 0.540509 0.037058 -0.097569
C6    C     C_R   0.609833 0.649159 0.999286 -0.012339
C7    C     C_R   0.628432 0.679986 0.896146 0.396297
C8    C     C_R   0.645140 0.602396 0.832263 -0.033196
C9    C     C_R   0.581503 0.509982 0.139540 0.509096
C10   C     C_R   0.566831 0.695134 0.165214 -0.279891
C11   C     C_R   0.549303 0.413671 0.796284 -0.017568
C12   C     C_3   0.057959 0.551063 0.587330 -0.117364
C13   C     C_R   0.262033 0.076893 0.411616 0.401457
C14   C     C_R   0.688734 0.808367 0.590770 -0.056921
C15   C     C_R   0.730071 0.910438 0.623341 -0.334181
C16   C     C_R   0.521672 0.557485 0.309356 0.904775
C17   C     C_R   0.648299 0.987340 0.611227 0.589204
C18   C     C_R   0.532512 0.962738 0.551794 -0.033308
C19   C     C_R   0.488907 0.852846 0.531900 0.008781
C20   C     C_R   0.459240 0.041803 0.506300 -0.200977
C21   C     C_R   0.331313 0.005895 0.471211 -0.164030
C22   C     C_R   0.283583 0.895424 0.483250 0.006887
C23   C     C_3   0.958786 0.447192 0.599900 0.441251
C24   C     C_R   0.371019 0.826389 0.479302 -0.050409
C25   C     C_R   0.510704 0.152117 0.483931 0.563450
C26   C     C_R   0.314114 0.187338 0.401164 0.468380
C27   C     C_R   0.257608 0.500283 0.500938 1.025110
C28   C     C_3   0.938804 0.441155 0.433687 0.349141
C29   C     C_3   0.021799 0.394897 0.520406 0.295847
C30   C     C_3   0.121818 0.499144 0.506871 -0.262085
C31   C     C_3   0.035657 0.544410 0.421008 0.452428
C32   C     C_3   0.972852 0.597713 0.500429 -0.442877
C33   C     C_3   0.968793 0.213693 0.571858 -0.175862
C34   C     C_3   0.875590 0.493154 0.512659 -0.208662
C35   C     C_3   0.454235 0.346951 0.154544 -0.225030
C36   C     C_3   0.859052 0.401040 0.048149 -0.298988
C37   C     C_2   0.603526 0.162596 0.958312 0.387551
C38   C     C_2   0.752066 0.631378 0.764269 0.405003
C39   C     C_3   0.189789 0.239706 0.258785 -0.311336
C40   C     C_2   0.146722 0.850718 0.485090 0.495967
C41   C     C_3   0.163503 0.988231 0.275066 -0.339741
C42   C     C_3   0.682769 0.161333 0.391141 -0.224514
C43   C     C_3   0.935462 0.338407 0.299827 -0.275187
C44   C     C_3   0.745409 0.081301 0.748398 -0.322777
C45   C     C_R   0.592925 0.725634 0.064750 -0.157622
C46   C     C_2   0.376729 0.787084 0.378638 0.449926
C47   C     C_3   0.984848 0.638386 0.270735 -0.239567
C48   C     C_2   0.120021 0.616600 0.671919 0.425793
C49   C     C_3   0.999829 0.382718 0.766243 -0.281410
C50   C     C_3   0.512349 0.799166 0.817067 -0.291440
C51   C     C_R   0.555835 0.587571 0.202937 -0.177736
C52   C     C_R   0.543213 0.305163 0.831896 -0.382450
C53   C     C_R   0.599689 0.277307 0.927545 -0.091722
C54   C     C_R   0.650297 0.359328 0.991722 0.652754
H1    H     H_    0.502369 0.242441 0.782867 0.196375
H2    H     H_    0.378923 0.384313 0.184024 0.168736
H3    H     H_    0.451127 0.264152 0.190035 0.180186
H4    H     H_    0.432802 0.341762 0.071610 0.112378
H5    H     H_    0.870631 0.479408 0.082091 0.174808
H6    H     H_    0.875518 0.414692 0.965032 0.143667
H7    H     H_    0.935318 0.357242 0.081957 0.158903
H8    H     H_    0.562215 0.101856 0.907185 0.051507
H9    H     H_    0.804486 0.712815 0.758651 0.069557
H10   H     H_    0.177498 0.315614 0.213950 0.145817
H11   H     H_    0.092724 0.191835 0.262896 0.209525
H12   H     H_    0.756209 0.754114 0.594525 0.179877
H13   H     H_    0.249327 0.197601 0.215810 0.119143
H14   H     H_    0.112745 0.777647 0.449531 0.091325
H15   H     H_    0.133797 0.900254 0.287763 0.205964
H16   H     H_    0.263382 0.005323 0.249165 0.130698
H17   H     H_    0.100083 0.015199 0.211315 0.176889
H18   H     H_    0.787849 0.167305 0.398051 0.190504
H19   H     H_    0.656974 0.218804 0.327676 0.227431
H20   H     H_    0.644856 0.077427 0.372267 0.111897
H21   H     H_    0.981714 0.279569 0.349156 0.219635
H22   H     H_    0.006906 0.398198 0.258467 0.187680
H23   H     H_    0.826446 0.928740 0.656363 0.175660
H24   H     H_    0.871880 0.291964 0.243770 0.219835
H25   H     H_    0.846689 0.073714 0.741469 0.152476
H26   H     H_    0.697962 0.015185 0.800776 0.187641
H27   H     H_    0.746491 0.157923 0.782987 0.209368
H28   H     H_    0.466741 0.804079 0.342355 0.058554
H29   H     H_    0.964481 0.708266 0.308039 0.152332
H30   H     H_    0.895427 0.579731 0.259015 0.179173
H31   H     H_    0.019460 0.668578 0.194405 0.182377
H32   H     H_    0.062483 0.659142 0.713273 0.089000
H33   H     H_    0.020188 0.456137 0.808430 0.175182
H34   H     H_    0.939329 0.676129 0.495138 0.197097
H35   H     H_    0.089805 0.365510 0.737534 0.158835
H36   H     H_    0.963454 0.314636 0.821113 0.167488
H37   H     H_    0.439786 0.780289 0.875907 0.171171
H38   H     H_    0.482435 0.748896 0.751951 0.221172
H39   H     H_    0.514166 0.884050 0.788180 0.176569
H40   H     H_    0.553467 0.756589 0.212638 0.180747
H41   H     H_    0.597293 0.809423 0.038097 0.201517
H42   H     H_    0.869829 0.231514 0.560461 0.241070
H43   H     H_    0.994430 0.201705 0.654318 0.162890
H44   H     H_    0.970311 0.137090 0.537827 0.202008
N1    N     N_R   0.432930 0.222190 0.444670 -0.224834
N2    N     N_R   0.566370 0.776980 0.554790 -0.135416
O1    O     O_R   0.467970 0.366730 0.627150 -0.624571
O2    O     O_3   0.576751 0.404695 0.178153 -0.547874
O3    O     O_3   0.738275 0.339406 0.070304 -0.531755
O4    O     O_2   0.650389 0.134012 0.041091 -0.544977
O5    O     O_2   0.790174 0.563375 0.720767 -0.580370
O6    O     O_3   0.243338 0.263642 0.356885 -0.529536
O7    O     O_2   0.072790 0.894735 0.526381 -0.580502
O8    O     O_3   0.144932 0.039241 0.363194 -0.568120
O9    O     O_3   0.640711 0.186489 0.483917 -0.546045
O10   O     O_3   0.860452 0.388808 0.356719 -0.586312
O11   O     O_3   0.679247 0.086716 0.652121 -0.578724
O12   O     O_R   0.510820 0.544830 0.662520 -0.603248
O13   O     O_2   0.281613 0.744004 0.332171 -0.573608
O14   O     O_3   0.081146 0.590725 0.326617 -0.562464
O15   O     O_2   0.233747 0.621856 0.695542 -0.598098
O16   O     O_3   0.903902 0.393039 0.688626 -0.564313
O17   O     O_3   0.635349 0.785988 0.858340 -0.648796
O18   O     O_R   0.664630 0.410960 0.482340 -0.544201
O19   O     O_R   0.707470 0.589060 0.517710 -0.650384
O20   O     O_R   0.489180 0.455170 0.337480 -0.563004
O21   O     O_R   0.532030 0.633270 0.372850 -0.652567
O22   O     O_R   0.292530 0.410940 0.482290 -0.538055
O23   O     O_R   0.335370 0.589040 0.517660 -0.579269
O24   O     O_3   0.061381 0.293655 0.526855 -0.587167
Zn1   Zn    Zn3+2 0.471390 0.381080 0.476380 1.079422
Zn2   Zn    Zn3+2 0.528610 0.618920 0.523620 0.980930

loop_
_geom_bond_atom_site_label_1
_geom_bond_atom_site_label_2
_ccdc_geom_bond_type
C39   O6    S    
C48   H32   S    
C41   O8    S    
C1    O1    A    
C47   O14   S    
C50   O17   S    
C7    O17   S    
C48   O15   D    
C9    C51   A    
C16   C51   S    
C49   H36   S    
C12   C48   S    
C36   H5    S    
C26   O6    S    
C37   H8    S    
C7    C8    A    
N1    Zn1   S    
C15   H23   S    
C53   C54   A    
C43   H24   S    
C39   H10   S    
C12   C23   S    
C36   O3    S    
N2    Zn2   S    
C23   C29   S    
C28   C29   S    
C6    C45   A    
C42   O9    S    
C18   C19   A    
C16   O20   A    
C1    O12   A    
C30   C31   S    
C20   C25   A    
C10   H40   S    
C32   H34   S    
C29   O24   S    
C33   H44   S    
C49   H33   S    
C11   C52   A    
C23   O16   S    
C46   H28   S    
C25   N1    A    
C9    O2    S    
C1    C11   S    
C33   O24   S    
O1    Zn1   S    
C4    O19   A    
O18   Zn1   S    
C47   H29   S    
C31   O14   S    
O12   Zn2   S    
C52   H1    S    
C25   O9    S    
C26   N1    A    
C41   H17   S    
C37   C53   S    
C35   O2    S    
C28   C34   S    
C21   C22   A    
C12   C32   S    
C27   C30   S    
C39   H11   S    
C4    O18   A    
C8    C38   S    
C13   O8    S    
C10   C51   A    
C17   O11   S    
C27   O22   A    
C28   C31   S    
C43   H21   S    
C4    C34   S    
C42   H20   S    
C54   O3    S    
C44   H26   S    
C3    C8    A    
C2    C54   A    
C27   O23   A    
O20   Zn1   S    
O23   Zn2   S    
C28   O10   S    
C32   C34   S    
C16   O21   A    
C44   O11   S    
C5    C9    A    
C29   C30   S    
C31   C32   S    
C23   C34   S    
C22   C40   S    
C10   C45   A    
C42   H18   S    
C17   C18   A    
C14   H12   S    
C13   C21   A    
C47   H30   S    
C40   O7    D    
C50   H38   S    
C43   O10   S    
C44   H27   S    
C35   H4    S    
C22   C24   A    
C13   C26   A    
C2    C5    A    
C36   H7    S    
C45   H41   S    
C33   H42   S    
C47   H31   S    
C52   C53   A    
C41   H15   S    
C38   H9    S    
C43   H22   S    
C15   C17   A    
C42   H19   S    
C46   O13   D    
C12   C30   S    
C35   H2    S    
C39   H13   S    
C44   H25   S    
C49   H35   S    
C36   H6    S    
C37   O4    D    
C19   N2    A    
C50   H39   S    
C14   N2    A    
C6    C7    A    
C35   H3    S    
C24   C46   S    
C38   O5    D    
C2    C3    A    
O21   Zn2   S    
C5    C6    A    
O22   Zn1   S    
C19   C24   A    
C18   C20   A    
C3    C11   A    
O19   Zn2   S    
C50   H37   S    
C49   O16   S    
C20   C21   A    
C40   H14   S    
C14   C15   A    
C33   H43   S    
C41   H16   S    
