data_mof_unit_36730.cif
_audit_creation_date              2012-10-26T18:27:32-0400
_audit_creation_method            fapswitch 2.2
_symmetry_space_group_name_H-M    P1
_symmetry_Int_Tables_number       1
_space_group_crystal_system       triclinic
_cell_length_a                    10.78587
_cell_length_b                    11.051123
_cell_length_c                    9.927528
_cell_angle_alpha                 111.09077
_cell_angle_beta                  98.056917
_cell_angle_gamma                 92.735437
_cell_volume                      1086.96622611

loop_
_atom_site_label
_atom_site_type_symbol
_atom_type_description
_atom_site_fract_x
_atom_site_fract_y
_atom_site_fract_z
_atom_type_partial_charge
C1    C     C_R   0.489145 0.254296 0.440635 0.578720
C2    C     C_2   0.477837 0.931069 0.491211 -0.160064
C3    C     C_2   0.509777 0.516934 0.085817 0.275163
C4    C     C_R   0.263199 0.499583 0.500938 0.522983
C5    C     C_2   0.478838 0.504576 0.926109 0.330925
C6    C     C_R   0.504866 0.745243 0.559842 0.566653
C7    C     C_R   0.737195 0.502429 0.499402 0.560837
C8    C     C_R   0.164667 0.737251 0.656747 -0.111372
C9    C     C_R   0.118000 0.855707 0.727437 0.206287
C10   C     C_R   0.988792 0.860370 0.715117 0.001399
C11   C     C_R   0.905452 0.749549 0.632415 0.194121
C12   C     C_R   0.082727 0.621496 0.577625 -0.075067
C13   C     C_R   0.951151 0.625587 0.568648 -0.034148
C14   C     C_3   0.085059 0.226853 0.195138 -0.238548
C15   C     C_3   0.398432 0.009190 0.143030 -0.291797
C16   C     C_3   0.337698 0.307372 0.777386 -0.267824
C17   C     C_3   0.601419 0.745869 0.200780 -0.263250
C18   C     C_3   0.743044 0.105182 0.584780 -0.288194
C19   C     C_R   0.129931 0.502730 0.503746 -0.026257
C20   C     C_R   0.049426 0.387486 0.424548 0.161845
C21   C     C_R   0.920470 0.387913 0.423805 0.239942
C22   C     C_R   0.871111 0.506329 0.496389 -0.028902
C23   C     C_2   0.463874 0.115155 0.409311 0.143430
C24   C     C_2   0.516911 0.065333 0.507135 0.107167
C25   C     C_2   0.515340 0.884787 0.595132 -0.128607
Cu1   Cu    Cu3+1 0.521920 0.521810 0.644910 1.017553
Cu2   Cu    Cu3+1 0.478080 0.478190 0.355090 0.941435
H1    H     H_    0.372914 0.378438 0.068363 0.184691
H2    H     H_    0.300294 0.980326 0.301844 0.246838
H3    H     H_    0.378549 0.902363 0.081802 0.131144
H4    H     H_    0.499307 0.038469 0.146484 0.154946
H5    H     H_    0.339385 0.059602 0.083576 0.190347
H6    H     H_    0.284364 0.486659 0.904195 0.219618
H7    H     H_    0.298507 0.280355 0.659788 0.173700
H8    H     H_    0.268999 0.265462 0.826650 0.127054
H9    H     H_    0.427083 0.262938 0.787211 0.148612
H10   H     H_    0.697791 0.580797 0.181626 0.275769
H11   H     H_    0.640158 0.809059 0.315488 0.144136
H12   H     H_    0.265481 0.737384 0.664343 0.126440
H13   H     H_    0.502671 0.764459 0.173406 0.132303
H14   H     H_    0.659420 0.774033 0.131005 0.165904
H15   H     H_    0.717375 0.628809 0.875854 0.370822
H16   H     H_    0.284894 0.950970 0.800390 0.311168
H17   H     H_    0.754645 0.733103 0.500286 0.324428
H18   H     H_    0.759076 0.275970 0.368370 0.325236
H19   H     H_    0.610096 0.149781 0.723558 0.247079
H20   H     H_    0.816931 0.177602 0.667472 0.163078
H21   H     H_    0.752559 0.105399 0.474980 0.177256
H22   H     H_    0.757597 0.007049 0.586719 0.164319
H23   H     H_    0.952291 0.952999 0.764480 0.145290
H24   H     H_    0.424592 0.864785 0.387869 0.139662
H25   H     H_    0.562509 0.947501 0.703642 0.121679
H26   H     H_    0.185394 0.255622 0.400795 0.243881
H27   H     H_    0.143350 0.296421 0.166130 0.146189
H28   H     H_    0.985201 0.221428 0.145089 0.190322
H29   H     H_    0.117229 0.128575 0.148768 0.161523
N1    N     N_2   0.445130 0.445430 0.137370 -0.351301
N2    N     N_2   0.554930 0.554500 0.862630 -0.056159
N3    N     N_2   0.097886 0.266949 0.352640 -0.465816
N4    N     N_2   0.367497 0.042597 0.288459 -0.563508
N5    N     N_2   0.355926 0.448366 0.848386 -0.503906
N6    N     N_2   0.608731 0.610612 0.183779 -0.422239
N7    N     N_2   0.620206 0.139377 0.618452 -0.500012
O1    O     O_R   0.511700 0.332330 0.577400 -0.476818
O2    O     O_3   0.196154 0.969488 0.804726 -0.743738
O3    O     O_3   0.781208 0.768928 0.608050 -0.718610
O4    O     O_3   0.847316 0.269012 0.353229 -0.701584
O5    O     O_R   0.474680 0.295500 0.332650 -0.499531
O6    O     O_R   0.338160 0.518420 0.622400 -0.490590
O7    O     O_R   0.301140 0.481590 0.377650 -0.505843
O8    O     O_R   0.525320 0.704500 0.667350 -0.486654
O9    O     O_R   0.488300 0.667670 0.422600 -0.475731
O10   O     O_R   0.698860 0.518410 0.622350 -0.465785
O11   O     O_R   0.661840 0.481580 0.377600 -0.500560
O12   O     O_3   0.676270 0.580210 0.926705 -0.659479

loop_
_geom_bond_atom_site_label_1
_geom_bond_atom_site_label_2
_ccdc_geom_bond_type
H18   O4    S    
C14   H29   S    
C23   C24   D    
C11   O3    S    
C15   H4    S    
Cu1   O8    S    
C8    H12   S    
C17   N6    S    
C7    O11   A    
C7    C22   S    
C11   C13   A    
C9    C10   A    
C2    C24   S    
H17   O3    S    
C19   C20   A    
H2    N4    S    
C8    C12   A    
H19   N7    S    
H16   O2    S    
C18   H20   S    
C1    O5    A    
C1    C23   S    
C4    O7    A    
H10   N6    S    
H26   N3    S    
C25   H25   S    
C5    N5    S    
C15   H5    S    
C7    O10   A    
C21   C22   A    
C16   H9    S    
C20   N3    S    
C6    O9    A    
C14   N3    S    
Cu1   N2    S    
H15   O12   S    
C23   N4    S    
Cu2   O7    S    
C5    N2    D    
C3    N1    D    
C12   C19   A    
C4    O6    A    
C14   H27   S    
C13   C22   A    
C14   H28   S    
C2    C25   D    
C17   H14   S    
C17   H11   S    
C16   H8    S    
Cu1   Cu2   S    
C6    O8    A    
C9    O2    S    
C18   N7    S    
C6    C25   S    
C16   N5    S    
C24   N7    S    
Cu2   O11   S    
C1    O1    A    
Cu1   O10   S    
C12   C13   A    
C15   H3    S    
H6    N5    S    
C10   C11   A    
C3    N6    S    
Cu1   O6    S    
Cu1   O1    S    
C8    C9    A    
Cu2   O5    S    
Cu2   N1    S    
C2    H24   S    
C16   H7    S    
C20   C21   A    
H1    N1    S    
C4    C19   S    
C15   N4    S    
C21   O4    S    
Cu2   O9    S    
C18   H22   S    
C18   H21   S    
N2    O12   S    
C3    C5    S    
C17   H13   S    
C10   H23   S    
