data_mof_unit_27660.cif
_audit_creation_date              2012-12-10T17:28:34-0500
_audit_creation_method            fapswitch 2.2
_symmetry_space_group_name_H-M    P1
_symmetry_Int_Tables_number       1
_space_group_crystal_system       triclinic
_cell_length_a                    10.772074
_cell_length_b                    11.992502
_cell_length_c                    12.78707
_cell_angle_alpha                 93.552789
_cell_angle_beta                  89.222507
_cell_angle_gamma                 86.369001
_cell_volume                      1645.14826857

loop_
_atom_site_label
_atom_site_type_symbol
_atom_type_description
_atom_site_fract_x
_atom_site_fract_y
_atom_site_fract_z
_atom_type_partial_charge
C1    C     C_R   0.498947 0.523057 0.700308 0.877519
C2    C     C_R   0.501054 0.476943 0.299692 0.877521
C3    C     C_R   0.488152 0.459138 0.188624 -0.127429
C4    C     C_R   0.511851 0.540861 0.811376 -0.127425
C5    C     C_R   0.651941 0.553596 0.955636 0.001037
C6    C     C_R   0.348069 0.446388 0.044362 0.001042
C7    C     C_R   0.626287 0.570022 0.851291 0.012577
C8    C     C_R   0.373720 0.429968 0.148707 0.012573
C9    C     C_R   0.413668 0.519152 0.876888 -0.094841
C10   C     C_R   0.586337 0.480842 0.123113 -0.094842
C11   C     C_R   0.438678 0.492509 0.980334 0.012931
C12   C     C_R   0.561329 0.507480 0.019665 0.012932
C13   C     C_R   0.380680 0.954605 0.404964 0.010400
C14   C     C_R   0.619321 0.045395 0.595034 0.010400
C15   C     C_R   0.393553 0.837909 0.414006 -0.010357
C16   C     C_R   0.606446 0.162091 0.585994 -0.010356
C17   C     C_R   0.550840 0.857873 0.540279 -0.045212
C18   C     C_R   0.449161 0.142127 0.459719 -0.045211
C19   C     C_R   0.543266 0.975548 0.534308 0.031541
C20   C     C_R   0.456735 0.024452 0.465690 0.031541
C21   C     C_R   0.739489 0.500409 0.499878 0.865868
C22   C     C_R   0.260512 0.499591 0.500122 0.865865
C23   C     C_R   0.877027 0.385531 0.656554 -0.169606
C24   C     C_R   0.122975 0.614459 0.343442 -0.169603
C25   C     C_R   0.943801 0.325106 0.728694 -0.129958
C26   C     C_R   0.056203 0.674883 0.271300 -0.129950
C27   C     C_R   0.072179 0.321817 0.726561 -0.115344
C28   C     C_R   0.927824 0.678184 0.273439 -0.115351
C29   C     C_R   0.133650 0.380497 0.653532 -0.133081
C30   C     C_R   0.866351 0.619512 0.346473 -0.133091
C31   C     C_R   0.067783 0.439478 0.575839 0.083579
C32   C     C_R   0.932217 0.560525 0.424163 0.083585
C33   C     C_R   0.937759 0.441387 0.576917 0.079213
C34   C     C_R   0.062242 0.558610 0.423082 0.079213
C35   C     C_R   0.128180 0.498668 0.499340 -0.203125
C36   C     C_R   0.871820 0.501332 0.500661 -0.203126
H1    H     H_    0.875413 0.724042 0.216600 0.150066
H2    H     H_    0.124593 0.275960 0.783399 0.150074
H3    H     H_    0.777528 0.388467 0.666882 0.148754
H4    H     H_    0.222475 0.611517 0.333112 0.148748
H5    H     H_    0.895482 0.282363 0.787625 0.139889
H6    H     H_    0.104523 0.717619 0.212364 0.139889
H7    H     H_    0.232840 0.380543 0.662645 0.166115
H8    H     H_    0.767160 0.619478 0.337365 0.166122
H9    H     H_    0.384546 0.182225 0.407562 0.150093
H10   H     H_    0.615456 0.817775 0.592436 0.150095
H11   H     H_    0.663573 0.216836 0.631999 0.126849
H12   H     H_    0.336426 0.783164 0.368002 0.126852
N1    N     N_R   0.523130 0.207800 0.519340 -0.116883
N2    N     N_R   0.476870 0.792200 0.480660 -0.116884
O1    O     O_R   0.506170 0.421700 0.658830 -0.630655
O2    O     O_R   0.493830 0.578300 0.341170 -0.630655
O3    O     O_R   0.491330 0.609310 0.646410 -0.614069
O4    O     O_R   0.508670 0.390690 0.353590 -0.614073
O5    O     O_R   0.690650 0.406190 0.506220 -0.616928
O6    O     O_R   0.309350 0.593810 0.493780 -0.616926
O7    O     O_R   0.675800 0.593810 0.493800 -0.636729
O8    O     O_R   0.324200 0.406190 0.506200 -0.636724
Zn1   Zn    Zn3+2 0.509910 0.374730 0.508290 0.938674
Zn2   Zn    Zn3+2 0.490090 0.625270 0.491710 0.938674
N3    N     N_3   0.291529 0.001707 0.334696 -0.466250
H13   H     H_    0.249947 0.938168 0.290773 0.182554
H14   H     H_    0.220627 0.044703 0.380527 0.188005
N4    N     N_3   0.708473 0.998292 0.665300 -0.466251
H15   H     H_    0.750054 0.061831 0.709226 0.182553
H16   H     H_    0.779377 0.955300 0.619468 0.188005
C37   C     C_1   0.711597 0.456117 0.159225 0.143590
N5    N     N_1   0.811227 0.433698 0.187342 -0.179253
C38   C     C_1   0.288407 0.543880 0.840782 0.143586
N6    N     N_1   0.188775 0.566301 0.812670 -0.179256
N7    N     N_3   0.285505 0.377690 0.212063 -0.434948
H17   H     H_    0.264385 0.428174 0.279858 0.176315
H18   H     H_    0.327311 0.301981 0.234444 0.205138
N8    N     N_3   0.714507 0.622295 0.787936 -0.434953
H19   H     H_    0.735621 0.571815 0.720139 0.176316
H20   H     H_    0.672712 0.698011 0.765562 0.205135
C39   C     C_1   0.770141 0.589056 0.994035 0.227801
N9    N     N_1   0.865065 0.617537 0.023115 -0.193837
C40   C     C_1   0.229878 0.410909 0.005959 0.227807
N10   N     N_1   0.134962 0.382412 0.976876 -0.193854

loop_
_geom_bond_atom_site_label_1
_geom_bond_atom_site_label_2
_ccdc_geom_bond_type
O5    Zn1   S    
C27   C29   A    
C19   C20   A    
C21   C36   S    
C39   N9    T    
C22   C35   S    
N8    H20   S    
C32   C36   A    
C24   C26   A    
C27   H2    S    
C33   C36   A    
C34   C35   A    
C15   N2    A    
N3    H14   S    
C1    O3    A    
O2    Zn2   S    
C17   C19   A    
C23   C33   A    
C31   C33   A    
C29   H7    S    
C30   H8    S    
N3    H13   S    
C15   H12   S    
C4    C7    A    
C10   C12   A    
C16   H11   S    
O3    Zn2   S    
C7    N8    S    
C5    C7    A    
O4    Zn1   S    
N8    H19   S    
C37   N5    T    
C17   H10   S    
C5    C12   A    
C3    C8    A    
C2    O4    A    
C25   H5    S    
C6    C11   A    
C21   O5    A    
O7    Zn2   S    
C6    C8    A    
O8    Zn1   S    
C10   C37   S    
C24   C34   A    
O6    Zn2   S    
C32   C34   A    
C21   O7    A    
C9    C11   A    
C14   N4    S    
C16   N1    A    
C1    O1    A    
C2    O2    A    
C13   C15   A    
C14   C16   A    
O1    Zn1   S    
C5    C39   S    
C18   H9    S    
C26   H6    S    
N7    H18   S    
C8    N7    S    
C13   C20   A    
C14   C19   A    
C9    C38   S    
C17   N2    A    
C22   O8    A    
C22   O6    A    
C11   C12   A    
C25   C27   A    
C26   C28   A    
N1    Zn1   S    
C1    C4    S    
N2    Zn2   S    
N4    H15   S    
C28   C30   A    
C2    C3    S    
N7    H17   S    
C29   C31   A    
C3    C10   A    
C30   C32   A    
C6    C40   S    
C28   H1    S    
C23   H3    S    
C31   C35   A    
C24   H4    S    
C18   C20   A    
C23   C25   A    
C38   N6    T    
C40   N10   T    
C13   N3    S    
C4    C9    A    
C18   N1    A    
N4    H16   S    
