data_mof_unit_37404.cif
_audit_creation_date              2012-12-11T15:52:16-0500
_audit_creation_method            fapswitch 2.2
_symmetry_space_group_name_H-M    P1
_symmetry_Int_Tables_number       1
_space_group_crystal_system       triclinic
_cell_length_a                    10.981758
_cell_length_b                    11.034339
_cell_length_c                    18.785987
_cell_angle_alpha                 90.100675
_cell_angle_beta                  89.57482
_cell_angle_gamma                 119.768671
_cell_volume                      1975.9568245

loop_
_atom_site_label
_atom_site_type_symbol
_atom_type_description
_atom_site_fract_x
_atom_site_fract_y
_atom_site_fract_z
_atom_type_partial_charge
C1    C     C_R   0.519619 0.458103 0.147546 0.535575
C2    C     C_R   0.542376 0.061117 0.147499 0.537135
C3    C     C_R   0.939861 0.480709 0.147879 0.537661
C4    C     C_R   0.451765 0.522398 0.855161 0.547955
C5    C     C_R   0.075850 0.550936 0.856460 0.557176
C6    C     C_R   0.454287 0.877325 0.860263 0.557959
C7    C     C_3   0.739222 0.030649 0.541715 0.003138
C8    C     C_3   0.931706 0.687786 0.554434 -0.002557
C9    C     C_3   0.340991 0.245220 0.548532 -0.014449
C10   C     C_3   0.904915 0.680051 0.474827 0.019960
C11   C     C_3   0.756371 0.054592 0.461906 0.004830
C12   C     C_3   0.339083 0.230938 0.468004 0.006022
C13   C     C_R   0.515951 0.457277 0.352636 0.539539
C14   C     C_R   0.542224 0.059365 0.352919 0.536857
C15   C     C_R   0.933450 0.478798 0.355030 0.545255
C16   C     C_R   0.453741 0.522949 0.644090 0.548124
C17   C     C_R   0.063987 0.543018 0.646050 0.540293
C18   C     C_R   0.454586 0.877348 0.638642 0.566233
C19   C     C_R   0.461972 0.907946 0.936199 -0.003020
C20   C     C_R   0.051890 0.533844 0.932718 0.056105
C21   C     C_R   0.469631 0.510550 0.930823 0.021702
C22   C     C_R   0.016040 0.507770 0.080866 -0.003460
C23   C     C_R   0.494163 0.982280 0.081458 -0.001038
C24   C     C_R   0.494262 0.504265 0.079565 -0.008176
C25   C     C_R   0.375364 0.951239 0.969200 -0.010337
C26   C     C_R   0.031832 0.413507 0.967169 0.025913
C27   C     C_R   0.592353 0.604940 0.964687 -0.013929
C28   C     C_R   0.011776 0.399308 0.040010 0.040343
C29   C     C_R   0.392043 0.988316 0.040293 0.013727
C30   C     C_R   0.604978 0.603176 0.037616 0.041413
C31   C     C_R   0.566484 0.918788 0.051680 -0.156833
C32   C     C_R   0.067821 0.638934 0.048547 -0.165063
C33   C     C_R   0.362323 0.427095 0.047668 -0.156200
C34   C     C_R   0.080639 0.650680 0.974736 -0.134208
C35   C     C_R   0.552366 0.884647 0.979334 -0.166809
C36   C     C_R   0.350796 0.427616 0.973756 -0.134224
C37   C     C_3   0.337072 0.060740 0.950330 -0.034245
C38   C     C_3   0.929826 0.263363 0.953350 -0.022610
C39   C     C_3   0.741987 0.646006 0.951008 -0.022158
C40   C     C_3   0.904865 0.247547 0.033649 -0.000256
C41   C     C_3   0.359709 0.103607 0.028679 0.015081
C42   C     C_3   0.756788 0.645310 0.031836 0.005205
C43   C     C_R   0.465863 0.912753 0.563924 0.015749
C44   C     C_R   0.003537 0.497363 0.576798 0.014094
C45   C     C_R   0.475588 0.514520 0.568973 0.021226
C46   C     C_R   0.964835 0.487031 0.429723 -0.004417
C47   C     C_R   0.500091 0.980888 0.418818 -0.007119
C48   C     C_R   0.480648 0.491935 0.421103 -0.008149
C49   C     C_R   0.585845 0.937559 0.527098 -0.004112
C50   C     C_R   0.924120 0.549484 0.547035 0.023829
C51   C     C_R   0.380586 0.393479 0.534965 0.005351
C52   C     C_R   0.903637 0.543039 0.475086 0.018105
C53   C     C_R   0.600090 0.962423 0.455647 0.047348
C54   C     C_R   0.379884 0.382286 0.462834 0.059534
C55   C     C_R   0.372495 0.943817 0.452700 -0.174941
C56   C     C_R   0.027526 0.415534 0.459738 -0.173417
C57   C     C_R   0.558347 0.623305 0.452466 -0.182592
C58   C     C_R   0.046967 0.420652 0.533368 -0.119691
C59   C     C_R   0.354292 0.907552 0.525149 -0.127784
C60   C     C_R   0.556408 0.634004 0.526926 -0.137021
Cr1   Cr    Cr6+3 0.769160 0.541570 0.250690 0.996841
Cr2   Cr    Cr6+3 0.458430 0.227590 0.250690 1.024276
Cr3   Cr    Cr6+3 0.772410 0.230840 0.250690 0.995135
Cr4   Cr    Cr6+3 0.541570 0.769160 0.749310 0.985869
Cr5   Cr    Cr6+3 0.227590 0.458430 0.749310 0.998015
Cr6   Cr    Cr6+3 0.230840 0.772410 0.749310 0.997303
H1    H     H_    0.643552 0.907705 0.082276 0.159474
H2    H     H_    0.081733 0.728056 0.079040 0.133083
H3    H     H_    0.271142 0.356214 0.078798 0.174234
H4    H     H_    0.106860 0.749630 0.950600 0.137301
H5    H     H_    0.620042 0.850353 0.955897 0.145548
H6    H     H_    0.249545 0.359954 0.950356 0.149162
H7    H     H_    0.226995 0.015946 0.931836 0.142316
H8    H     H_    0.979185 0.205149 0.929952 0.145332
H9    H     H_    0.803183 0.750025 0.925033 0.161424
H10   H     H_    0.797492 0.221092 0.051282 0.173868
H11   H     H_    0.450329 0.209218 0.039233 0.177995
H12   H     H_    0.782125 0.566326 0.052680 0.172957
H13   H     H_    0.293908 0.955723 0.424817 0.140539
H14   H     H_    0.065946 0.361207 0.426470 0.145419
H15   H     H_    0.629629 0.712907 0.420827 0.159118
H16   H     H_    0.105723 0.374591 0.555139 0.159464
H17   H     H_    0.258680 0.886317 0.551722 0.144662
H18   H     H_    0.622373 0.732811 0.551831 0.154051
H19   H     H_    0.792356 0.975926 0.564136 0.157679
H20   H     H_    0.034723 0.774780 0.570914 0.164783
H21   H     H_    0.237530 0.183905 0.575718 0.167858
H22   H     H_    0.803224 0.668376 0.460111 0.183481
H23   H     H_    0.796234 0.164338 0.444836 0.183057
H24   H     H_    0.418942 0.207315 0.445703 0.172563
O1    O     O_R   0.911480 0.572650 0.170990 -0.535844
O2    O     O_R   0.427350 0.338830 0.170990 -0.498924
O3    O     O_R   0.661170 0.088520 0.170990 -0.540199
O4    O     O_R   0.572650 0.911480 0.829010 -0.524704
O5    O     O_R   0.338830 0.427350 0.829010 -0.514359
O6    O     O_R   0.088520 0.661170 0.829010 -0.521204
O7    O     O_R   0.640340 0.528970 0.175680 -0.509732
O8    O     O_R   0.471030 0.111370 0.175680 -0.476598
O9    O     O_R   0.888630 0.359660 0.175680 -0.507582
O10   O     O_R   0.528970 0.640340 0.824320 -0.521272
O11   O     O_R   0.111370 0.471030 0.824320 -0.514802
O12   O     O_R   0.359660 0.888630 0.824320 -0.504438
O13   O     O_R   0.909980 0.572450 0.331530 -0.521779
O14   O     O_R   0.427550 0.337530 0.331530 -0.523743
O15   O     O_R   0.662470 0.090020 0.331530 -0.530596
O16   O     O_R   0.572450 0.909980 0.668470 -0.528668
O17   O     O_R   0.337530 0.427550 0.668470 -0.525872
O18   O     O_R   0.090020 0.662470 0.668470 -0.544414
O19   O     O_R   0.638950 0.528780 0.324500 -0.505839
O20   O     O_R   0.471220 0.110170 0.324500 -0.515863
O21   O     O_R   0.889830 0.361050 0.324500 -0.507918
O22   O     O_R   0.528780 0.638950 0.675500 -0.515197
O23   O     O_R   0.110170 0.471220 0.675500 -0.502898
O24   O     O_R   0.361050 0.889830 0.675500 -0.490661
O25   O     O_3   0.666667 0.333333 0.250560 -0.251077
O26   O     O_3   0.333333 0.666667 0.749440 -0.290866
N1    N     N_3   0.438800 0.172234 0.903919 -0.641609
H25   H     H_    0.540435 0.193788 0.915662 0.248020
H26   H     H_    0.418411 0.137860 0.851265 0.267741
N2    N     N_3   0.806958 0.244761 0.914746 -0.661267
H27   H     H_    0.835922 0.270081 0.861396 0.251315
H28   H     H_    0.734088 0.138328 0.915480 0.247396
N3    N     N_3   0.759370 0.536917 0.915810 -0.628570
H29   H     H_    0.693853 0.440006 0.939640 0.250377
H30   H     H_    0.728119 0.530486 0.862868 0.246177
N4    N     N_3   0.955149 0.159890 0.065154 -0.667371
H31   H     H_    0.942194 0.160123 0.120333 0.262172
H32   H     H_    0.889191 0.057589 0.048211 0.245060
N5    N     N_3   0.231782 0.078586 0.065970 -0.605228
H33   H     H_    0.160712 0.971773 0.068630 0.214992
H34   H     H_    0.184444 0.123707 0.036296 0.243872
N6    N     N_3   0.843925 0.785465 0.060099 -0.666644
H35   H     H_    0.857964 0.776685 0.114422 0.259116
H36   H     H_    0.942225 0.827146 0.035762 0.213890
N7    N     N_3   0.772148 0.159496 0.579700 -0.644775
H37   H     H_    0.767333 0.141441 0.634434 0.267201
H38   H     H_    0.699487 0.191394 0.567603 0.247312
N8    N     N_3   0.816112 0.677342 0.597468 -0.644857
H39   H     H_    0.832764 0.778645 0.603432 0.218867
H40   H     H_    0.824454 0.644715 0.648539 0.250589
N9    N     N_3   0.452854 0.229086 0.581364 -0.645554
H41   H     H_    0.456299 0.253205 0.635399 0.252513
H42   H     H_    0.550306 0.300239 0.559119 0.230841
N10   N     N_3   0.022671 0.792358 0.435934 -0.683649
H43   H     H_    0.983324 0.817722 0.391339 0.252660
H44   H     H_    0.090995 0.759321 0.417061 0.245737
N11   N     N_3   0.830843 0.989645 0.429506 -0.667000
H45   H     H_    0.935577 0.049285 0.444223 0.258177
H46   H     H_    0.828493 0.999201 0.374278 0.250633
N12   N     N_3   0.197809 0.142788 0.440951 -0.669005
H47   H     H_    0.153913 0.047682 0.467997 0.249353
H48   H     H_    0.205469 0.121716 0.387360 0.254141

loop_
_geom_bond_atom_site_label_1
_geom_bond_atom_site_label_2
_ccdc_geom_bond_type
C38   C40   S    
C45   C60   A    
N4    H31   S    
Cr4   O26   S    
C55   C59   A    
N1    H25   S    
Cr6   O12   S    
C44   C58   A    
N11   H45   S    
C9    C51   S    
Cr5   O11   S    
Cr1   O19   S    
C18   O24   A    
N1    H26   S    
C17   O23   A    
N3    H29   S    
C21   C36   A    
C31   H1    S    
C6    C19   S    
C10   H22   S    
Cr6   O26   S    
C23   C29   A    
C12   H24   S    
Cr1   O13   S    
Cr1   O1    S    
C59   H17   S    
C58   H16   S    
C41   H11   S    
N3    H30   S    
C28   C40   S    
C46   C52   A    
C33   C36   A    
C39   N3    S    
C3    O1    A    
C13   O19   A    
C16   O17   A    
C25   C37   S    
Cr2   O8    S    
N7    H38   S    
C14   O15   A    
C27   C39   S    
N6    H35   S    
C6    O4    A    
Cr2   O2    S    
Cr1   O25   S    
Cr3   O9    S    
C39   H9    S    
Cr3   O15   S    
C34   H4    S    
C8    H20   S    
C11   C53   S    
C43   C59   A    
C47   C53   A    
Cr3   O25   S    
N7    H37   S    
C21   C27   A    
C35   H5    S    
C22   C28   A    
C27   C30   A    
C37   C41   S    
C9    C12   S    
N2    H28   S    
C39   C42   S    
Cr2   O14   S    
C25   C29   A    
C5    O11   A    
Cr6   O6    S    
C12   N12   S    
C48   C57   A    
C7    C49   S    
N10   H44   S    
C17   O18   A    
C1    O7    A    
C5    C20   S    
C9    N9    S    
C43   C49   A    
C8    N8    S    
C40   H10   S    
C23   C31   A    
C48   C54   A    
C7    C11   S    
C18   O16   A    
C7    N7    S    
C15   O21   A    
C4    O5    A    
C55   H13   S    
C10   C52   S    
C11   H23   S    
C50   C52   A    
Cr2   O20   S    
Cr5   O5    S    
C40   N4    S    
Cr1   O7    S    
C10   N10   S    
C13   O14   A    
C22   C32   A    
C8    C10   S    
C42   H12   S    
C1    O2    A    
C4    O10   A    
Cr5   O26   S    
N12   H48   S    
C8    C50   S    
C5    O6    A    
N2    H27   S    
C16   O22   A    
C47   C55   A    
N5    H33   S    
C38   H8    S    
C44   C50   A    
C14   O20   A    
C37   H7    S    
N4    H32   S    
Cr6   O24   S    
N11   H46   S    
N12   H47   S    
Cr5   O23   S    
C2    O3    A    
C26   C38   S    
Cr6   O18   S    
N10   H43   S    
C57   C60   A    
C16   C45   S    
C13   C48   S    
Cr4   O16   S    
C14   C47   S    
N8    H40   S    
C33   H3    S    
Cr3   O3    S    
C26   C28   A    
C24   C33   A    
C56   H14   S    
C32   H2    S    
C51   C54   A    
N9    H42   S    
C17   C44   S    
C38   N2    S    
Cr2   O25   S    
C19   C35   A    
C18   C43   S    
C9    H21   S    
C41   N5    S    
C4    C21   S    
C60   H18   S    
C11   N11   S    
C7    H19   S    
C20   C26   A    
C49   C53   A    
C56   C58   A    
C31   C35   A    
C6    O12   A    
Cr3   O21   S    
C19   C25   A    
C57   H15   S    
C24   C30   A    
Cr4   O22   S    
N8    H39   S    
Cr4   O4    S    
C20   C34   A    
C3    O9    A    
Cr4   O10   S    
C37   N1    S    
C2    O8    A    
C1    C24   S    
N6    H36   S    
C46   C56   A    
C2    C23   S    
C45   C51   A    
C29   C41   S    
C30   C42   S    
C3    C22   S    
C42   N6    S    
C15   C46   S    
C15   O13   A    
N9    H41   S    
Cr5   O17   S    
C12   C54   S    
C36   H6    S    
C32   C34   A    
N5    H34   S    
