data_mof_unit_41828.cif
_audit_creation_date              2012-12-10T16:32:37-0500
_audit_creation_method            fapswitch 2.2
_symmetry_space_group_name_H-M    P1
_symmetry_Int_Tables_number       1
_space_group_crystal_system       triclinic
_cell_length_a                    16.978605
_cell_length_b                    16.968736
_cell_length_c                    16.855405
_cell_angle_alpha                 65.540348
_cell_angle_beta                  64.571543
_cell_angle_gamma                 65.338752
_cell_volume                      3818.95688656

loop_
_atom_site_label
_atom_site_type_symbol
_atom_type_description
_atom_site_fract_x
_atom_site_fract_y
_atom_site_fract_z
_atom_type_partial_charge
C1    C     C_R   0.587112 0.031035 0.599896 0.123073
C2    C     C_R   0.822611 0.567902 0.026348 0.878738
C3    C     C_R   0.432367 0.971797 0.178254 0.876491
C4    C     C_R   0.559154 0.044579 0.821715 0.917073
C5    C     C_R   0.561203 0.821322 0.039432 0.910679
C6    C     C_R   0.430870 0.175338 0.980574 0.886065
C7    C     C_R   0.020258 0.568785 0.824249 0.897996
C8    C     C_R   0.960432 0.438594 0.179356 0.905191
C9    C     C_R   0.821889 0.027580 0.568039 0.906254
C10   C     C_R   0.178308 0.955039 0.440868 0.890919
C11   C     C_R   0.539404 0.011972 0.553915 0.004910
C12   C     C_R   0.400317 0.964299 0.416092 0.122881
C13   C     C_R   0.447885 0.979972 0.464858 0.004977
C14   C     C_R   0.058820 0.537005 0.523357 0.007628
C15   C     C_R   0.023752 0.445103 0.436966 0.005176
C16   C     C_R   0.553087 0.560528 0.982063 0.006260
C17   C     C_R   0.462309 0.471636 0.948987 0.007592
C18   C     C_R   0.577739 0.013169 0.459891 0.147802
C19   C     C_R   0.402024 0.998840 0.551276 0.156610
C20   C     C_R   0.067287 0.442894 0.558977 0.150411
C21   C     C_R   0.046807 0.527748 0.387354 0.147415
C22   C     C_R   0.469742 0.607984 0.960670 0.149877
C23   C     C_R   0.055904 0.587528 0.581839 0.128690
C24   C     C_R   0.556784 0.436520 0.940201 0.143586
C25   C     C_R   0.541869 0.976628 0.425563 0.145707
C26   C     C_R   0.453961 0.992714 0.601801 0.151220
C27   C     C_R   0.417119 0.558104 0.966432 0.157284
C28   C     C_R   0.592398 0.468869 0.978752 0.153775
C29   C     C_R   0.027961 0.406297 0.528627 0.154420
C30   C     C_R   0.042551 0.580917 0.436337 0.158286
C31   C     C_R   0.539382 0.066059 0.675828 -0.207121
C32   C     C_R   0.429028 0.985649 0.319860 -0.229998
C33   C     C_R   0.072680 0.672279 0.545021 -0.235120
C34   C     C_R   0.994958 0.402037 0.394417 0.118719
C35   C     C_R   0.008184 0.308415 0.422566 -0.226540
C36   C     C_R   0.690807 0.576333 0.994066 -0.229442
C37   C     C_R   0.328447 0.451698 0.931525 -0.232916
C38   C     C_R   0.323227 0.931984 0.462605 -0.208453
C39   C     C_R   0.682730 0.010468 0.571555 -0.226389
C40   C     C_R   0.445326 0.318857 0.973432 -0.222613
C41   C     C_R   0.546177 0.679378 0.044685 -0.205602
C42   C     C_R   0.957259 0.452503 0.321790 -0.205361
C43   C     C_R   0.031126 0.553898 0.678463 -0.226467
C44   C     C_R   0.587563 0.073089 0.722000 -0.135393
C45   C     C_R   0.596561 0.604954 0.008303 0.119406
C46   C     C_R   0.395688 0.956779 0.275953 -0.101000
C47   C     C_R   0.038954 0.728891 0.601885 -0.091919
C48   C     C_R   0.967395 0.271706 0.394023 -0.105338
C49   C     C_R   0.727706 0.606352 0.033433 -0.095645
C50   C     C_R   0.271198 0.396666 0.962906 -0.104542
C51   C     C_R   0.277548 0.926705 0.412627 -0.131537
C52   C     C_R   0.724891 0.041410 0.604850 -0.107585
C53   C     C_R   0.392498 0.267339 0.983706 -0.109608
C54   C     C_R   0.591083 0.723162 0.060103 -0.128947
C55   C     C_R   0.940220 0.408190 0.278447 -0.125321
C56   C     C_R   0.412303 0.414339 0.949803 0.126894
C57   C     C_R   0.018295 0.606833 0.731557 -0.117808
C58   C     C_R   0.674034 0.081159 0.675654 -0.067683
C59   C     C_R   0.324376 0.918517 0.325681 -0.062176
C60   C     C_R   0.001128 0.697825 0.695191 -0.079843
C61   C     C_R   0.927091 0.324311 0.325352 -0.071124
C62   C     C_R   0.674857 0.676510 0.073053 -0.068078
C63   C     C_R   0.301209 0.304525 0.999958 -0.083492
C64   C     C_3   0.419519 0.956853 0.705146 -0.903274
C65   C     C_3   0.607910 0.929031 0.352859 -0.889625
C66   C     C_3   0.013993 0.682595 0.395761 -0.895281
C67   C     C_R   0.973805 0.177293 0.432218 0.915666
C68   C     C_3   0.984623 0.333002 0.599189 -0.898150
C69   C     C_3   0.664979 0.400481 0.022603 -0.897031
C70   C     C_3   0.314522 0.597063 0.998457 -0.896610
C71   C     C_3   0.299424 0.033963 0.588517 -0.913223
C72   C     C_3   0.651312 0.058080 0.392170 -0.890660
C73   C     C_3   0.623076 0.372165 0.883382 -0.901425
C74   C     C_3   0.439692 0.709931 0.921743 -0.904188
C75   C     C_3   0.085953 0.556215 0.283769 -0.898029
C76   C     C_3   0.124650 0.378282 0.621405 -0.917485
C77   C     C_1   0.709700 0.125717 0.704475 0.224930
C78   C     C_R   0.033651 0.822134 0.564038 0.870128
C79   C     C_1   0.295855 0.874937 0.288594 0.217538
C80   C     C_1   0.938706 0.757423 0.753179 0.230236
C81   C     C_1   0.875953 0.292828 0.300085 0.220522
C82   C     C_1   0.705843 0.703198 0.123667 0.219465
C83   C     C_1   0.240008 0.248638 0.061304 0.235677
C84   C     C_R   0.177985 0.435287 0.967023 0.908034
H1    H     H_    0.466327 0.080911 0.704539 0.169341
H2    H     H_    0.473894 0.707987 0.055300 0.175596
H3    H     H_    0.947419 0.524426 0.293664 0.175097
H4    H     H_    0.019843 0.488422 0.713795 0.178946
H5    H     H_    0.392969 0.899602 0.724052 0.243096
H6    H     H_    0.474833 0.928626 0.736428 0.253955
H7    H     H_    0.363249 0.010271 0.735125 0.240217
H8    H     H_    0.672410 0.887966 0.369841 0.245237
H9    H     H_    0.581950 0.880322 0.350289 0.251746
H10   H     H_    0.624132 0.978869 0.284585 0.240482
H11   H     H_    0.972984 0.702719 0.350295 0.242332
H12   H     H_    0.478483 0.022964 0.278798 0.172591
H13   H     H_    0.967972 0.717050 0.449752 0.250900
H14   H     H_    0.074728 0.707445 0.353892 0.241845
H15   H     H_    0.952358 0.346610 0.666974 0.240956
H16   H     H_    0.928261 0.332170 0.583021 0.252400
H17   H     H_    0.036875 0.265950 0.606488 0.243000
H18   H     H_    0.650433 0.334100 0.056580 0.242077
H19   H     H_    0.733081 0.390831 0.969979 0.241400
H20   H     H_    0.665069 0.419359 0.078135 0.252369
H21   H     H_    0.294091 0.640328 0.042657 0.242883
H22   H     H_    0.288750 0.639738 0.939022 0.237993
H23   H     H_    0.105870 0.697370 0.472859 0.165815
H24   H     H_    0.280687 0.543138 0.042784 0.253157
H25   H     H_    0.281026 0.089408 0.617842 0.243464
H26   H     H_    0.266808 0.064626 0.533764 0.250876
H27   H     H_    0.270918 0.979376 0.643744 0.240100
H28   H     H_    0.635582 0.096891 0.326492 0.244225
H29   H     H_    0.654252 0.108519 0.415816 0.252491
H30   H     H_    0.718659 0.006634 0.378010 0.241054
H31   H     H_    0.681036 0.399490 0.834028 0.248748
H32   H     H_    0.650729 0.304552 0.927377 0.241906
H33   H     H_    0.591599 0.365425 0.841727 0.247772
H34   H     H_    0.048994 0.263548 0.467435 0.172647
H35   H     H_    0.417678 0.727613 0.861689 0.245926
H36   H     H_    0.381432 0.741813 0.973293 0.239507
H37   H     H_    0.496415 0.739523 0.895820 0.251128
H38   H     H_    0.146950 0.577803 0.263695 0.248983
H39   H     H_    0.109774 0.499244 0.254808 0.249714
H40   H     H_    0.035667 0.613776 0.252168 0.237683
H41   H     H_    0.174160 0.321867 0.591912 0.248819
H42   H     H_    0.165464 0.411331 0.627180 0.246195
H43   H     H_    0.081673 0.349004 0.690602 0.240795
H44   H     H_    0.735976 0.529851 0.953713 0.171588
H45   H     H_    0.304321 0.523076 0.899276 0.163842
H46   H     H_    0.293920 0.916980 0.536024 0.168528
H47   H     H_    0.724693 0.971941 0.522704 0.172105
H48   H     H_    0.510169 0.283289 0.985762 0.179270
N1    N     N_1   0.737857 0.161414 0.727439 -0.201444
N2    N     N_1   0.273135 0.840012 0.259314 -0.215504
N3    N     N_1   0.888959 0.804478 0.799208 -0.184060
N4    N     N_1   0.835064 0.267938 0.279997 -0.199263
N5    N     N_1   0.730302 0.724439 0.164151 -0.205373
N6    N     N_1   0.191668 0.204279 0.110219 -0.183239
O1    O     O_R   0.982940 0.138950 0.510160 -0.629623
O2    O     O_R   0.982940 0.510160 0.138950 -0.630015
O3    O     O_R   0.861050 0.017060 0.489840 -0.631385
O4    O     O_R   0.138950 0.982940 0.510160 -0.636042
O5    O     O_R   0.867700 0.025880 0.612340 -0.610917
O6    O     O_R   0.132300 0.974120 0.387660 -0.611488
O7    O     O_R   0.025880 0.612340 0.867700 -0.623001
O8    O     O_R   0.974120 0.387660 0.132300 -0.605362
O9    O     O_R   0.612340 0.867700 0.025880 -0.604109
O10   O     O_R   0.387660 0.132300 0.974120 -0.628921
O11   O     O_R   0.387660 0.974120 0.132300 -0.619107
O12   O     O_R   0.017060 0.861050 0.489840 -0.636242
O13   O     O_R   0.612340 0.025880 0.867700 -0.604087
O14   O     O_R   0.132300 0.387660 0.974120 -0.616504
O15   O     O_R   0.867700 0.612340 0.025880 -0.619713
O16   O     O_R   0.974120 0.132300 0.387660 -0.610919
O17   O     O_R   0.025880 0.867700 0.612340 -0.629670
O18   O     O_R   0.138950 0.510160 0.982940 -0.628353
O19   O     O_R   0.861050 0.489840 0.017060 -0.638738
O20   O     O_R   0.510160 0.982940 0.138950 -0.638985
O21   O     O_R   0.489840 0.017060 0.861050 -0.627970
O22   O     O_R   0.489840 0.861050 0.017060 -0.627091
O23   O     O_R   0.510160 0.138950 0.982940 -0.645093
O24   O     O_R   0.017060 0.489840 0.861050 -0.643853
Zn1   Zn    Zn3+2 0.004880 0.004880 0.583590 0.970028
Zn2   Zn    Zn3+2 0.995120 0.995120 0.416410 0.979653
Zn3   Zn    Zn3+2 0.004880 0.583590 0.004880 0.968242
Zn4   Zn    Zn3+2 0.995120 0.416410 0.995120 0.968071
Zn5   Zn    Zn3+2 0.583590 0.004880 0.004880 0.975405
Zn6   Zn    Zn3+2 0.416410 0.995120 0.995120 0.967715

loop_
_geom_bond_atom_site_label_1
_geom_bond_atom_site_label_2
_ccdc_geom_bond_type
C16   C28   A    
C65   H8    S    
C72   H28   S    
C11   C18   A    
C5    O9    A    
C46   C59   A    
C75   H38   S    
C76   H42   S    
C19   C71   S    
C28   C69   S    
C34   C42   A    
C64   H6    S    
C40   H48   S    
C9    O5    A    
C50   C84   S    
O7    Zn3   S    
C69   H18   S    
C74   H35   S    
C9    C52   S    
C80   N3    T    
C67   O16   A    
C31   H1    S    
C43   H4    S    
C38   H46   S    
C66   H13   S    
O16   Zn2   S    
C82   N5    T    
O13   Zn5   S    
C24   C73   S    
C4    O21   A    
C10   C51   S    
C71   H26   S    
C72   H30   S    
C1    C31   A    
C23   C43   A    
O21   Zn6   S    
C20   C76   S    
C34   C35   A    
C10   O4    A    
C55   C61   A    
C79   N2    T    
C19   C26   A    
C26   C64   S    
C53   C63   A    
C58   C77   S    
C47   C60   A    
O24   Zn4   S    
C37   C56   A    
C44   C58   A    
C40   C56   A    
C33   H23   S    
C3    O20   A    
C67   O1    A    
C15   C34   S    
C32   C46   A    
C65   H9    S    
C39   C52   A    
C62   C82   S    
C12   C32   A    
C50   C63   A    
C13   C25   A    
C36   H44   S    
C18   C25   A    
C77   N1    T    
C64   H5    S    
C14   C30   A    
C35   C48   A    
C8    C55   S    
O5    Zn1   S    
C30   C66   S    
O20   Zn5   S    
C15   C29   A    
C20   C29   A    
C69   H19   S    
C18   C72   S    
C52   C58   A    
C7    O24   A    
C3    O11   A    
C17   C24   A    
C73   H33   S    
C31   C44   A    
C13   C19   A    
C75   H40   S    
C17   C27   A    
C14   C20   A    
C5    C54   S    
O8    Zn4   S    
C25   C65   S    
C68   H17   S    
C70   H22   S    
C59   C79   S    
O4    Zn1   S    
C9    O3    A    
C57   C60   A    
C38   C51   A    
C4    C44   S    
C11   C26   A    
C23   C33   A    
C72   H29   S    
C63   C83   S    
C14   C23   S    
C16   C45   S    
C68   H16   S    
C41   H2    S    
C2    C49   S    
C42   C55   A    
C71   H27   S    
C29   C68   S    
C6    O10   A    
C1    C39   A    
C6    O23   A    
C5    O22   A    
C36   C45   A    
C10   O6    A    
C47   C78   S    
C73   H32   S    
C17   C56   S    
O23   Zn5   S    
C27   C70   S    
O9    Zn5   S    
C84   O14   A    
C65   H10   S    
C32   H12   S    
C2    O15   A    
C22   C27   A    
C33   C47   A    
C75   H39   S    
C51   C59   A    
C22   C74   S    
C6    C53   S    
C74   H36   S    
C78   O12   A    
C81   N4    T    
C69   H20   S    
O2    Zn3   S    
C4    O13   A    
C60   C80   S    
C16   C22   A    
C49   C62   A    
O15   Zn3   S    
C76   H41   S    
C8    O8    A    
C24   C28   A    
C70   H21   S    
O19   Zn4   S    
O14   Zn4   S    
C42   H3    S    
C54   C62   A    
C21   C30   A    
C21   C75   S    
C3    C46   S    
C73   H31   S    
C8    O2    A    
O17   Zn1   S    
O11   Zn6   S    
C66   H14   S    
O1    Zn1   S    
C68   H15   S    
C61   C81   S    
C37   C50   A    
C84   O18   A    
C48   C61   A    
C39   H47   S    
O18   Zn3   S    
C2    O19   A    
O10   Zn6   S    
C71   H25   S    
C37   H45   S    
O22   Zn6   S    
C48   C67   S    
C12   C38   A    
C78   O17   A    
C41   C54   A    
C43   C57   A    
C15   C21   A    
C74   H37   S    
C12   C13   S    
O3    Zn2   S    
C40   C53   A    
O12   Zn2   S    
C76   H43   S    
C41   C45   A    
C35   H34   S    
C70   H24   S    
C1    C11   S    
C64   H7    S    
C7    C57   S    
C83   N6    T    
O6    Zn2   S    
C36   C49   A    
C66   H11   S    
C7    O7    A    
