data_mof_unit_64756.cif
_audit_creation_date              2012-12-10T17:27:35-0500
_audit_creation_method            fapswitch 2.2
_symmetry_space_group_name_H-M    P1
_symmetry_Int_Tables_number       1
_space_group_crystal_system       triclinic
_cell_length_a                    42.641021
_cell_length_b                    29.424582
_cell_length_c                    29.419363
_cell_angle_alpha                 89.99998
_cell_angle_beta                  133.859565
_cell_angle_gamma                 89.999076
_cell_volume                      26615.2585865

loop_
_atom_site_label
_atom_site_type_symbol
_atom_type_description
_atom_site_fract_x
_atom_site_fract_y
_atom_site_fract_z
_atom_type_partial_charge
C1    C     C_R   0.499986 0.585484 0.500004 0.826027
C2    C     C_R   0.499985 0.414516 0.500003 0.825568
C3    C     C_R   0.999985 0.085484 0.500004 0.826002
C4    C     C_R   0.999985 0.914516 0.500003 0.825587
C5    C     C_3   0.204250 0.499990 0.205715 -0.107293
C6    C     C_3   0.704250 0.999990 0.205715 -0.107290
C7    C     C_3   0.232414 0.506123 0.191311 0.263506
C8    C     C_3   0.732415 0.005552 0.191234 0.263521
C9    C     C_1   0.335360 0.500075 0.336350 0.152376
C10   C     C_1   0.835360 0.000069 0.336350 0.152380
C11   C     C_1   0.158414 0.499992 0.159424 0.155831
C12   C     C_1   0.658415 0.999992 0.159424 0.155839
C13   C     C_1   0.499971 0.636533 0.499961 -0.196704
C14   C     C_1   0.499969 0.363467 0.499959 -0.197518
C15   C     C_1   0.999971 0.136533 0.499961 -0.196746
C16   C     C_1   0.999969 0.863467 0.499959 -0.197481
C17   C     C_1   0.499962 0.678855 0.499947 0.009848
C18   C     C_1   0.499958 0.321145 0.499944 0.008956
C19   C     C_1   0.999961 0.178855 0.499947 0.009801
C20   C     C_1   0.999958 0.821145 0.499944 0.008997
C21   C     C_1   0.499955 0.729022 0.499946 0.010344
C22   C     C_1   0.499951 0.270978 0.499941 0.009599
C23   C     C_1   0.999955 0.229022 0.499945 0.010303
C24   C     C_1   0.999950 0.770978 0.499941 0.009634
C25   C     C_1   0.499952 0.771344 0.499951 0.009414
C26   C     C_1   0.499948 0.228656 0.499946 0.008869
C27   C     C_1   0.999952 0.271344 0.499951 0.009383
C28   C     C_1   0.999948 0.728656 0.499946 0.008895
C29   C     C_1   0.499952 0.821511 0.499961 0.007862
C30   C     C_1   0.499948 0.178489 0.499957 0.007482
C31   C     C_1   0.999952 0.321511 0.499961 0.007840
C32   C     C_1   0.999948 0.678489 0.499957 0.007500
C33   C     C_1   0.499953 0.863833 0.499972 -0.194231
C34   C     C_1   0.499950 0.136167 0.499969 -0.194491
C35   C     C_1   0.999953 0.363833 0.499972 -0.194248
C36   C     C_1   0.999951 0.636167 0.499969 -0.194480
C37   C     C_R   0.418335 0.500009 0.418547 0.856564
C38   C     C_R   0.918335 0.000008 0.418547 0.856558
C39   C     C_1   0.635096 0.500000 0.634713 -0.199541
C40   C     C_1   0.135096 0.000000 0.634713 -0.199540
C41   C     C_1   0.676569 0.500000 0.676172 0.016710
C42   C     C_1   0.176569 0.000001 0.676172 0.016711
C43   C     C_1   0.726142 0.500001 0.725820 0.005151
C44   C     C_1   0.226142 0.000001 0.725820 0.005151
C45   C     C_1   0.767617 0.500001 0.767385 0.005145
C46   C     C_1   0.267617 0.000001 0.767385 0.005146
C47   C     C_1   0.817191 0.500001 0.817076 0.016679
C48   C     C_1   0.317191 0.000001 0.817076 0.016678
C49   C     C_1   0.858665 0.500001 0.858647 -0.199848
C50   C     C_1   0.358665 0.000001 0.858647 -0.199848
C51   C     C_R   0.994845 0.500000 0.080451 0.826605
C52   C     C_R   0.494845 0.000000 0.080451 0.826602
C53   C     C_R   0.075435 0.499999 0.075355 0.856345
C54   C     C_R   0.575435 0.999999 0.075355 0.856349
C55   C     C_R   0.993225 0.500000 0.907791 0.826455
C56   C     C_R   0.493225 0.000000 0.907791 0.826463
C57   C     C_R   0.909159 0.500000 0.909243 0.807090
C58   C     C_R   0.409159 0.000000 0.909243 0.807090
C59   C     C_R   0.584604 0.500000 0.584475 0.806611
C60   C     C_R   0.084604 0.000000 0.584475 0.806611
C61   C     C_R   0.499097 0.000000 0.414052 0.814929
C62   C     C_R   0.999097 0.500000 0.414052 0.814932
C63   C     C_R   0.499958 0.914882 0.499985 0.814722
C64   C     C_R   0.499957 0.085118 0.499984 0.814669
C65   C     C_R   0.999958 0.414882 0.499985 0.814719
C66   C     C_R   0.999957 0.585118 0.499984 0.814674
C67   C     C_R   0.500749 0.000000 0.585876 0.814516
C68   C     C_R   0.000749 0.500000 0.585876 0.814515
C69   C     C_1   0.995603 0.500000 0.132248 -0.197238
C70   C     C_1   0.495603 0.000000 0.132248 -0.197247
C71   C     C_1   0.996243 0.500001 0.175205 0.009128
C72   C     C_1   0.496243 0.000001 0.175205 0.009122
C73   C     C_1   0.996996 0.500001 0.226114 0.009871
C74   C     C_1   0.496996 0.000001 0.226114 0.009870
C75   C     C_1   0.497609 0.000001 0.269045 0.009117
C76   C     C_1   0.997609 0.500001 0.269045 0.009118
C77   C     C_1   0.498285 0.000001 0.319878 0.007587
C78   C     C_1   0.998285 0.500001 0.319878 0.007587
C79   C     C_1   0.498758 0.000000 0.362672 -0.194501
C80   C     C_1   0.998758 0.500000 0.362672 -0.194501
C81   C     C_1   0.994227 0.500000 0.857729 -0.194801
C82   C     C_1   0.494227 0.000000 0.857729 -0.194789
C83   C     C_3   0.232808 0.534031 0.260823 0.287786
C84   C     C_3   0.232812 0.459889 0.250173 0.287537
C85   C     C_3   0.732807 0.034383 0.260364 0.287780
C86   C     C_3   0.732812 0.960104 0.250710 0.287533
C87   C     C_1   0.995384 0.500000 0.816565 0.011952
C88   C     C_1   0.495384 0.000000 0.816565 0.011966
C89   C     C_1   0.996913 0.500000 0.767931 0.011916
C90   C     C_1   0.496913 0.000000 0.767931 0.011928
C91   C     C_1   0.498204 0.000000 0.726906 0.010483
C92   C     C_1   0.998204 0.500000 0.726906 0.010474
C93   C     C_1   0.499604 0.000000 0.678137 0.008675
C94   C     C_1   0.999604 0.500000 0.678137 0.008666
C95   C     C_1   0.500477 0.000000 0.636682 -0.194113
C96   C     C_1   0.000477 0.500000 0.636682 -0.194120
C97   C     C_3   0.260840 0.539952 0.246041 0.213912
C98   C     C_3   0.260838 0.466294 0.235456 0.213620
C99   C     C_3   0.760840 0.039729 0.245508 0.213867
C100  C     C_3   0.760839 0.965935 0.235912 0.213705
C101  C     C_1   0.373487 0.500046 0.374139 -0.166917
C102  C     C_1   0.873487 0.000043 0.374139 -0.166915
C103  C     C_1   0.120285 0.499996 0.120768 -0.157982
C104  C     C_1   0.620285 0.999996 0.120768 -0.157984
C105  C     C_3   0.261097 0.493922 0.305050 0.176974
C106  C     C_3   0.761097 0.994490 0.305129 0.176933
C107  C     C_3   0.289552 0.500080 0.290765 -0.057800
C108  C     C_3   0.789552 0.000073 0.290765 -0.057798
Cu1   Cu    Cu3+1 0.500480 0.500000 0.542990 0.976251
Cu2   Cu    Cu3+1 0.000480 0.000000 0.542990 0.976250
Cu3   Cu    Cu3+1 0.499450 0.500000 0.457010 0.982140
Cu4   Cu    Cu3+1 0.999450 0.000000 0.457010 0.982156
Cu5   Cu    Cu3+1 0.993800 0.542460 0.993900 0.979224
Cu6   Cu    Cu3+1 0.993800 0.457540 0.993900 0.978497
Cu7   Cu    Cu3+1 0.493800 0.042460 0.993900 0.979184
Cu8   Cu    Cu3+1 0.493800 0.957540 0.993900 0.978525
Cu9   Cu    Cu3+1 0.458020 0.000000 0.458050 0.969139
Cu10  Cu    Cu3+1 0.958020 0.500000 0.458050 0.969134
Cu11  Cu    Cu3+1 0.541920 0.000000 0.541950 0.970998
Cu12  Cu    Cu3+1 0.041920 0.500000 0.541950 0.970988
O1    O     O_R   0.500410 0.561970 0.536310 -0.561634
O2    O     O_R   0.500410 0.438030 0.536310 -0.561202
O3    O     O_R   0.000410 0.061970 0.536310 -0.561626
O4    O     O_R   0.000410 0.938030 0.536310 -0.561226
O5    O     O_R   0.932590 0.535860 0.932690 -0.557623
O6    O     O_R   0.932590 0.464140 0.932690 -0.557657
O7    O     O_R   0.432590 0.035860 0.932690 -0.557625
O8    O     O_R   0.432590 0.964140 0.932690 -0.557656
O9    O     O_R   0.463790 0.000000 0.401850 -0.557582
O10   O     O_R   0.963790 0.500000 0.401850 -0.557580
O11   O     O_R   0.534640 1.000000 0.472710 -0.557852
O12   O     O_R   0.034640 0.500000 0.472710 -0.557854
O13   O     O_R   0.464530 0.938000 0.464560 -0.557777
O14   O     O_R   0.464530 0.062000 0.464560 -0.558038
O15   O     O_R   0.964530 0.438000 0.464560 -0.557790
O16   O     O_R   0.964530 0.562000 0.464560 -0.558026
O17   O     O_R   0.535390 0.937990 0.535420 -0.557571
O18   O     O_R   0.535390 0.062010 0.535420 -0.557489
O19   O     O_R   0.035390 0.437990 0.535420 -0.557568
O20   O     O_R   0.035390 0.562010 0.535420 -0.557494
O21   O     O_R   0.465290 0.000000 0.527290 -0.558447
O22   O     O_R   0.965290 0.500000 0.527290 -0.558449
O23   O     O_R   0.536150 0.000000 0.598150 -0.556526
O24   O     O_R   0.036150 0.500000 0.598150 -0.556528
O25   O     O_R   0.499540 0.561910 0.463710 -0.559273
O26   O     O_R   0.499540 0.438090 0.463710 -0.559402
O27   O     O_R   0.999540 0.061910 0.463710 -0.559270
O28   O     O_R   0.999540 0.938090 0.463710 -0.559388
O29   O     O_R   0.439190 0.500000 0.475090 -0.573640
O30   O     O_R   0.939190 0.000000 0.475090 -0.573638
O31   O     O_R   0.438320 0.500000 0.402480 -0.567568
O32   O     O_R   0.938320 0.000000 0.402480 -0.567563
O33   O     O_R   0.561610 0.500000 0.597520 -0.557514
O34   O     O_R   0.061610 0.000000 0.597520 -0.557514
O35   O     O_R   0.560740 0.500000 0.524910 -0.557855
O36   O     O_R   0.060740 0.000000 0.524910 -0.557854
O37   O     O_R   0.994560 0.535840 0.056620 -0.560439
O38   O     O_R   0.994560 0.464160 0.056620 -0.560555
O39   O     O_R   0.494560 0.035840 0.056620 -0.560445
O40   O     O_R   0.494560 0.964160 0.056620 -0.560547
O41   O     O_R   0.055010 0.535850 0.055100 -0.571061
O42   O     O_R   0.055010 0.464150 0.055100 -0.571378
O43   O     O_R   0.555010 0.035850 0.055100 -0.571080
O44   O     O_R   0.555010 0.964150 0.055100 -0.571362
O45   O     O_R   0.993040 0.535870 0.931160 -0.560207
O46   O     O_R   0.993040 0.464130 0.931160 -0.560781
O47   O     O_R   0.493040 0.035870 0.931160 -0.560234
O48   O     O_R   0.493040 0.964130 0.931160 -0.560760
O49   O     O_3   0.277072 0.580712 0.244808 -0.715890
H1    H     H_    0.251051 0.598917 0.210682 0.346564
O50   O     O_3   0.277066 0.432117 0.223448 -0.715237
H2    H     H_    0.251042 0.416889 0.184535 0.346418
O51   O     O_3   0.777072 0.080251 0.243730 -0.715875
H3    H     H_    0.751050 0.098344 0.209354 0.346546
O52   O     O_3   0.777067 0.931383 0.224364 -0.715235
H4    H     H_    0.751043 0.915973 0.185670 0.346459
O53   O     O_3   0.214041 0.568112 0.269424 -0.563352
C109  C     C_3   0.247039 0.595787 0.321033 0.106439
H5    H     H_    0.263739 0.615342 0.310601 0.179993
H6    H     H_    0.271400 0.575374 0.364605 0.183238
C110  C     C_3   0.226687 0.629542 0.333444 -0.780000
H7    H     H_    0.210083 0.611111 0.344779 0.255256
H8    H     H_    0.252327 0.651703 0.373876 0.203080
H9    H     H_    0.202612 0.651092 0.291158 0.255976
O54   O     O_3   0.214055 0.419452 0.248070 -0.562782
C111  C     C_3   0.247065 0.387720 0.291188 0.106099
H10   H     H_    0.271360 0.401932 0.339738 0.182970
H11   H     H_    0.263842 0.376662 0.276457 0.179896
C112  C     C_3   0.226710 0.346040 0.292677 -0.779506
H12   H     H_    0.202702 0.330454 0.245052 0.255931
H13   H     H_    0.252361 0.320663 0.326319 0.202906
H14   H     H_    0.210030 0.355791 0.307964 0.255392
O55   O     O_3   0.714040 0.068825 0.268509 -0.563331
C113  C     C_3   0.747037 0.096757 0.319729 0.106454
H15   H     H_    0.763705 0.115965 0.309000 0.179981
H16   H     H_    0.771423 0.076608 0.363571 0.183214
C114  C     C_3   0.726690 0.130923 0.331721 -0.779986
H17   H     H_    0.710118 0.112847 0.343338 0.255258
H18   H     H_    0.752329 0.153289 0.371842 0.203069
H19   H     H_    0.702591 0.152222 0.289151 0.255975
O56   O     O_3   0.714052 0.919892 0.249133 -0.562796
C115  C     C_3   0.747063 0.888314 0.292726 0.106021
H20   H     H_    0.771280 0.902844 0.341093 0.183016
H21   H     H_    0.763934 0.876887 0.278275 0.179919
C116  C     C_3   0.726686 0.846884 0.294642 -0.779519
H22   H     H_    0.702754 0.830989 0.247215 0.255937
H23   H     H_    0.752338 0.821631 0.328669 0.202915
H24   H     H_    0.709911 0.857010 0.309663 0.255392
O57   O     O_3   0.215787 0.512408 0.130844 -0.696026
H25   H     H_    0.241622 0.515271 0.136849 0.355359
O58   O     O_3   0.715788 0.011249 0.130687 -0.696029
H26   H     H_    0.741624 0.013847 0.136656 0.355363
O59   O     O_3   0.277810 0.487644 0.365575 -0.729923
H27   H     H_    0.251994 0.484785 0.359619 0.346595
O60   O     O_3   0.777810 0.988802 0.365734 -0.729945
H28   H     H_    0.751994 0.986225 0.359816 0.346567

loop_
_geom_bond_atom_site_label_1
_geom_bond_atom_site_label_2
_ccdc_geom_bond_type
C52   O40   A    
C113  H16   S    
O50   H2    S    
C58   O8    A    
C40   C60   S    
C7    C98   S    
C114  H19   S    
Cu11  O23   S    
O56   C115  S    
C14   C18   T    
C10   C108  S    
Cu12  O24   S    
C7    C97   S    
Cu9   O13   S    
Cu9   Cu11  S    
C109  H5    S    
C59   O33   A    
C49   C57   S    
C39   C41   T    
C64   O18   A    
O51   H3    S    
C15   C19   T    
C99   C108  S    
C105  C107  S    
C68   C96   S    
C6    C85   S    
C115  H21   S    
C85   C99   S    
C63   O13   A    
C62   C80   S    
Cu10  O10   S    
C8    C99   S    
C76   C78   S    
C34   C64   S    
C12   C104  T    
Cu1   Cu3   S    
C6    C12   S    
Cu6   O6    S    
C36   C66   S    
C53   O42   A    
Cu6   O42   S    
C113  C114  S    
Cu5   O5    S    
C35   C65   S    
Cu7   Cu8   S    
C4    O28   A    
C29   C33   T    
Cu7   O7    S    
C4    O4    A    
C112  H13   S    
O49   H1    S    
C45   C47   S    
C69   C71   T    
C62   O10   A    
Cu6   O38   S    
C21   C25   T    
Cu2   Cu4   S    
Cu2   O4    S    
C82   C88   T    
C1    O25   A    
C54   O44   A    
C20   C24   S    
C3    O3    A    
C106  O60   S    
C115  C116  S    
Cu11  O11   S    
Cu4   O32   S    
C68   O22   A    
Cu12  O20   S    
C97   C107  S    
C23   C27   T    
C54   O43   A    
C55   C81   S    
C8    O58   S    
Cu9   O9    S    
C90   C91   T    
C61   O9    A    
C52   O39   A    
C48   C50   T    
C113  H15   S    
C63   O17   A    
C67   O23   A    
C58   O7    A    
C93   C95   T    
Cu12  O12   S    
C53   C103  S    
C111  H11   S    
C67   C95   S    
C41   C43   S    
C84   O54   S    
C86   C106  S    
C42   C44   S    
C37   O31   A    
C2    C14   S    
Cu9   O14   S    
C38   O32   A    
C7    O57   S    
C44   C46   T    
Cu6   O46   S    
C60   O34   A    
C2    O2    A    
C25   C29   S    
C46   C48   S    
C33   C63   S    
C100  C108  S    
C105  O59   S    
C74   C75   T    
C30   C34   T    
C27   C31   S    
Cu11  O17   S    
C64   O14   A    
C62   O12   A    
C10   C102  T    
C47   C49   T    
C115  H20   S    
Cu3   O26   S    
C57   O6    A    
C5    C7    S    
C5    C84   S    
C83   O53   S    
C19   C23   S    
C6    C8    S    
Cu1   O33   S    
Cu2   O30   S    
C110  H7    S    
C51   O37   A    
C17   C21   S    
C98   C107  S    
C83   C105  S    
Cu10  O16   S    
Cu7   O39   S    
C89   C92   T    
C50   C58   S    
C4    C16   S    
C112  H14   S    
Cu9   O21   S    
O60   H28   S    
C60   O36   A    
Cu2   O34   S    
Cu2   O3    S    
C91   C93   S    
C43   C45   T    
O58   H26   S    
C99   O51   S    
C28   C32   S    
Cu1   O29   S    
C16   C20   T    
C39   C59   S    
C56   O48   A    
C100  O52   S    
C92   C94   S    
O57   H25   S    
C77   C79   T    
C66   O20   A    
Cu12  O19   S    
C81   C87   T    
C114  H18   S    
C94   C96   T    
C75   C77   S    
C86   O56   S    
C65   O15   A    
C56   C82   S    
C66   O16   A    
C98   O50   S    
C72   C74   S    
Cu4   O36   S    
C88   C90   S    
O53   C109  S    
C87   C89   S    
C5    C11   S    
Cu8   O8    S    
C73   C76   T    
C31   C35   T    
C84   C105  S    
C55   O45   A    
Cu7   O47   S    
C85   C106  S    
C67   O21   A    
C32   C36   T    
C3    C15   S    
C71   C73   S    
Cu5   Cu6   S    
C116  H24   S    
C54   C104  S    
C112  H12   S    
C116  H22   S    
C59   O35   A    
C110  H9    S    
C1    O1    A    
C18   C22   S    
Cu11  O18   S    
Cu8   O44   S    
C24   C28   T    
Cu5   O45   S    
C37   O29   A    
Cu10  O22   S    
Cu3   O31   S    
C109  H6    S    
C5    C83   S    
Cu8   O40   S    
C2    O26   A    
C11   C103  T    
C51   O38   A    
C6    C86   S    
Cu4   O27   S    
C13   C17   T    
C84   C98   S    
C111  C112  S    
Cu3   O25   S    
C8    C100  S    
C97   O49   S    
C38   C102  S    
O52   H4    S    
C3    O27   A    
C57   O5    A    
C37   C101  S    
C86   C100  S    
C53   O41   A    
O54   C111  S    
C106  C108  S    
C61   C79   S    
O59   H27   S    
C56   O47   A    
C40   C42   T    
C68   O24   A    
C78   C80   T    
C83   C97   S    
C85   O55   S    
Cu7   O43   S    
C114  H17   S    
Cu1   O2    S    
Cu10  Cu12  S    
C109  C110  S    
C52   C70   S    
C61   O11   A    
Cu5   O41   S    
C65   O19   A    
Cu4   O28   S    
C110  H8    S    
C1    C13   S    
C9    C101  T    
O55   C113  S    
C22   C26   T    
C9    C107  S    
Cu8   O48   S    
C70   C72   T    
Cu1   O1    S    
C51   C69   S    
C55   O46   A    
Cu5   O37   S    
C111  H10   S    
C116  H23   S    
Cu3   O35   S    
C38   O30   A    
Cu10  O15   S    
C26   C30   S    
