data_mof_unit_38871.cif
_audit_creation_date              2012-12-11T17:17:08-0500
_audit_creation_method            fapswitch 2.2
_symmetry_space_group_name_H-M    P1
_symmetry_Int_Tables_number       1
_space_group_crystal_system       triclinic
_cell_length_a                    6.942025
_cell_length_b                    13.371888
_cell_length_c                    14.677372
_cell_angle_alpha                 98.86121
_cell_angle_beta                  89.969665
_cell_angle_gamma                 90.13714
_cell_volume                      1346.20499868

loop_
_atom_site_label
_atom_site_type_symbol
_atom_type_description
_atom_site_fract_x
_atom_site_fract_y
_atom_site_fract_z
_atom_type_partial_charge
O1    O     O_R   0.354890 0.151580 0.148210 -0.527733
O2    O     O_R   0.645110 0.848420 0.851790 -0.527733
O3    O     O_R   0.682370 0.152980 0.336770 -0.545802
O4    O     O_R   0.317630 0.847020 0.663230 -0.545801
O5    O     O_R   0.854980 0.348430 0.351800 -0.538884
O6    O     O_R   0.145020 0.651570 0.648200 -0.538884
C1    C     C_R   0.513839 0.131255 0.366428 0.672363
C2    C     C_R   0.486161 0.868745 0.633572 0.672362
O7    O     O_R   0.684450 0.139580 0.148000 -0.537056
O8    O     O_R   0.315550 0.860420 0.852000 -0.537056
O9    O     O_R   0.857080 0.334940 0.161680 -0.541029
O10   O     O_R   0.142920 0.665060 0.838320 -0.541029
C3    C     C_R   0.515493 0.112703 0.114000 0.767107
C4    C     C_R   0.484507 0.887297 0.886000 0.767107
O11   O     O_R   0.352790 0.165070 0.338330 -0.544275
O12   O     O_R   0.647210 0.834930 0.661670 -0.544275
O13   O     O_3   0.522170 0.314120 0.254710 -0.369502
O14   O     O_3   0.477830 0.685880 0.745290 -0.369501
V1    V     V_3+5 0.796120 0.238110 0.249130 1.463847
V2    V     V_3+5 0.203880 0.761890 0.750870 1.463847
O15   O     O_R   0.186930 0.347040 0.163240 -0.527107
O16   O     O_R   0.813070 0.652960 0.836760 -0.527106
C5    C     C_R   0.018097 0.368653 0.133644 0.768402
C6    C     C_R   0.981902 0.631346 0.866355 0.768401
O17   O     O_R   0.184850 0.360440 0.352010 -0.543094
O18   O     O_R   0.815150 0.639560 0.647990 -0.543094
C7    C     C_R   0.015866 0.387331 0.385981 0.719175
C8    C     C_R   0.984134 0.612669 0.614019 0.719175
V3    V     V_3+5 0.296410 0.261900 0.250880 1.477008
V4    V     V_3+5 0.703590 0.738100 0.749120 1.477008
O19   O     O_3   0.020490 0.185890 0.245290 -0.372578
O20   O     O_3   0.979510 0.814110 0.754710 -0.372578
C9    C     C_1   0.005189 0.466912 0.466342 -0.180252
C10   C     C_1   0.994810 0.533088 0.533657 -0.180253
C11   C     C_3   0.179292 0.531235 0.982831 -0.184319
C12   C     C_3   0.820708 0.468764 0.017169 -0.184319
C13   C     C_3   0.077754 0.549659 0.078373 -0.216986
C14   C     C_3   0.922246 0.450341 0.921627 -0.216986
H1    H     H_    0.140219 0.590657 0.143177 0.157823
H2    H     H_    0.859781 0.409342 0.856823 0.157823
H3    H     H_    0.327392 0.556083 0.968240 0.176754
H4    H     H_    0.672608 0.443917 0.031760 0.176754
C15   C     C_3   0.007936 0.438673 0.062996 -0.143698
C16   C     C_3   0.992064 0.561327 0.937004 -0.143698
C17   C     C_3   0.108016 0.420461 0.968645 0.438447
C18   C     C_3   0.891984 0.579539 0.031355 0.438447
C19   C     C_3   0.402255 0.958216 0.424642 -0.135708
C20   C     C_3   0.597745 0.041784 0.575358 -0.135708
C21   C     C_3   0.579920 0.910842 0.465511 -0.134463
C22   C     C_3   0.420080 0.089158 0.534489 -0.134463
H5    H     H_    0.646115 0.836961 0.437588 0.116176
H6    H     H_    0.353885 0.163039 0.562412 0.116176
H7    H     H_    0.321537 0.924268 0.362157 0.120609
H8    H     H_    0.678463 0.075732 0.637843 0.120609
C23   C     C_3   0.493937 0.938815 0.562731 -0.011676
C24   C     C_3   0.506063 0.061185 0.437269 -0.011675
C25   C     C_3   0.315948 0.985382 0.522661 -0.116469
C26   C     C_3   0.684052 0.014618 0.477339 -0.116469
H9    H     H_    0.163806 0.973158 0.541649 0.112787
H10   H     H_    0.836194 0.026842 0.458351 0.112787
C27   C     C_1   0.504889 0.033110 0.033653 -0.132147
C28   C     C_1   0.495111 0.966890 0.966347 -0.132147
Cl1   Cl    Cl    0.254142 0.314015 0.926567 -0.687720
Cl2   Cl    Cl    0.745858 0.685985 0.073433 -0.687721

loop_
_geom_bond_atom_site_label_1
_geom_bond_atom_site_label_2
_ccdc_geom_bond_type
C20   C23   S    
V4    O20   S    
O13   V3    S    
C12   H4    S    
O4    C2    A    
V1    O19   S    
C19   C21   S    
C7    C9    S    
C20   H8    S    
O9    V1    S    
C11   C13   S    
O3    C1    A    
C25   H9    S    
O12   V4    S    
C4    C28   S    
C5    C15   S    
O7    C3    A    
C14   C17   S    
O5    C7    A    
O7    V1    S    
O6    C8    A    
O8    V2    S    
C21   H5    S    
C22   H6    S    
O3    V1    S    
O14   V4    S    
C19   H7    S    
C20   C22   S    
C8    C10   S    
C2    O12   A    
C1    C24   S    
C11   H3    S    
C2    C23   S    
C16   C18   S    
O11   V3    S    
O17   V3    S    
O8    C4    A    
C1    O11   A    
C21   C23   S    
O15   V3    S    
C17   Cl1   S    
C22   C24   S    
C21   C26   S    
C18   Cl2   S    
C13   C15   S    
C14   C16   S    
C19   C25   S    
O10   V2    S    
O1    V3    S    
C9    C10   T    
C12   C18   S    
C11   C16   S    
C15   C17   S    
O18   V4    S    
C23   C25   S    
C6    C16   S    
O16   C6    A    
O1    C3    A    
C12   C14   S    
C11   C17   S    
V2    O20   S    
O16   V4    S    
C22   C25   S    
C20   C26   S    
O5    V1    S    
O17   C7    A    
O6    V2    S    
O10   C6    A    
O18   C8    A    
O2    V4    S    
O15   C5    A    
V3    O19   S    
C14   H2    S    
O9    C5    A    
O13   V1    S    
C24   C26   S    
O14   V2    S    
C27   C28   T    
O2    C4    A    
O4    V2    S    
C3    C27   S    
C13   H1    S    
C12   C15   S    
C13   C18   S    
C26   H10   S    
C19   C24   S    
