data_mof_unit_61491.cif
_audit_creation_date              2012-12-10T20:09:56-0500
_audit_creation_method            fapswitch 2.2
_symmetry_space_group_name_H-M    P1
_symmetry_Int_Tables_number       1
_space_group_crystal_system       triclinic
_cell_length_a                    38.814999
_cell_length_b                    32.072792
_cell_length_c                    21.669534
_cell_angle_alpha                 90.000274
_cell_angle_beta                  124.286209
_cell_angle_gamma                 89.999856
_cell_volume                      22288.9153284

loop_
_atom_site_label
_atom_site_type_symbol
_atom_type_description
_atom_site_fract_x
_atom_site_fract_y
_atom_site_fract_z
_atom_type_partial_charge
C1    C     C_R   0.919303 0.999994 0.419546 0.929022
C2    C     C_R   0.080697 0.999994 0.580454 0.929022
C3    C     C_R   0.419303 0.499994 0.419546 0.928943
C4    C     C_R   0.580697 0.499994 0.580454 0.928935
C5    C     C_R   0.999539 0.997585 0.813053 -0.151011
C6    C     C_R   0.000461 0.997585 0.186946 -0.151008
C7    C     C_R   0.499541 0.497586 0.813061 -0.150891
C8    C     C_R   0.500458 0.497585 0.186939 -0.150908
C9    C     C_R   0.970183 0.973165 0.751132 -0.097245
C10   C     C_R   0.029816 0.973164 0.248867 -0.097247
C11   C     C_R   0.470233 0.473110 0.751192 -0.097300
C12   C     C_R   0.529772 0.473115 0.248814 -0.097287
C13   C     C_R   0.971273 0.973292 0.687794 0.462892
C14   C     C_R   0.028726 0.973291 0.312204 0.462892
C15   C     C_R   0.471321 0.473238 0.687852 0.462979
C16   C     C_R   0.528685 0.473245 0.312155 0.462971
C17   C     C_R   0.999987 0.999318 0.686334 -0.181838
C18   C     C_R   0.000012 0.999317 0.313665 -0.181840
C19   C     C_R   0.499988 0.499318 0.686341 -0.182026
C20   C     C_R   0.500012 0.499317 0.313660 -0.181997
C21   C     C_R   0.029041 0.023520 0.748361 -0.025227
C22   C     C_R   0.970959 0.023520 0.251639 -0.025227
C23   C     C_R   0.528992 0.523580 0.748320 -0.025198
C24   C     C_R   0.471000 0.523570 0.251673 -0.025194
C25   C     C_R   0.896178 0.955753 0.702665 -0.100059
C26   C     C_R   0.103822 0.955752 0.297334 -0.100057
C27   C     C_R   0.396265 0.455573 0.702810 -0.099961
C28   C     C_R   0.603742 0.455589 0.297194 -0.099974
C29   C     C_R   0.866612 0.930709 0.702485 0.297502
C30   C     C_R   0.133387 0.930708 0.297514 0.297503
C31   C     C_R   0.366748 0.430461 0.702658 0.297550
C32   C     C_R   0.633261 0.430480 0.297345 0.297544
C33   C     C_R   0.879554 0.896792 0.751309 -0.151249
C34   C     C_R   0.120445 0.896791 0.248689 -0.151249
C35   C     C_R   0.379755 0.396534 0.751477 -0.151196
C36   C     C_R   0.620259 0.396552 0.248530 -0.151196
C37   C     C_R   0.922000 0.887885 0.800261 -0.170588
C38   C     C_R   0.077999 0.887884 0.199737 -0.170588
C39   C     C_R   0.422217 0.387689 0.800402 -0.170664
C40   C     C_R   0.577798 0.387701 0.199609 -0.170660
C41   C     C_R   0.951644 0.912940 0.800823 -0.172212
C42   C     C_R   0.048355 0.912939 0.199175 -0.172213
C43   C     C_R   0.451812 0.412820 0.800948 -0.172530
C44   C     C_R   0.548199 0.412827 0.199064 -0.172518
C45   C     C_R   0.999993 0.999924 0.620272 0.949180
C46   C     C_R   0.000006 0.999924 0.379728 0.949179
C47   C     C_R   0.499992 0.499924 0.620273 0.949054
C48   C     C_R   0.500008 0.499924 0.379728 0.949078
C49   C     C_R   0.938885 0.947078 0.751992 0.108078
C50   C     C_R   0.061114 0.947077 0.248006 0.108079
C51   C     C_R   0.438988 0.446962 0.752110 0.108067
C52   C     C_R   0.561020 0.446971 0.247897 0.108071
C53   C     C_R   0.728095 0.989215 0.175392 -0.169216
C54   C     C_R   0.271904 0.989205 0.824603 -0.169216
C55   C     C_R   0.228094 0.489414 0.175303 -0.169195
C56   C     C_R   0.771906 0.489487 0.824728 -0.169194
C57   C     C_R   0.706603 0.999874 0.207616 0.158911
C58   C     C_R   0.293396 0.999873 0.792383 0.158913
C59   C     C_R   0.206603 0.499872 0.207616 0.158894
C60   C     C_R   0.793397 0.499871 0.792385 0.158879
C61   C     C_R   0.728388 0.010476 0.283284 -0.170849
C62   C     C_R   0.271612 0.010484 0.716720 -0.170850
C63   C     C_R   0.228389 0.510274 0.283369 -0.170888
C64   C     C_R   0.771611 0.510196 0.716599 -0.170887
C65   C     C_R   0.771842 0.010436 0.326890 -0.153087
C66   C     C_R   0.228158 0.010444 0.673114 -0.153086
C67   C     C_R   0.271843 0.510233 0.326974 -0.153086
C68   C     C_R   0.728157 0.510155 0.672994 -0.153081
C69   C     C_R   0.793320 0.999782 0.294641 0.159111
C70   C     C_R   0.206680 0.999781 0.705359 0.159110
C71   C     C_R   0.293320 0.499780 0.294636 0.159147
C72   C     C_R   0.706680 0.499778 0.705364 0.159147
C73   C     C_R   0.771537 0.989160 0.218993 -0.194487
C74   C     C_R   0.228463 0.989150 0.781002 -0.194487
C75   C     C_R   0.271536 0.489359 0.218903 -0.194467
C76   C     C_R   0.728464 0.489432 0.781129 -0.194458
C77   C     C_1   0.662158 0.999933 0.162957 -0.061688
C78   C     C_1   0.337842 0.999932 0.837043 -0.061687
C79   C     C_1   0.162158 0.499932 0.162957 -0.061683
C80   C     C_1   0.837842 0.499930 0.837043 -0.061683
C81   C     C_1   0.837746 0.999835 0.339087 -0.073299
C82   C     C_1   0.162254 0.999834 0.660912 -0.073299
C83   C     C_1   0.337746 0.499833 0.339083 -0.073311
C84   C     C_1   0.662254 0.499832 0.660917 -0.073313
C85   C     C_1   0.875060 0.999919 0.376016 -0.154573
C86   C     C_1   0.124939 0.999919 0.623983 -0.154571
C87   C     C_1   0.375060 0.499918 0.376014 -0.154728
C88   C     C_1   0.624940 0.499918 0.623986 -0.154761
C89   C     C_R   0.086856 0.116541 0.740607 -0.166801
C90   C     C_R   0.913147 0.116544 0.259396 -0.166803
C91   C     C_R   0.586661 0.616755 0.740609 -0.166963
C92   C     C_R   0.413302 0.616714 0.259396 -0.166952
C93   C     C_1   0.624828 0.999967 0.125349 -0.167255
C94   C     C_1   0.375172 0.999967 0.874651 -0.167254
C95   C     C_1   0.124828 0.499967 0.125350 -0.167253
C96   C     C_1   0.875172 0.499966 0.874651 -0.167253
C97   C     C_R   0.000000 0.919291 1.000000 0.899577
C98   C     C_R   0.500000 0.419293 0.000000 0.899769
C99   C     C_R   0.999845 0.999028 0.879456 0.911550
C100  C     C_R   0.000155 0.999028 0.120544 0.911549
C101  C     C_R   0.499845 0.499026 0.879459 0.911621
C102  C     C_R   0.500155 0.499026 0.120541 0.911610
C103  C     C_R   0.000000 0.080696 0.000000 0.917691
C104  C     C_R   0.500000 0.580696 1.000000 0.917716
C105  C     C_R   0.500000 0.919518 1.000000 0.902075
C106  C     C_R   0.000000 0.419518 1.000000 0.902073
C107  C     C_R   0.580548 0.999998 0.080671 0.900964
C108  C     C_R   0.419452 0.999998 0.919329 0.900963
C109  C     C_R   0.080548 0.499998 0.080671 0.900984
C110  C     C_R   0.919452 0.499998 0.919329 0.900983
C111  C     C_R   0.500000 0.080594 0.000000 0.900198
C112  C     C_R   1.000000 0.580593 0.000000 0.900249
C113  C     C_R   0.464461 0.228273 0.944762 -0.175854
C114  C     C_R   0.535541 0.228274 0.055242 -0.175856
C115  C     C_R   0.964923 0.728268 0.943462 -0.175839
C116  C     C_R   0.035076 0.728268 0.056538 -0.175841
C117  C     C_R   0.500001 0.206637 0.000002 0.164858
C118  C     C_R   1.000000 0.706633 0.000000 0.164728
C119  C     C_R   0.035079 0.771712 0.056535 -0.182437
C120  C     C_R   0.964921 0.771711 0.943464 -0.182437
C121  C     C_R   0.535542 0.271717 0.055243 -0.182679
C122  C     C_R   0.464460 0.271717 0.944763 -0.182682
C123  C     C_R   0.055867 0.092847 0.738342 0.320384
C124  C     C_R   0.944136 0.092849 0.261660 0.320382
C125  C     C_R   0.555723 0.592989 0.738385 0.320154
C126  C     C_R   0.444250 0.592962 0.261627 0.320188
C127  C     C_R   1.000000 0.793337 1.000000 0.171505
C128  C     C_R   0.500001 0.293341 0.000003 0.171327
C129  C     C_1   0.500001 0.162196 0.000001 -0.066335
C130  C     C_1   1.000000 0.662192 0.000000 -0.066319
C131  C     C_1   1.000000 0.837751 1.000000 -0.094861
C132  C     C_1   0.500000 0.337754 0.000003 -0.095265
C133  C     C_1   1.000000 0.875057 1.000000 -0.200296
C134  C     C_1   0.500000 0.375060 0.000002 -0.200227
C135  C     C_1   0.500000 0.124869 0.000001 -0.170454
C136  C     C_1   1.000000 0.624867 0.000000 -0.170454
C137  C     C_R   0.497273 0.771819 0.941338 -0.171003
C138  C     C_R   0.502727 0.771819 0.058661 -0.170999
C139  C     C_R   0.995836 0.271819 0.940082 -0.171009
C140  C     C_R   0.004164 0.271819 0.059917 -0.171008
C141  C     C_R   0.500000 0.793459 0.999999 0.157457
C142  C     C_R   0.000000 0.293459 1.000000 0.157390
C143  C     C_R   0.004162 0.228372 0.059916 -0.165074
C144  C     C_R   0.995838 0.228371 0.940083 -0.165076
C145  C     C_R   0.502725 0.728371 0.058660 -0.165102
C146  C     C_R   0.497275 0.728371 0.941339 -0.165093
C147  C     C_R   0.000000 0.206735 1.000000 0.153100
C148  C     C_R   0.500000 0.706735 0.999999 0.153147
C149  C     C_1   0.500000 0.837906 0.999999 -0.058633
C150  C     C_1   0.000000 0.337906 0.999999 -0.058633
C151  C     C_R   0.060960 0.049388 0.749543 0.076211
C152  C     C_R   0.939041 0.049390 0.250459 0.076215
C153  C     C_R   0.560855 0.549523 0.749452 0.076514
C154  C     C_R   0.439126 0.549498 0.250532 0.076462
C155  C     C_1   0.000000 0.162294 1.000000 -0.045363
C156  C     C_1   0.500000 0.662294 0.999999 -0.045298
C157  C     C_1   0.000000 0.124967 1.000000 -0.152287
C158  C     C_1   0.500000 0.624967 1.000000 -0.152196
C159  C     C_1   0.500000 0.875237 0.999999 -0.165534
C160  C     C_1   0.000000 0.375237 1.000000 -0.165531
C161  C     C_R   0.097217 0.030350 0.763273 -0.226523
C162  C     C_R   0.902785 0.030353 0.236731 -0.226521
C163  C     C_R   0.597098 0.530551 0.762999 -0.226303
C164  C     C_R   0.402880 0.530513 0.236948 -0.226346
C165  C     C_R   0.128159 0.054337 0.766219 -0.125648
C166  C     C_R   0.871844 0.054341 0.233786 -0.125645
C167  C     C_R   0.627988 0.554609 0.765902 -0.125448
C168  C     C_R   0.371980 0.554556 0.234037 -0.125487
C169  C     C_R   0.122917 0.097340 0.754585 -0.143163
C170  C     C_R   0.877087 0.097345 0.245419 -0.143164
C171  C     C_R   0.622708 0.597620 0.754408 -0.143183
C172  C     C_R   0.377252 0.597565 0.245561 -0.143179
C173  C     C_R   0.028822 0.022026 0.811754 -0.193299
C174  C     C_R   0.971178 0.022027 0.188247 -0.193298
C175  C     C_R   0.528775 0.522084 0.811715 -0.193217
C176  C     C_R   0.471217 0.522075 0.188279 -0.193239
H1    H     H_    0.146854 0.115816 0.756566 0.149643
H2    H     H_    0.853150 0.115822 0.243440 0.149643
H3    H     H_    0.646606 0.616152 0.756357 0.149640
H4    H     H_    0.353346 0.616086 0.243606 0.149640
H5    H     H_    0.856767 0.877287 0.751210 0.163707
H6    H     H_    0.143232 0.877285 0.248788 0.163706
H7    H     H_    0.357005 0.376973 0.751391 0.163625
H8    H     H_    0.643010 0.376994 0.248615 0.163627
H9    H     H_    0.931904 0.861490 0.837648 0.149781
H10   H     H_    0.068095 0.861489 0.162350 0.149781
H11   H     H_    0.432168 0.361279 0.837770 0.150169
H12   H     H_    0.567849 0.361290 0.162243 0.150167
H13   H     H_    0.984450 0.905610 0.838745 0.121982
H14   H     H_    0.015549 0.905609 0.161253 0.121983
H15   H     H_    0.484632 0.405538 0.838846 0.122096
H16   H     H_    0.515381 0.405541 0.161168 0.122093
H17   H     H_    0.788098 0.980877 0.193876 0.135888
H18   H     H_    0.211901 0.980860 0.806116 0.135891
H19   H     H_    0.288096 0.481230 0.193717 0.135874
H20   H     H_    0.711904 0.481361 0.806340 0.135855
H21   H     H_    0.711304 0.980987 0.116799 0.145359
H22   H     H_    0.288696 0.980969 0.883193 0.145359
H23   H     H_    0.211302 0.481341 0.116643 0.145377
H24   H     H_    0.788698 0.481473 0.883413 0.145379
H25   H     H_    0.711819 0.018745 0.308391 0.153233
H26   H     H_    0.288181 0.018760 0.691617 0.153231
H27   H     H_    0.211821 0.518387 0.308544 0.153257
H28   H     H_    0.788179 0.518250 0.691399 0.153279
H29   H     H_    0.788646 0.018681 0.385479 0.158616
H30   H     H_    0.211354 0.018697 0.614528 0.158613
H31   H     H_    0.288648 0.518323 0.385630 0.158657
H32   H     H_    0.711352 0.518187 0.614314 0.158688
H33   H     H_    0.937697 0.788384 0.899621 0.135224
H34   H     H_    0.062302 0.788385 0.100378 0.135223
H35   H     H_    0.436881 0.288394 0.901925 0.135635
H36   H     H_    0.563121 0.288394 0.098081 0.135635
H37   H     H_    0.436887 0.211594 0.901912 0.143794
H38   H     H_    0.563115 0.211594 0.098092 0.143793
H39   H     H_    0.937709 0.711588 0.899602 0.143845
H40   H     H_    0.062291 0.711588 0.100398 0.143844
H41   H     H_    0.992609 0.211689 0.893597 0.161250
H42   H     H_    0.007391 0.211690 0.106403 0.161251
H43   H     H_    0.495162 0.711689 0.895827 0.161300
H44   H     H_    0.504838 0.711690 0.104172 0.161286
H45   H     H_    0.083051 0.149899 0.731695 0.165606
H46   H     H_    0.916954 0.149902 0.268308 0.165607
H47   H     H_    0.582824 0.650119 0.731800 0.165605
H48   H     H_    0.417133 0.650076 0.268227 0.165597
H49   H     H_    0.495156 0.788498 0.895824 0.151538
H50   H     H_    0.504844 0.788499 0.104175 0.151537
H51   H     H_    0.992603 0.288498 0.893593 0.151588
H52   H     H_    0.007397 0.288499 0.106407 0.151589
H53   H     H_    0.101590 0.996997 0.772162 0.137889
H54   H     H_    0.898410 0.997000 0.227842 0.137886
H55   H     H_    0.601502 0.497194 0.771782 0.137676
H56   H     H_    0.398482 0.497156 0.228143 0.137715
H57   H     H_    0.156246 0.039599 0.777611 0.142285
H58   H     H_    0.843757 0.039605 0.222396 0.142281
H59   H     H_    0.656065 0.539922 0.777155 0.142198
H60   H     H_    0.343900 0.539859 0.222756 0.142223
H61   H     H_    0.051134 0.040665 0.859911 0.175357
H62   H     H_    0.948867 0.040667 0.140090 0.175357
H63   H     H_    0.551049 0.540767 0.859838 0.175292
H64   H     H_    0.448938 0.540751 0.140152 0.175296
H65   H     H_    0.885966 0.981926 0.664619 0.173426
H66   H     H_    0.114033 0.981925 0.335380 0.173426
H67   H     H_    0.386004 0.481748 0.664758 0.173370
H68   H     H_    0.614000 0.481765 0.335243 0.173371
O1    O     O_R   0.939010 0.034440 0.439030 -0.607327
O2    O     O_R   0.060990 0.034440 0.560970 -0.607327
O3    O     O_R   0.439010 0.534440 0.439030 -0.607319
O4    O     O_R   0.560990 0.534440 0.560970 -0.607305
O5    O     O_R   0.561000 0.000050 0.112670 -0.612017
O6    O     O_R   0.439000 0.000050 0.887330 -0.612015
O7    O     O_R   0.061000 0.500050 0.112670 -0.612071
O8    O     O_R   0.939000 0.500050 0.887330 -0.612072
O9    O     O_R   0.561000 0.999980 0.009230 -0.614812
O10   O     O_R   0.439000 0.999980 0.990770 -0.614813
O11   O     O_R   0.061000 0.499980 0.009230 -0.614775
O12   O     O_R   0.939000 0.499980 0.990770 -0.614776
O13   O     O_R   0.500000 0.061030 0.051640 -0.613855
O14   O     O_R   0.500000 0.061030 0.948360 -0.613855
O15   O     O_R   1.000000 0.561030 0.051640 -0.613884
O16   O     O_R   0.000000 0.561030 0.948360 -0.613880
O17   O     O_R   0.939030 0.965580 0.439000 -0.620715
O18   O     O_R   0.060970 0.965580 0.561000 -0.620714
O19   O     O_R   0.439030 0.465580 0.439000 -0.620670
O20   O     O_R   0.560970 0.465580 0.561000 -0.620675
O21   O     O_R   0.000000 0.034440 0.591610 -0.602900
O22   O     O_R   0.000000 0.034440 0.408390 -0.602902
O23   O     O_R   0.500000 0.534440 0.591610 -0.602977
O24   O     O_R   0.500000 0.534440 0.408390 -0.602957
O25   O     O_R   0.000010 0.965580 0.591580 -0.621634
O26   O     O_R   0.999990 0.965580 0.408420 -0.621632
O27   O     O_R   0.500010 0.465580 0.591580 -0.621513
O28   O     O_R   0.499990 0.465580 0.408420 -0.621534
O29   O     O_R   0.034440 0.939000 0.034360 -0.611885
O30   O     O_R   0.965560 0.939000 0.965640 -0.611884
O31   O     O_R   0.534440 0.439000 0.034360 -0.611919
O32   O     O_R   0.465560 0.439000 0.965640 -0.611914
O33   O     O_R   0.034440 0.999990 0.942780 -0.631812
O34   O     O_R   0.965560 0.999990 0.057220 -0.631811
O35   O     O_R   0.534440 0.499990 0.942780 -0.631852
O36   O     O_R   0.465560 0.499990 0.057220 -0.631853
O37   O     O_R   0.965580 0.000000 0.873940 -0.605494
O38   O     O_R   0.034420 0.000000 0.126060 -0.605493
O39   O     O_R   0.465580 0.500000 0.873940 -0.605476
O40   O     O_R   0.534420 0.500000 0.126060 -0.605478
O41   O     O_R   0.034440 0.060970 0.034440 -0.611695
O42   O     O_R   0.965560 0.060970 0.965560 -0.611695
O43   O     O_R   0.534440 0.560970 0.034440 -0.611689
O44   O     O_R   0.465560 0.560970 0.965560 -0.611686
O45   O     O_R   0.500020 0.939060 0.051770 -0.612804
O46   O     O_R   0.499980 0.939060 0.948230 -0.612804
O47   O     O_R   0.000020 0.439060 0.051770 -0.612799
O48   O     O_R   0.999980 0.439060 0.948230 -0.612802
Zn1   Zn    Zn3+2 0.000000 0.045990 0.500000 1.039871
Zn2   Zn    Zn3+2 0.500000 0.545990 0.500000 1.039730
Zn3   Zn    Zn3+2 0.000000 0.954030 0.500000 0.958204
Zn4   Zn    Zn3+2 0.500000 0.454030 0.500000 0.958286
Zn5   Zn    Zn3+2 0.045990 0.999980 0.045940 0.997774
Zn6   Zn    Zn3+2 0.954010 0.999980 0.954060 0.997773
Zn7   Zn    Zn3+2 0.545990 0.499980 0.045940 0.997785
Zn8   Zn    Zn3+2 0.454010 0.499980 0.954060 0.997788
Zn9   Zn    Zn3+2 0.500010 0.000060 0.069050 0.985171
Zn10  Zn    Zn3+2 0.499990 0.000060 0.930950 0.985171
Zn11  Zn    Zn3+2 0.000010 0.500060 0.069050 0.985133
Zn12  Zn    Zn3+2 0.999990 0.500060 0.930950 0.985132
Br1   Br    Br    0.006919 0.120679 0.718754 -0.516362
Br2   Br    Br    0.993084 0.120679 0.281245 -0.516362
Br3   Br    Br    0.506786 0.620736 0.719024 -0.516619
Br4   Br    Br    0.493190 0.620726 0.281035 -0.516578
O49   O     O_3   0.942233 0.950799 0.624644 -0.605529
C177  C     C_3   0.954800 0.908614 0.634035 -0.244348
H69   H     H_    0.944833 0.891341 0.665780 0.165790
H70   H     H_    0.989038 0.904794 0.661636 0.145521
H71   H     H_    0.939047 0.893967 0.578059 0.192828
O50   O     O_3   0.057765 0.950797 0.375354 -0.605527
C178  C     C_3   0.045197 0.908613 0.365961 -0.244352
H72   H     H_    0.055163 0.891340 0.334213 0.165789
H73   H     H_    0.010960 0.904794 0.338361 0.145522
H74   H     H_    0.060950 0.893965 0.421936 0.192829
O51   O     O_3   0.442318 0.450694 0.624744 -0.605462
C179  C     C_3   0.454959 0.408531 0.634206 -0.244184
H75   H     H_    0.445004 0.391236 0.665950 0.165851
H76   H     H_    0.489205 0.404769 0.661842 0.145445
H77   H     H_    0.439245 0.393863 0.578252 0.192794
O52   O     O_3   0.557694 0.450708 0.375269 -0.605477
C180  C     C_3   0.545063 0.408542 0.365819 -0.244206
H78   H     H_    0.555022 0.391248 0.334081 0.165857
H79   H     H_    0.510818 0.404772 0.338183 0.145451
H80   H     H_    0.560780 0.393879 0.421778 0.192798
Br5   Br    Br    0.808589 0.942732 0.635310 -0.503963
Br6   Br    Br    0.191411 0.942731 0.364689 -0.503959
Br7   Br    Br    0.308703 0.442398 0.635519 -0.504039
Br8   Br    Br    0.691305 0.442426 0.364479 -0.504074

loop_
_geom_bond_atom_site_label_1
_geom_bond_atom_site_label_2
_ccdc_geom_bond_type
C74   H18   S    
C165  H57   S    
C55   C59   A    
C116  H40   S    
C167  H59   S    
C170  H2    S    
C26   C50   A    
C112  O15   A    
C36   H8    S    
C139  C142  A    
C138  C145  A    
C35   H7    S    
C29   C33   A    
O48   Zn12  S    
C138  H50   S    
C9    C13   A    
C2    O18   A    
C54   C74   A    
C11   C15   A    
O5    Zn9   S    
C113  C122  A    
C12   C16   A    
C110  O12   A    
O52   C180  S    
C151  C161  A    
C32   Br8   S    
O19   Zn4   S    
C147  C155  S    
C100  O34   A    
C45   O21   A    
C64   H28   S    
C41   C49   A    
O31   Zn7   S    
C22   C152  S    
C165  C169  A    
C177  H70   S    
C27   C31   A    
C179  H77   S    
C137  C146  A    
C92   H48   S    
C121  C128  A    
C95   C109  S    
C62   C66   A    
C103  C157  S    
C167  C171  A    
C6    C174  A    
O50   C178  S    
C17   C21   A    
C108  O6    A    
O23   Zn2   S    
C19   C23   A    
C42   H14   S    
C68   C72   A    
C115  C118  A    
O44   Zn8   S    
C115  H39   S    
C72   C84   S    
C150  C160  T    
C161  H53   S    
C126  C154  A    
C164  C168  A    
C21   C173  A    
C23   C153  S    
O36   Zn8   S    
C24   C176  A    
C145  C148  A    
O16   Zn12  S    
C47   O23   A    
C65   C69   A    
C109  O7    A    
C119  H34   S    
C91   C125  A    
C84   C88   T    
C138  C141  A    
O37   Zn6   S    
C57   C61   A    
C16   O52   S    
C41   H13   S    
O40   Zn7   S    
C59   C63   A    
C91   C171  A    
C164  H56   S    
C53   H21   S    
C156  C158  T    
C89   C169  A    
O6    Zn10  S    
C44   H16   S    
C143  H42   S    
C66   C70   A    
C78   C94   T    
C116  C118  A    
C13   O49   S    
O24   Zn2   S    
C70   C82   S    
C127  C131  S    
O25   Zn3   S    
C61   C65   A    
C132  C134  T    
C1    O1    A    
C28   H68   S    
C161  C165  A    
C6    C100  S    
C56   H24   S    
C114  H38   S    
C124  Br2   S    
C140  C143  A    
C97   C133  S    
C43   C51   A    
C120  C127  A    
O34   Zn6   S    
O14   Zn10  S    
C63   H27   S    
C153  C163  A    
O22   Zn1   S    
C64   C68   A    
C154  C164  A    
C17   C45   S    
C89   H45   S    
C173  H61   S    
C65   H29   S    
O35   Zn7   S    
C180  H79   S    
C103  O41   A    
C137  H49   S    
C129  C135  T    
O7    Zn11  S    
O8    Zn12  S    
C117  C129  S    
C111  O14   A    
C4    O20   A    
C55   C75   A    
C44   C52   A    
C46   O26   A    
C171  H3    S    
C112  C136  S    
C144  C147  A    
C14   O50   S    
C169  H1    S    
C27   C51   A    
C7    C11   A    
C71   C83   S    
C37   H9    S    
C140  H52   S    
C30   C34   A    
C9    C49   S    
C10   C14   A    
C110  O8    A    
C38   H10   S    
C179  H76   S    
C5    C9    A    
C106  O48   A    
C8    C12   A    
O21   Zn1   S    
C42   C50   A    
C113  C117  A    
C104  O44   A    
C166  C170  A    
O17   Zn3   S    
C1    O17   A    
C29   Br5   S    
C60   C80   S    
C178  H74   S    
C108  O10   A    
C18   C22   A    
C5    C173  A    
C104  C158  S    
C27   H67   S    
C8    C176  A    
C26   C30   A    
C2    C86   S    
C40   H12   S    
C25   H65   S    
O20   Zn4   S    
C13   C17   A    
C112  O16   A    
C99   O33   A    
C145  H44   S    
C175  H63   S    
C21   C151  S    
C37   C41   A    
O29   Zn5   S    
C114  C117  A    
C47   O27   A    
C40   C44   A    
C48   O28   A    
C7    C101  S    
C19   C47   S    
C81   C85   T    
O38   Zn5   S    
C55   H23   S    
C119  C127  A    
C58   C62   A    
C83   C87   T    
C73   H17   S    
C155  C157  T    
O45   Zn9   S    
O47   Zn11  S    
C15   C19   A    
O3    Zn2   S    
O43   Zn7   S    
C140  C142  A    
C23   C175  A    
C107  O9    A    
C139  H51   S    
C121  H36   S    
C62   H26   S    
C76   H20   S    
C12   C52   S    
C162  C166  A    
C114  C121  A    
C31   Br7   S    
C5    C99   S    
C24   C154  S    
C68   H32   S    
C69   C73   A    
C97   O30   A    
C172  H4    S    
C178  H72   S    
C25   C29   A    
C3    O3    A    
O9    Zn10  S    
C18   C46   S    
O32   Zn8   S    
C146  C148  A    
C123  C151  A    
C101  O39   A    
C102  O40   A    
C59   C79   S    
C15   O51   S    
C82   C86   T    
C96   C110  S    
C33   C37   A    
C56   C60   A    
C125  Br3   S    
C35   C39   A    
C166  H58   S    
C79   C95   T    
C118  C130  S    
C57   C77   S    
C28   C32   A    
C46   O22   A    
O4    Zn2   S    
C162  H54   S    
O28   Zn4   S    
C4    C88   S    
C146  H43   S    
C176  H64   S    
C33   H5    S    
C31   C35   A    
C91   H47   S    
C10   C50   S    
C32   C36   A    
C120  H33   S    
C137  C141  A    
C177  H69   S    
C53   C57   A    
O41   Zn5   S    
C90   C124  A    
C101  O35   A    
C102  O36   A    
C92   C126  A    
C126  Br4   S    
C6    C10   A    
C38   C42   A    
O2    Zn1   S    
C142  C150  S    
C174  H62   S    
C2    O2    A    
C144  H41   S    
C111  C135  S    
C105  C159  S    
C106  C160  S    
C77   C93   T    
C67   C71   A    
C122  C128  A    
C180  H78   S    
C25   C49   A    
C69   C81   S    
C98   O31   A    
C58   C78   S    
O51   C179  S    
C168  C172  A    
C122  H35   S    
C148  C156  S    
C111  O13   A    
C152  C162  A    
C177  H71   S    
C75   H19   S    
C56   C76   A    
C14   C18   A    
C113  H37   S    
C72   C76   A    
C141  C149  S    
O49   C177  S    
C143  C147  A    
C94   C108  S    
C90   H46   S    
C163  H55   S    
O30   Zn6   S    
C66   H30   S    
C48   O24   A    
O11   Zn12  S    
C105  O46   A    
C4    O4    A    
O12   Zn11  S    
C61   H25   S    
O26   Zn3   S    
O39   Zn8   S    
C20   C24   A    
O1    Zn1   S    
C7    C175  A    
C34   H6    S    
O46   Zn10  S    
C80   C96   T    
C16   C20   A    
C168  H60   S    
C39   H11   S    
C124  C152  A    
C43   H15   S    
C130  C136  T    
C128  C132  S    
C22   C174  A    
C125  C153  A    
C60   C64   A    
C70   C74   A    
C1    C85   S    
C63   C67   A    
C178  H73   S    
C107  O5    A    
C3    C87   S    
C36   C40   A    
C39   C43   A    
C89   C123  A    
C109  O11   A    
C180  H80   S    
C163  C167  A    
C103  O42   A    
C139  C144  A    
C90   C170  A    
C20   C48   S    
C149  C159  T    
O10   Zn9   S    
C98   O32   A    
O33   Zn5   S    
C3    O19   A    
C30   Br6   S    
C99   O37   A    
C67   H31   S    
C105  O45   A    
C54   C58   A    
C34   C38   A    
C53   C73   A    
C131  C133  T    
C26   H66   S    
C98   C134  S    
C54   H22   S    
C116  C119  A    
C123  Br1   S    
C179  H75   S    
C106  O47   A    
C93   C107  S    
C71   C75   A    
C28   C52   A    
O13   Zn9   S    
C97   O29   A    
O15   Zn11  S    
C45   O25   A    
O27   Zn4   S    
C11   C51   S    
C104  O43   A    
C92   C172  A    
C115  C120  A    
C100  O38   A    
O18   Zn3   S    
O42   Zn6   S    
C8    C102  S    
