data_mof_unit_19457.cif
_audit_creation_date              2013-03-05T16:23:16-0500
_audit_creation_method            fapswitch 2.2
_symmetry_space_group_name_H-M    P1
_symmetry_Int_Tables_number       1
_space_group_crystal_system       triclinic
_cell_length_a                    27.634017
_cell_length_b                    10.523087
_cell_length_c                    9.808762
_cell_angle_alpha                 90.980843
_cell_angle_beta                  89.925307
_cell_angle_gamma                 90.176204
_cell_volume                      2851.90690558

loop_
_atom_site_label
_atom_site_type_symbol
_atom_site_description
_atom_site_fract_x
_atom_site_fract_y
_atom_site_fract_z
_atom_type_partial_charge
O1    O     O_R   0.500000 0.313960 0.616610 -0.592850
O2    O     O_R   0.500000 0.686040 0.383390 -0.593233
O3    O     O_R   0.500020 0.313950 0.383350 -0.581871
O4    O     O_R   0.499980 0.686050 0.616650 -0.581559
C1    C     C_R   0.500337 0.257560 0.498989 0.845216
C2    C     C_R   0.499702 0.742442 0.501016 0.843918
O5    O     O_R   0.428750 0.500030 0.616610 -0.574580
O6    O     O_R   0.571250 0.499970 0.383390 -0.577839
O7    O     O_R   0.428770 0.500020 0.383360 -0.594396
O8    O     O_R   0.571230 0.499980 0.616640 -0.597151
C3    C     C_R   0.406269 0.499115 0.499611 0.842970
C4    C     C_R   0.593688 0.500692 0.500381 0.840885
Zn1   Zn    Zn3+2 0.499990 0.500010 0.655740 1.044084
Zn2   Zn    Zn3+2 0.500010 0.499990 0.344260 1.043331
C5    C     C_R   0.177305 0.381367 0.462207 0.501031
C6    C     C_R   0.823860 0.615505 0.522823 0.495954
O9    O     O_2   0.201740 0.270765 0.469609 -0.564098
O10   O     O_2   0.800267 0.725901 0.545992 -0.580440
N1    N     N_R   0.201621 0.494385 0.469705 -0.357807
N2    N     N_R   0.798411 0.504951 0.508004 -0.362260
C7    C     C_R   0.178258 0.608106 0.459329 0.542947
C8    C     C_R   0.820913 0.390322 0.491301 0.564886
C9    C     C_R   0.276037 0.545728 0.595768 -0.115126
C10   C     C_R   0.721185 0.450459 0.614271 -0.110121
C11   C     C_R   0.326348 0.547301 0.603145 -0.218390
C12   C     C_R   0.670989 0.447768 0.611053 -0.234396
C13   C     C_R   0.330545 0.441582 0.381426 -0.219924
C14   C     C_R   0.671793 0.565169 0.400291 -0.218976
C15   C     C_R   0.280518 0.441515 0.373299 -0.120309
C16   C     C_R   0.722082 0.567295 0.402883 -0.122404
C17   C     C_R   0.253124 0.493310 0.480345 0.308381
C18   C     C_R   0.746813 0.508865 0.509256 0.314923
C19   C     C_R   0.101787 0.495858 0.445103 -0.125628
C20   C     C_R   0.898527 0.497903 0.493351 -0.135613
C21   C     C_R   0.127046 0.380003 0.449145 0.025765
C22   C     C_R   0.874292 0.614440 0.513765 0.037827
C23   C     C_R   0.101763 0.265546 0.436693 -0.181097
C24   C     C_R   0.900873 0.726765 0.528101 -0.199209
C25   C     C_R   0.127752 0.611216 0.441290 -0.232077
C26   C     C_R   0.871749 0.383571 0.488507 -0.199119
C27   C     C_R   0.353694 0.495077 0.495994 -0.016001
C28   C     C_R   0.646205 0.503563 0.502980 -0.022948
H1    H     H_    0.351128 0.399491 0.298356 0.149307
H2    H     H_    0.652672 0.612986 0.320055 0.193898
H3    H     H_    0.120524 0.175498 0.430109 0.208067
H4    H     H_    0.883392 0.816155 0.552912 0.197127
C29   C     C_R   0.974162 0.378236 0.471498 -0.151566
C30   C     C_R   0.025572 0.612957 0.446101 -0.170283
C31   C     C_R   0.975344 0.612981 0.475052 0.118342
C32   C     C_R   0.025123 0.378435 0.452113 0.113513
C33   C     C_R   0.949480 0.496156 0.478277 0.022103
C34   C     C_R   0.050616 0.495866 0.447326 0.018283
C35   C     C_R   0.946912 0.265290 0.494720 0.285808
C36   C     C_R   0.052004 0.725046 0.412287 0.343863
C37   C     C_R   0.896248 0.266530 0.485683 0.435966
C38   C     C_R   0.102706 0.724702 0.414325 0.441743
O11   O     O_2   0.793884 0.284003 0.476193 -0.511848
O12   O     O_2   0.203986 0.717175 0.466845 -0.523428
C39   C     C_R   0.051721 0.265227 0.431574 -0.186124
C40   C     C_R   0.950598 0.725769 0.511027 -0.214608
H5    H     H_    0.740235 0.405859 0.697087 0.142052
H6    H     H_    0.254877 0.586243 0.678618 0.146509
H7    H     H_    0.034992 0.174685 0.409646 0.227933
H8    H     H_    0.969183 0.814359 0.530223 0.216623
C41   C     C_3   0.535972 0.043738 0.580460 -0.153374
C42   C     C_3   0.464131 0.956277 0.419596 -0.156074
C43   C     C_3   0.542772 0.956209 0.453982 -0.200778
C44   C     C_3   0.457331 0.043790 0.546060 -0.202669
H9    H     H_    0.577518 0.915777 0.416688 0.139763
H10   H     H_    0.422579 0.084192 0.583339 0.144015
H11   H     H_    0.565283 0.084259 0.645198 0.152282
H12   H     H_    0.434815 0.915723 0.354954 0.153581
C45   C     C_3   0.499628 0.877805 0.502475 0.038225
C46   C     C_3   0.500469 0.122202 0.497561 0.037692
C47   C     C_3   0.492781 0.962688 0.629009 -0.140564
C48   C     C_3   0.507318 0.037315 0.371029 -0.140522
H13   H     H_    0.486066 0.928124 0.733629 0.169099
H14   H     H_    0.514002 0.071840 0.266375 0.168998
C49   C     C_3   0.486437 0.390540 0.045391 0.278880
C50   C     C_3   0.513396 0.609409 0.954548 0.279303
C51   C     C_3   0.529035 0.414587 0.950448 0.282297
C52   C     C_3   0.470799 0.585278 0.049648 0.282121
N3    N     N_3   0.499960 0.500030 0.863290 -0.167706
N4    N     N_3   0.500040 0.499970 0.136710 -0.167807
C53   C     C_3   0.457138 0.475886 0.952744 0.257817
C54   C     C_3   0.542755 0.524117 0.046840 0.258771
O13   O     O_3   0.560166 0.324316 0.888200 -0.599324
C55   C     C_3   0.587028 0.259569 0.988237 0.095264
H15   H     H_    0.565199 0.182016 0.031618 0.150702
H16   H     H_    0.598743 0.320843 0.075167 0.193170
C56   C     C_3   0.632412 0.203656 0.923309 -0.863606
H17   H     H_    0.657110 0.281028 0.891709 0.249790
H18   H     H_    0.651659 0.144177 0.998178 0.222665
H19   H     H_    0.622854 0.144159 0.832753 0.265716
O14   O     O_3   0.440018 0.675165 0.113748 -0.590511
C57   C     C_3   0.411911 0.739223 0.016158 0.084922
H20   H     H_    0.399428 0.677645 0.930371 0.183970
H21   H     H_    0.433008 0.817392 0.971106 0.150147
C58   C     C_3   0.367084 0.793479 0.085723 -0.850419
H22   H     H_    0.377621 0.858789 0.170624 0.262796
H23   H     H_    0.345195 0.846665 0.011039 0.214992
H24   H     H_    0.344678 0.715298 0.127224 0.262009
O15   O     O_3   0.471898 0.273799 0.101867 -0.596865
C59   C     C_3   0.459919 0.185019 0.996887 0.101118
H25   H     H_    0.492664 0.136650 0.957544 0.156018
H26   H     H_    0.441741 0.228365 0.908110 0.182770
C60   C     C_3   0.426048 0.084759 0.053282 -0.902047
H27   H     H_    0.396487 0.129170 0.113897 0.265829
H28   H     H_    0.409767 0.029723 0.967393 0.216968
H29   H     H_    0.446294 0.019498 0.119650 0.249128
O16   O     O_3   0.528040 0.726027 0.898142 -0.593928
C61   C     C_3   0.539679 0.814690 0.003428 0.100792
H30   H     H_    0.557928 0.771315 0.092117 0.179437
H31   H     H_    0.506710 0.862392 0.042358 0.156917
C62   C     C_3   0.573436 0.915508 0.947845 -0.898782
H32   H     H_    0.553243 0.980658 0.881230 0.249612
H33   H     H_    0.589341 0.970440 0.034328 0.214893
H34   H     H_    0.603256 0.871656 0.887815 0.269545
O17   O     O_3   0.411170 0.451341 0.894186 -0.598324
C63   C     C_3   0.376629 0.427804 0.997711 0.095878
H35   H     H_    0.380523 0.492528 0.087656 0.183534
H36   H     H_    0.379686 0.329165 0.033140 0.174482
C64   C     C_3   0.325827 0.444332 0.941731 -0.872753
H37   H     H_    0.320727 0.383583 0.849136 0.280845
H38   H     H_    0.298862 0.416259 0.019770 0.212259
H39   H     H_    0.319623 0.545352 0.916502 0.244176
O18   O     O_3   0.589288 0.549142 0.101901 -0.610354
C65   C     C_3   0.622867 0.570508 0.994795 0.117014
H40   H     H_    0.621848 0.671060 0.964350 0.176510
H41   H     H_    0.615844 0.511272 0.902056 0.187906
C66   C     C_3   0.674109 0.541624 0.041411 -0.886992
H42   H     H_    0.675110 0.450594 0.096913 0.273361
H43   H     H_    0.698442 0.534020 0.951418 0.221791
H44   H     H_    0.687775 0.619855 0.108089 0.243467
H45   H     H_    0.262929 0.401554 0.283676 0.137048
H46   H     H_    0.741905 0.613328 0.322140 0.140247
H47   H     H_    0.651493 0.400684 0.691489 0.171386
H48   H     H_    0.343945 0.591445 0.690404 0.172990
O19   O     O_3   0.870421 0.153679 0.494447 -0.548260
C67   C     C_3   0.880607 0.073592 0.380550 0.147013
H49   H     H_    0.909577 0.005700 0.407825 0.180215
H50   H     H_    0.892083 0.126415 0.288014 0.101694
C68   C     C_3   0.835412 0.997920 0.343288 -0.753606
H51   H     H_    0.807014 0.062638 0.305058 0.270820
H52   H     H_    0.844091 0.926353 0.262458 0.192297
H53   H     H_    0.821340 0.948383 0.434080 0.296540
O20   O     O_3   0.127141 0.837624 0.391644 -0.534252
C69   C     C_3   0.141986 0.840617 0.253608 0.145408
H54   H     H_    0.110305 0.851632 0.185498 0.124668
H55   H     H_    0.162006 0.753070 0.222244 0.127065
C70   C     C_3   0.175455 0.953719 0.233206 -0.725379
H56   H     H_    0.207188 0.947432 0.302142 0.288908
H57   H     H_    0.188415 0.954538 0.126025 0.187993
H58   H     H_    0.155793 0.043548 0.255091 0.242348
O21   O     O_3   0.968159 0.154142 0.537733 -0.625237
C71   C     C_3   0.976972 0.165003 0.679314 0.134783
H59   H     H_    0.942928 0.185586 0.736602 0.148588
H60   H     H_    0.003931 0.241397 0.701755 0.146024
C72   C     C_3   0.997292 0.040252 0.729829 -0.807725
H61   H     H_    0.030007 0.013459 0.670110 0.280074
H62   H     H_    0.007274 0.050398 0.839107 0.199157
H63   H     H_    0.969638 0.964051 0.719027 0.246232
O22   O     O_3   0.029752 0.836348 0.372785 -0.594192
C73   C     C_3   0.009513 0.819440 0.241193 0.107497
H64   H     H_    0.973777 0.771358 0.247673 0.157283
H65   H     H_    0.033156 0.762313 0.171367 0.105729
C74   C     C_3   0.002051 0.949112 0.178375 -0.841975
H66   H     H_    0.037382 0.998356 0.166747 0.253071
H67   H     H_    0.984953 0.937657 0.076503 0.205683
H68   H     H_    0.978239 0.008349 0.244623 0.254053

loop_
_geom_bond_atom_site_label_1
_geom_bond_atom_site_label_2
_geom_bond_distance
_ccdc_geom_bond_type
C68   H53   1.108971 S    
C42   C44   1.543844 S    
O13   C55   1.416316 S    
C10   H5    1.083030 S    
C13   C15   1.384825 A    
C45   C47   1.528584 S    
O14   C57   1.414643 S    
C71   C72   1.520428 S    
C69   C70   1.520822 S    
Zn2   N4    2.035804 S    
C12   H47   1.081135 S    
N1    C17   1.427302 S    
C65   H40   1.104810 S    
C8    O11   1.349452 S    
C59   H26   1.111226 S    
C64   H37   1.110555 S    
C74   H67   1.110406 S    
C66   H43   1.110899 S    
C19   C34   1.414208 A    
C30   C36   1.429077 A    
C20   C33   1.415739 A    
C19   C25   1.409244 A    
C31   C40   1.410976 A    
C46   C48   1.528600 S    
C15   H45   1.083097 S    
O1    C1    1.288390 A    
C32   C39   1.413081 A    
C71   H59   1.115097 S    
N1    C7    1.366861 A    
C48   H14   1.109830 S    
C49   N4    1.494182 S    
C64   H38   1.110566 S    
C44   C46   1.527795 S    
C68   H51   1.110420 S    
C57   C58   1.521468 S    
C1    C46   1.424236 S    
C37   O19   1.387483 S    
C68   H52   1.110610 S    
C70   H58   1.109394 S    
C5    C21   1.394921 A    
O4    Zn1   2.001340 S    
C53   O17   1.416009 S    
C59   H25   1.105429 S    
C50   C54   1.522342 S    
O20   C69   1.415071 S    
C9    H6    1.082831 S    
C42   H12   1.109233 S    
C72   H61   1.111055 S    
C14   C16   1.390035 A    
C62   H33   1.108850 S    
C57   H21   1.104826 S    
C4    C28   1.451725 S    
C70   H56   1.110858 S    
C72   H62   1.110447 S    
C43   C45   1.527841 S    
C36   O22   1.385863 S    
C74   H68   1.109680 S    
C51   C54   1.525487 S    
C63   C64   1.519664 S    
O6    C4    1.304944 A    
C29   C35   1.426489 A    
C26   C37   1.407093 A    
C66   H44   1.108339 S    
C9    C11   1.392282 A    
C42   C48   1.544213 S    
C60   H28   1.109169 S    
C49   O15   1.413201 S    
O2    C2    1.288441 A    
C50   N3    1.492275 S    
C61   H31   1.105973 S    
C61   H30   1.111564 S    
C51   N3    1.489094 S    
C63   H36   1.103758 S    
O5    C3    1.305557 A    
C29   C32   1.420800 A    
C35   C37   1.403091 A    
C36   C38   1.401274 A    
O21   C71   1.412887 S    
C61   C62   1.518352 S    
C67   H49   1.110631 S    
C50   C52   1.524361 S    
C11   C27   1.399440 A    
C74   H66   1.110575 S    
C49   C51   1.523279 S    
C64   H39   1.109469 S    
C29   C33   1.418329 A    
C41   C43   1.544051 S    
C41   H11   1.109541 S    
C42   C45   1.528069 S    
C14   H2    1.080765 S    
C41   C46   1.528239 S    
C31   C33   1.420927 A    
C43   H9    1.110420 S    
C9    C17   1.401893 A    
C5    N1    1.365125 A    
O7    Zn2   2.005164 S    
C10   C18   1.399080 A    
C56   H18   1.110300 S    
O7    C3    1.298239 A    
C13   C27   1.402487 A    
C32   C34   1.421999 A    
C25   C38   1.411225 A    
C7    C25   1.407636 A    
C55   C56   1.521278 S    
C30   C34   1.415305 A    
C60   H27   1.109415 S    
C62   H34   1.109269 S    
C8    C26   1.407038 A    
C57   H20   1.107993 S    
C72   H63   1.109841 S    
C6    O10   1.349639 S    
C6    N2    1.363295 A    
C69   H54   1.109524 S    
C67   C68   1.520714 S    
C47   H13   1.109797 S    
C23   C39   1.383824 A    
O3    Zn2   2.001342 S    
O8    C4    1.297700 A    
C24   C40   1.384109 A    
O4    C2    1.289097 A    
C30   C31   1.416389 A    
N3    C53   1.495931 S    
C55   H16   1.108257 S    
C35   O21   1.382933 S    
C52   N4    1.490163 S    
C60   H29   1.107730 S    
C20   C26   1.410669 A    
O1    Zn1   1.988632 S    
N2    C8    1.366057 A    
C23   H3    1.082450 S    
C66   H42   1.110314 S    
C65   C66   1.521736 S    
C56   H17   1.108813 S    
C63   H35   1.110431 S    
C12   C28   1.401147 A    
C2    C45   1.424270 S    
N2    C18   1.426620 S    
C21   C23   1.394179 A    
C5    O9    1.350443 S    
C73   H64   1.110466 S    
O6    Zn2   2.006209 S    
C52   O14   1.413062 S    
C14   C28   1.397330 A    
O16   C61   1.416510 S    
C58   H23   1.110422 S    
C54   O18   1.417535 S    
C39   H7    1.076242 S    
C73   C74   1.521526 S    
C10   C12   1.387703 A    
C69   H55   1.114641 S    
O3    C1    1.289137 A    
O8    Zn1   2.005167 S    
C65   H41   1.110854 S    
O19   C67   1.416334 S    
O18   C65   1.421102 S    
C67   H50   1.117521 S    
C52   C53   1.527062 S    
Zn1   N3    2.035803 S    
C16   H46   1.082757 S    
C41   C47   1.544316 S    
C58   H22   1.109249 S    
C40   H8    1.076839 S    
C38   O20   1.386077 S    
C73   H65   1.115572 S    
C11   H48   1.082082 S    
C7    O12   1.349232 S    
C15   C17   1.397674 A    
C6    C22   1.396414 A    
C22   C24   1.394875 A    
C16   C18   1.400068 A    
C51   O13   1.413871 S    
C44   C47   1.543055 S    
C50   O16   1.412603 S    
C71   H60   1.113718 S    
C19   C21   1.407861 A    
C49   C53   1.523902 S    
C3    C27   1.453833 S    
C20   C22   1.410244 A    
C70   H57   1.110357 S    
O2    Zn2   1.988630 S    
C24   H4    1.082624 S    
O22   C73   1.415608 S    
C13   H1    1.082413 S    
O5    Zn1   2.006203 S    
C58   H24   1.110685 S    
C55   H15   1.104140 S    
C44   H10   1.110388 S    
O17   C63   1.417107 S    
O15   C59   1.417315 S    
N4    C54   1.496024 S    
C43   C48   1.543149 S    
C59   C60   1.519129 S    
C62   H32   1.107687 S    
C56   H19   1.109635 S    
