data_mof_unit_52286.cif
_audit_creation_date              2012-12-11T14:08:10-0500
_audit_creation_method            fapswitch 2.2
_symmetry_space_group_name_H-M    P1
_symmetry_Int_Tables_number       1
_space_group_crystal_system       triclinic
_cell_length_a                    10.88135
_cell_length_b                    11.027078
_cell_length_c                    18.893593
_cell_angle_alpha                 89.788833
_cell_angle_beta                  88.857215
_cell_angle_gamma                 60.299953
_cell_volume                      1968.77332676

loop_
_atom_site_label
_atom_site_type_symbol
_atom_type_description
_atom_site_fract_x
_atom_site_fract_y
_atom_site_fract_z
_atom_type_partial_charge
C1    C     C_R   0.231942 0.647285 0.607321 0.560668
C2    C     C_3   0.659464 0.564080 0.799350 -0.271990
C3    C     C_3   0.701665 0.677368 0.810157 -0.005505
C4    C     C_3   0.673416 0.649902 0.674122 0.060151
C5    C     C_3   0.832558 0.593413 0.690893 -0.251571
C6    C     C_3   0.629497 0.558402 0.720123 -0.240824
C7    C     C_2   0.646733 0.193217 0.678398 -0.018555
C8    C     C_2   0.696422 0.183581 0.837659 -0.066116
C9    C     C_2   0.788592 0.110871 0.785374 -0.164216
C10   C     C_2   0.768616 0.159404 0.712177 -0.082952
C11   C     C_2   0.163621 0.670612 0.677085 -0.137647
C12   C     C_R   0.655605 0.623275 0.599979 0.585767
C13   C     C_2   0.189307 0.668798 0.837522 -0.008660
C14   C     C_2   0.174164 0.576176 0.797048 -0.159390
C15   C     C_2   0.196966 0.561460 0.719661 -0.173917
C16   C     C_2   0.656927 0.651668 0.320395 -0.096889
C17   C     C_2   0.630453 0.666588 0.159694 -0.027399
C18   C     C_2   0.713941 0.556574 0.199655 -0.141544
C19   C     C_2   0.688541 0.547324 0.274530 -0.142270
C20   C     C_2   0.629549 0.237569 0.315297 0.005756
C21   C     C_2   0.666422 0.086473 0.182859 -0.018704
C22   C     C_2   0.557138 0.213726 0.197794 -0.074318
C23   C     C_R   0.622379 0.236187 0.604252 0.573641
C24   C     C_2   0.526475 0.264680 0.269898 -0.148615
C25   C     C_2   0.130456 0.678423 0.343088 -0.105375
C26   C     C_2   0.116481 0.688724 0.189281 -0.087249
C27   C     C_2   0.056969 0.801267 0.232647 -0.144518
C28   C     C_2   0.090796 0.794479 0.306604 -0.152052
C29   C     C_R   0.701462 0.110261 0.901892 0.540914
C30   C     C_R   0.725783 0.690133 0.887029 0.544222
C31   C     C_R   0.117179 0.708266 0.906753 0.563319
C32   C     C_R   0.700099 0.040579 0.111042 0.540942
C33   C     C_R   0.691573 0.689575 0.095095 0.530795
C34   C     C_R   0.218203 0.650236 0.403831 0.550258
C35   C     C_R   0.085538 0.713722 0.115056 0.541644
C36   C     C_R   0.643996 0.622983 0.394086 0.550123
C37   C     C_R   0.587928 0.285066 0.387337 0.531550
C38   C     C_3   0.579567 0.816231 0.776802 -0.131571
C39   C     C_3   0.586950 0.810463 0.694241 -0.010525
C40   C     C_3   0.843430 0.629933 0.768280 -0.256300
Cr1   Cr    Cr6+3 0.393010 0.398050 0.501480 1.042062
Cr2   Cr    Cr6+3 0.398820 0.707980 0.501630 1.079392
Cr3   Cr    Cr6+3 0.708140 0.393940 0.496850 1.047381
Cr4   Cr    Cr6+3 0.937950 0.938450 0.008940 1.085443
Cr5   Cr    Cr6+3 0.626180 0.937030 0.994750 1.087999
Cr6   Cr    Cr6+3 0.937790 0.625760 0.001410 1.036103
H1    H     H_    0.690272 0.447384 0.702721 0.142682
H2    H     H_    0.929720 0.534662 0.792483 0.158523
H3    H     H_    0.894111 0.477848 0.683919 0.160068
H4    H     H_    0.873818 0.004988 0.794631 0.135134
H5    H     H_    0.617421 0.292575 0.832427 0.156811
H6    H     H_    0.139018 0.509128 0.821288 0.172922
H7    H     H_    0.242425 0.457373 0.697249 0.209513
H8    H     H_    0.480423 0.819121 0.794781 0.222582
H9    H     H_    0.108352 0.776493 0.698087 0.138489
H10   H     H_    0.813666 0.472582 0.178801 0.190298
H11   H     H_    0.712393 0.445823 0.293756 0.190492
H12   H     H_    0.633209 0.755168 0.303546 0.109617
H13   H     H_    0.488272 0.281432 0.156851 0.152167
H14   H     H_    0.415790 0.326103 0.286298 0.121615
H15   H     H_    0.729921 0.014343 0.223688 0.069154
H16   H     H_    0.992257 0.905734 0.211902 0.182163
H17   H     H_    0.097864 0.881803 0.328430 0.169946
H18   H     H_    0.182350 0.582866 0.207883 0.090934
H19   H     H_    0.115917 0.594489 0.322589 0.108531
H20   H     H_    0.872688 0.713159 0.770416 0.099239
H21   H     H_    0.883663 0.635511 0.654485 0.144982
H22   H     H_    0.746463 0.460517 0.816231 0.151239
H23   H     H_    0.564280 0.586954 0.832092 0.126514
H24   H     H_    0.518313 0.589315 0.711181 0.140586
O1    O     O_R   0.507110 0.256280 0.580300 -0.503346
O2    O     O_R   0.524640 0.695370 0.425100 -0.483686
O3    O     O_R   0.735890 0.504390 0.415980 -0.519055
O4    O     O_R   0.690560 0.277820 0.422350 -0.514800
O5    O     O_3   0.499990 0.499990 0.499980 -0.290379
O6    O     O_R   0.089190 0.825870 0.932320 -0.445434
O7    O     O_R   0.819070 0.053960 0.931440 -0.499796
O8    O     O_R   0.607070 0.076440 0.916460 -0.454001
O9    O     O_R   0.647110 0.806550 0.917690 -0.481111
O10   O     O_R   0.837080 0.593860 0.915300 -0.516229
O11   O     O_R   0.064770 0.636080 0.932550 -0.517751
O12   O     O_R   0.280830 0.527190 0.577940 -0.511987
O13   O     O_R   0.068250 0.829200 0.092940 -0.501632
O14   O     O_R   0.799650 0.057040 0.080330 -0.469204
O15   O     O_R   0.586130 0.079760 0.077080 -0.517457
O16   O     O_R   0.627700 0.809630 0.066580 -0.503783
O17   O     O_R   0.816140 0.597180 0.075920 -0.512761
O18   O     O_R   0.045360 0.639170 0.081440 -0.500022
O19   O     O_3   0.833980 0.833750 0.001700 -0.307689
O20   O     O_R   0.261360 0.738990 0.584270 -0.455201
O21   O     O_R   0.532590 0.694780 0.574370 -0.471230
O22   O     O_R   0.744470 0.503750 0.577000 -0.531042
O23   O     O_R   0.698520 0.277230 0.571620 -0.490067
O24   O     O_R   0.498530 0.256920 0.419280 -0.492147
O25   O     O_R   0.272880 0.527780 0.428680 -0.521205
O26   O     O_R   0.252780 0.739630 0.423250 -0.506881
C41   C     C_2   0.562370 0.951235 0.802272 0.249774
H25   H     H_    0.653151 0.965673 0.801397 0.092406
O27   O     O_2   0.446712 0.044065 0.823238 -0.420453
C42   C     C_1   0.893608 0.143000 0.674992 0.235604
N1    N     N_1   0.993819 0.129708 0.645468 -0.247351
C43   C     C_2   0.519931 0.200407 0.714423 0.225693
H26   H     H_    0.474868 0.140295 0.693403 0.141872
O28   O     O_2   0.453258 0.286526 0.760406 -0.528000
C44   C     C_2   0.262431 0.743218 0.810750 0.219424
H27   H     H_    0.326494 0.705611 0.763981 0.148477
O29   O     O_2   0.252321 0.845866 0.840613 -0.452130
C45   C     C_1   0.489175 0.770976 0.183095 0.208935
N2    N     N_1   0.376447 0.854101 0.201717 -0.271178
C46   C     C_2   0.782931 0.178481 0.294247 0.191619
H28   H     H_    0.864499 0.115075 0.331453 0.127346
O30   O     O_2   0.818743 0.205602 0.237362 -0.525250
C47   C     C_2   0.434613 0.894243 0.668391 0.305455
H29   H     H_    0.402221 0.985475 0.635297 0.146168
O31   O     O_2   0.345344 0.862733 0.684619 -0.504652
C48   C     C_2   0.666609 0.879615 0.660783 0.118259
H30   H     H_    0.739646 0.897357 0.691148 0.089426
O32   O     O_2   0.658592 0.905447 0.597517 -0.517212

loop_
_geom_bond_atom_site_label_1
_geom_bond_atom_site_label_2
_ccdc_geom_bond_type
Cr3   O3    S    
C7    C10   D    
C37   O4    A    
C1    O20   A    
C12   O21   A    
C1    C11   S    
C5    H21   S    
Cr4   O13   S    
C41   H25   S    
Cr6   O17   S    
Cr6   O19   S    
C19   H11   S    
C25   C28   D    
C44   O29   D    
Cr2   O5    S    
Cr2   O26   S    
C8    C29   S    
C15   H7    S    
Cr4   O7    S    
C34   O26   A    
C18   C19   S    
C2    H22   S    
C38   C39   S    
C43   O28   D    
Cr1   O12   S    
C45   N2    T    
C6    H24   S    
Cr2   O21   S    
Cr4   O6    S    
C26   H18   S    
C46   H28   S    
C11   C15   D    
C14   H6    S    
C29   O8    A    
C20   C24   D    
C3    C38   S    
C8    C9    D    
C39   C47   S    
C7    C43   S    
Cr5   O8    S    
C4    C12   S    
C2    H23   S    
Cr5   O19   S    
C9    C10   S    
C21   H15   S    
C18   H10   S    
C25   C34   S    
Cr1   O1    S    
C30   O10   A    
Cr3   O4    S    
C40   H20   S    
C21   C22   D    
C5    H3    S    
C2    C6    S    
C17   C33   S    
C38   C41   S    
C41   O27   D    
C12   O22   A    
Cr6   O18   S    
Cr3   O5    S    
C32   O14   A    
C21   C32   S    
C6    H1    S    
C23   O1    A    
C25   H19   S    
C34   O25   A    
C13   C44   S    
C17   C45   S    
C22   H13   S    
C35   O13   A    
C1    O12   A    
C23   O23   A    
Cr2   O20   S    
C3    C30   S    
Cr5   O15   S    
C33   O16   A    
C27   H16   S    
Cr1   O5    S    
Cr6   O11   S    
C35   O18   A    
Cr1   O24   S    
C38   H8    S    
C4    C39   S    
C24   H14   S    
Cr2   O2    S    
C17   C18   D    
C26   C27   D    
Cr5   O9    S    
C16   H12   S    
C10   C42   S    
C8    H5    S    
C20   C46   S    
C30   O9    A    
C4    C6    S    
C3    C40   S    
C22   C24   S    
C11   H9    S    
C47   H29   S    
C40   H2    S    
C48   H30   S    
C13   C31   S    
C9    H4    S    
C4    C5    S    
Cr4   O14   S    
C44   H27   S    
Cr3   O22   S    
C31   O11   A    
C2    C3    S    
C33   O17   A    
C16   C36   S    
Cr6   O10   S    
C20   C37   S    
C31   O6    A    
Cr1   O25   S    
C16   C19   D    
C7    C23   S    
C32   O15   A    
C42   N1    T    
Cr3   O23   S    
C48   O32   D    
C37   O24   A    
Cr5   O16   S    
C43   H26   S    
C46   O30   D    
C36   O3    A    
C28   H17   S    
C26   C35   S    
C29   O7    A    
C39   C48   S    
C5    C40   S    
C27   C28   S    
C14   C15   S    
C13   C14   D    
Cr4   O19   S    
C36   O2    A    
C47   O31   D    
