data_mof_unit_66893.cif
_audit_creation_date              2013-03-05T15:57:24-0500
_audit_creation_method            fapswitch 2.2
_symmetry_space_group_name_H-M    P1
_symmetry_Int_Tables_number       1
_space_group_crystal_system       triclinic
_cell_length_a                    17.184398
_cell_length_b                    18.46511
_cell_length_c                    8.345417
_cell_angle_alpha                 89.999855
_cell_angle_beta                  101.985904
_cell_angle_gamma                 90.010035
_cell_volume                      2590.36729441

loop_
_atom_site_label
_atom_site_type_symbol
_atom_site_description
_atom_site_fract_x
_atom_site_fract_y
_atom_site_fract_z
_atom_type_partial_charge
P1    P     P_3+3 0.834140 0.419320 0.003900 0.452297
P2    P     P_3+3 0.834140 0.580680 0.503900 0.457535
P3    P     P_3+3 0.334140 0.919320 0.003900 0.450820
P4    P     P_3+3 0.334140 0.080680 0.503900 0.455118
O1    O     O_2   0.841960 0.394640 0.833410 -0.357571
O2    O     O_2   0.841960 0.605360 0.333410 -0.379322
O3    O     O_2   0.341960 0.894640 0.833410 -0.369424
O4    O     O_2   0.341960 0.105360 0.333410 -0.367665
O5    O     O_3   0.907950 0.463080 0.102990 -0.404155
O6    O     O_3   0.907950 0.536920 0.602990 -0.389678
O7    O     O_3   0.407950 0.963080 0.102990 -0.399583
O8    O     O_3   0.407950 0.036920 0.602990 -0.399256
O9    O     O_3   0.972780 0.329600 0.629720 -0.375221
O10   O     O_3   0.972780 0.670400 0.129720 -0.379709
O11   O     O_3   0.472780 0.829600 0.629720 -0.343740
O12   O     O_3   0.472780 0.170400 0.129720 -0.381078
O13   O     O_2   0.845236 0.269986 0.700428 -0.386324
O14   O     O_2   0.845435 0.729701 0.202576 -0.384031
O15   O     O_2   0.348832 0.767386 0.709136 -0.394707
O16   O     O_2   0.343637 0.228107 0.198370 -0.367735
O17   O     O_3   0.749919 0.474657 0.961750 -0.580119
O18   O     O_3   0.751444 0.523121 0.468951 -0.576951
O19   O     O_3   0.251271 0.976645 0.966266 -0.579066
O20   O     O_3   0.251119 0.023481 0.467576 -0.581691
O21   O     O_3   0.953482 0.180590 0.642186 -0.532982
O22   O     O_3   0.953073 0.819379 0.142339 -0.534164
O23   O     O_3   0.460114 0.683119 0.639834 -0.503726
O24   O     O_3   0.450609 0.319787 0.145299 -0.522268
H1    H     H_    0.071820 0.208202 0.713104 0.148577
H2    H     H_    0.070890 0.789570 0.211685 0.148490
H3    H     H_    0.527522 0.719293 0.472547 0.074240
H4    H     H_    0.567683 0.290739 0.230345 0.161974
C1    C     C_3   0.057401 0.107582 0.579041 -1.045967
C2    C     C_3   0.058611 0.892331 0.086216 -1.038915
C3    C     C_3   0.571856 0.619105 0.580246 -0.932962
C4    C     C_3   0.558743 0.393477 0.105693 -1.075020
H5    H     H_    0.617097 0.649057 0.669771 0.264751
H6    H     H_    0.622392 0.392726 0.097471 0.244061
H7    H     H_    0.120777 0.108004 0.568769 0.247978
H8    H     H_    0.121601 0.891311 0.073268 0.246098
H9    H     H_    0.049903 0.071827 0.681431 0.279084
H10   H     H_    0.053079 0.926141 0.193079 0.278128
H11   H     H_    0.551340 0.570796 0.638864 0.260799
H12   H     H_    0.550843 0.426756 0.211820 0.284917
P5    P     P_3+3 0.165830 0.418670 0.685610 0.452369
P6    P     P_3+3 0.165830 0.581330 0.185610 0.451871
P7    P     P_3+3 0.665830 0.918670 0.685610 0.454497
P8    P     P_3+3 0.665830 0.081330 0.185610 0.448426
P9    P     P_3+3 0.101258 0.263374 0.107969 0.438015
P10   P     P_3+3 0.101102 0.736745 0.608525 0.437792
P11   P     P_3+3 0.601883 0.763923 0.108079 0.455844
P12   P     P_3+3 0.598715 0.238604 0.607042 0.451865
O25   O     O_2   0.157990 0.394030 0.856030 -0.375778
O26   O     O_2   0.157990 0.605970 0.356030 -0.370031
O27   O     O_2   0.657990 0.894030 0.856030 -0.367366
O28   O     O_2   0.657990 0.105970 0.356030 -0.377060
O29   O     O_3   0.027110 0.329490 0.059550 -0.375389
O30   O     O_3   0.027110 0.670510 0.559550 -0.376216
O31   O     O_3   0.527110 0.829490 0.059550 -0.377250
O32   O     O_3   0.527110 0.170510 0.559550 -0.342613
O33   O     O_2   0.161830 0.276130 0.997961 -0.393258
O34   O     O_2   0.161878 0.724088 0.498901 -0.392038
O35   O     O_2   0.662973 0.777867 0.000037 -0.377712
O36   O     O_2   0.656763 0.228592 0.490117 -0.399451
O37   O     O_3   0.248292 0.475099 0.731380 -0.581809
O38   O     O_3   0.249399 0.526042 0.231892 -0.584155
O39   O     O_3   0.748657 0.974742 0.732271 -0.588299
O40   O     O_3   0.748861 0.025604 0.232063 -0.584683
O41   O     O_3   0.060459 0.179275 0.042027 -0.515567
O42   O     O_3   0.060008 0.820702 0.542318 -0.515737
O43   O     O_3   0.562442 0.679651 0.039574 -0.504348
O44   O     O_3   0.549581 0.319860 0.542487 -0.490889
C5    C     C_3   0.990459 0.168915 0.100797 0.483557
C6    C     C_3   0.989670 0.830777 0.600204 0.486132
C7    C     C_3   0.486298 0.672197 0.074027 0.527113
C8    C     C_3   0.530452 0.353948 0.679540 0.386437
H13   H     H_    0.939619 0.194620 0.015625 0.120138
H14   H     H_    0.938765 0.806939 0.511650 0.119422
H15   H     H_    0.441121 0.690887 0.966998 0.142421
H16   H     H_    0.499428 0.315975 0.748627 0.060783
H17   H     H_    0.994221 0.191285 0.225637 0.019801
H18   H     H_    0.991927 0.806326 0.722678 0.020685
H19   H     H_    0.478045 0.703534 0.182780 -0.016827
H20   H     H_    0.585314 0.375578 0.759458 0.075569
C9    C     C_3   0.975707 0.088089 0.108799 -1.052520
C10   C     C_3   0.976439 0.911572 0.614954 -1.058814
C11   C     C_3   0.472708 0.592547 0.104689 -1.098796
C12   C     C_3   0.474826 0.417249 0.625185 -0.944430
H21   H     H_    0.414319 0.585330 0.139839 0.237740
H22   H     H_    0.412449 0.397985 0.603648 0.243676
H23   H     H_    0.920844 0.078332 0.156248 0.237618
H24   H     H_    0.921434 0.921145 0.662041 0.238553
H25   H     H_    0.969507 0.063756 0.985117 0.276939
H26   H     H_    0.971301 0.937897 0.493543 0.277151
H27   H     H_    0.474103 0.560789 0.992299 0.281094
H28   H     H_    0.487349 0.442611 0.512460 0.272372
C13   C     C_3   0.226984 0.453848 0.245825 0.281859
C14   C     C_3   0.224537 0.546573 0.750515 0.317469
C15   C     C_3   0.725809 0.954027 0.251852 0.300558
C16   C     C_3   0.725136 0.046324 0.750673 0.298300
H29   H     H_    0.209305 0.446518 0.364835 0.080539
H30   H     H_    0.204999 0.551322 0.868168 0.074874
H31   H     H_    0.706298 0.949230 0.369536 0.078427
H32   H     H_    0.705761 0.051413 0.868426 0.080810
H33   H     H_    0.177732 0.436610 0.145224 0.152921
H34   H     H_    0.176121 0.564542 0.648864 0.149422
H35   H     H_    0.677619 0.935572 0.150189 0.148887
H36   H     H_    0.676681 0.064253 0.649031 0.148742
C17   C     C_3   0.297881 0.405789 0.238786 -0.638534
C18   C     C_3   0.295102 0.596232 0.751321 -0.678625
C19   C     C_3   0.797071 0.905224 0.253542 -0.680398
C20   C     C_3   0.795790 0.095716 0.750651 -0.674137
H37   H     H_    0.341117 0.408800 0.356099 0.200743
H38   H     H_    0.336028 0.593549 0.871939 0.189875
H39   H     H_    0.838768 0.909728 0.373204 0.193230
H40   H     H_    0.837168 0.092860 0.870967 0.193428
H41   H     H_    0.277951 0.349016 0.217009 0.210888
H42   H     H_    0.274213 0.652635 0.728564 0.211116
H43   H     H_    0.777257 0.848297 0.235180 0.210325
H44   H     H_    0.775033 0.152240 0.728713 0.211051
Ba1   Ba    Ba6+2 0.000000 0.447380 0.844850 1.533011
Ba2   Ba    Ba6+2 0.000000 0.552620 0.344850 1.533546
Ba3   Ba    Ba6+2 0.500000 0.947380 0.844850 1.544630
Ba4   Ba    Ba6+2 0.500000 0.052620 0.344850 1.546859
C21   C     C_3   0.769926 0.545559 0.927157 0.341879
C22   C     C_3   0.769271 0.457620 0.400060 0.389739
C23   C     C_3   0.270979 0.043908 0.908380 0.365730
C24   C     C_3   0.269585 0.957129 0.403472 0.370447
H45   H     H_    0.770592 0.549630 0.795272 0.106556
H46   H     H_    0.757934 0.464153 0.265645 0.101948
H47   H     H_    0.268750 0.039257 0.775744 0.112370
H48   H     H_    0.262455 0.962992 0.269579 0.113381
H49   H     H_    0.827626 0.564328 0.001505 0.139117
H50   H     H_    0.831468 0.439313 0.446408 0.117397
H51   H     H_    0.330294 0.063990 0.972127 0.123714
H52   H     H_    0.330561 0.937784 0.458003 0.118897
C25   C     C_3   0.706077 0.594950 0.966024 -0.850903
C26   C     C_3   0.714132 0.399429 0.441897 -0.904310
C27   C     C_3   0.209453 0.098947 0.936305 -0.873181
C28   C     C_3   0.211117 0.900481 0.438687 -0.871927
H53   H     H_    0.646668 0.576328 0.900496 0.270316
H54   H     H_    0.653176 0.421269 0.432392 0.270544
H55   H     H_    0.149100 0.074940 0.906731 0.274864
H56   H     H_    0.150656 0.924038 0.423813 0.277317
H57   H     H_    0.716578 0.651359 0.930658 0.241705
H58   H     H_    0.711926 0.352600 0.357904 0.222806
H59   H     H_    0.211001 0.147516 0.859052 0.218269
H60   H     H_    0.209006 0.853751 0.354504 0.220305
H61   H     H_    0.706857 0.592420 0.098748 0.260556
H62   H     H_    0.735962 0.380644 0.569141 0.274699
H63   H     H_    0.221884 0.115395 0.066556 0.271073
H64   H     H_    0.229802 0.881056 0.566358 0.270890
O45   O     O_3   0.092100 0.536880 0.086720 -0.404053
O46   O     O_3   0.092100 0.463120 0.586720 -0.403736
O47   O     O_3   0.592100 0.036880 0.086720 -0.405222
O48   O     O_3   0.592100 0.963120 0.586720 -0.408078
P13   P     P_3+3 0.902500 0.738500 0.083192 0.442619
P14   P     P_3+3 0.902783 0.261287 0.582009 0.447164
P15   P     P_3+3 0.402115 0.238296 0.082411 0.462355
P16   P     P_3+3 0.403312 0.760927 0.583905 0.456563
C29   C     C_3   0.030048 0.183938 0.607222 0.481631
C30   C     C_3   0.029675 0.815843 0.107752 0.484576
C31   C     C_3   0.502542 0.669231 0.516108 0.383779
C32   C     C_3   0.529340 0.316744 0.122465 0.515434
H65   H     H_    0.032197 0.216153 0.495961 0.026511
H66   H     H_    0.031096 0.785371 0.993782 0.026660
H67   H     H_    0.462380 0.642482 0.412273 0.062145
H68   H     H_    0.535111 0.286011 0.011372 -0.000818
H69   H     H_    0.599568 0.601161 0.478125 0.228658
H70   H     H_    0.523860 0.418903 0.993492 0.260000
H71   H     H_    0.020827 0.085388 0.464618 0.266137
H72   H     H_    0.021765 0.917168 0.975129 0.266486
H73   H     H_    0.520174 0.571951 0.205373 0.272444
H74   H     H_    0.482232 0.458896 0.722994 0.215875
H75   H     H_    0.026829 0.061755 0.191306 0.272416
H76   H     H_    0.027809 0.936056 0.700520 0.272568
C33   C     C_R   0.137875 0.677832 0.922870 -0.523523
C34   C     C_R   0.138578 0.322682 0.421772 -0.522679
C35   C     C_R   0.638030 0.177684 0.921372 -0.494475
C36   C     C_R   0.638417 0.822567 0.422490 -0.508227
C37   C     C_R   0.864741 0.321394 0.266553 -0.504250
C38   C     C_R   0.862926 0.677104 0.769487 -0.512107
C39   C     C_R   0.363408 0.822398 0.269043 -0.489633
C40   C     C_R   0.364146 0.178024 0.767456 -0.477470
C41   C     C_R   0.792071 0.212443 0.302121 -0.214529
C42   C     C_R   0.792097 0.787392 0.803087 -0.212908
C43   C     C_R   0.291587 0.712850 0.303698 -0.217511
C44   C     C_R   0.292214 0.287487 0.802197 -0.200520
C45   C     C_R   0.849801 0.264148 0.365089 0.210113
C46   C     C_R   0.848896 0.735065 0.866936 0.201150
C47   C     C_R   0.348623 0.765007 0.367562 0.167823
C48   C     C_R   0.349605 0.235587 0.865439 0.197741
C49   C     C_R   0.818015 0.332374 0.109978 0.266886
C50   C     C_R   0.817130 0.666870 0.611797 0.280266
C51   C     C_R   0.317045 0.833131 0.111900 0.268154
C52   C     C_R   0.317437 0.167113 0.610891 0.282162
C53   C     C_R   0.757499 0.280341 0.045834 -0.046503
C54   C     C_R   0.756875 0.719113 0.547483 -0.058649
C55   C     C_R   0.256309 0.781280 0.048024 -0.069079
C56   C     C_R   0.256740 0.219010 0.546946 -0.058462
C57   C     C_R   0.244108 0.719609 0.144773 -0.054388
C58   C     C_R   0.244663 0.280745 0.643550 -0.061944
C59   C     C_R   0.744799 0.219021 0.142994 -0.065574
C60   C     C_R   0.744606 0.780689 0.644319 -0.056741
C61   C     C_R   0.183512 0.667649 0.080251 0.278804
C62   C     C_R   0.184036 0.332699 0.579349 0.277706
C63   C     C_R   0.683814 0.167359 0.078933 0.278200
C64   C     C_R   0.683966 0.832622 0.579938 0.303620
C65   C     C_R   0.152371 0.735320 0.825494 0.200018
C66   C     C_R   0.152891 0.265066 0.324557 0.201503
C67   C     C_R   0.652957 0.234907 0.823303 0.151586
C68   C     C_R   0.653035 0.765227 0.324958 0.185428
C69   C     C_R   0.208567 0.788128 0.889362 -0.201361
C70   C     C_R   0.208828 0.212092 0.388561 -0.196600
C71   C     C_R   0.710315 0.286846 0.886756 -0.224677
C72   C     C_R   0.709500 0.712650 0.388522 -0.193317
H77   H     H_    0.283925 0.668216 0.381217 0.179545
H78   H     H_    0.283969 0.331682 0.880222 0.177398
H79   H     H_    0.783461 0.168531 0.380732 0.181052
H80   H     H_    0.784373 0.831985 0.880625 0.180395
H81   H     H_    0.717636 0.331636 0.809261 0.175296
H82   H     H_    0.716312 0.667739 0.311148 0.177439
H83   H     H_    0.214872 0.833511 0.812397 0.181694
H84   H     H_    0.214852 0.166530 0.311959 0.178568
H85   H     H_    0.093231 0.638167 0.871604 0.173920
H86   H     H_    0.094051 0.362429 0.370472 0.174542
H87   H     H_    0.592689 0.138513 0.870888 0.169968
H88   H     H_    0.593718 0.862191 0.371336 0.167942
H89   H     H_    0.910462 0.360308 0.316323 0.171926
H90   H     H_    0.907496 0.637365 0.820450 0.173198
H91   H     H_    0.409149 0.861305 0.318719 0.168040
H92   H     H_    0.409415 0.138785 0.817702 0.164007
C73   C     C_1   0.337456 0.429732 0.108236 0.408330
N1    N     N_1   0.369022 0.448796 0.006094 -0.079717
C74   C     C_1   0.337368 0.573485 0.624089 0.384777
N2    N     N_1   0.369741 0.553950 0.523656 -0.090208
C75   C     C_1   0.837718 0.926944 0.122792 0.416382
N3    N     N_1   0.869270 0.944964 0.019757 -0.078790
C76   C     C_1   0.837270 0.073269 0.621754 0.411682
N4    N     N_1   0.869490 0.054754 0.520148 -0.078231

loop_
_geom_bond_atom_site_label_1
_geom_bond_atom_site_label_2
_geom_bond_distance
_ccdc_geom_bond_type
P6    C61   1.875295 S    
C15   H31   1.105255 S    
C12   H28   1.111154 S    
P1    O17   1.746865 S    
P5    C62   1.876101 S    
C14   C18   1.519055 S    
O1    Ba1   2.867852 S    
H4    C32   1.108592 S    
P3    O19   1.749793 S    
C76   N4    1.156515 T    
C2    H10   1.108770 S    
C20   H40   1.104561 S    
P4    O4    1.526276 D    
O6    Ba1   2.825705 S    
C54   C72   1.410063 A    
C28   H60   1.108538 S    
C9    H23   1.110470 S    
C12   H74   1.109358 S    
Ba3   Ba4   4.603014 S    
C70   H84   1.074582 S    
Ba3   O47   2.825357 S    
C26   H62   1.106018 S    
C34   C66   1.390503 A    
C19   C75   1.468275 S    
O11   Ba3   2.796926 S    
P7    C64   1.874487 S    
C29   H65   1.109777 S    
P1    O1    1.526292 D    
O15   P16   1.545748 D    
O28   Ba4   2.871241 S    
O38   C13   1.399065 S    
C25   H57   1.107542 S    
C3    H5    1.107745 S    
C23   H51   1.110907 S    
O37   C14   1.400436 S    
P6    O38   1.738932 S    
P3    O3    1.526292 D    
C24   H52   1.111179 S    
P4    O20   1.750047 S    
O18   C22   1.400177 S    
C67   C71   1.398087 A    
C22   H46   1.104566 S    
C35   C67   1.392544 A    
C16   H32   1.105129 S    
P9    O29   1.750431 S    
P4    Ba4   3.424294 S    
O22   P13   1.746615 S    
C19   H43   1.105698 S    
C33   C65   1.390424 A    
O32   Ba4   2.796264 S    
P13   C46   1.849103 S    
C25   H53   1.107955 S    
P12   O32   1.746158 S    
C36   C68   1.389847 A    
C30   H66   1.109720 S    
P5    O37   1.736178 S    
C9    H25   1.110376 S    
P11   C68   1.840747 S    
C38   H90   1.082051 S    
C10   H24   1.110617 S    
C60   C64   1.435942 A    
P10   C65   1.842001 S    
O21   C29   1.406967 S    
O16   P15   1.544513 D    
C11   H27   1.110644 S    
P9    C66   1.840992 S    
P2    O18   1.749701 S    
P12   C67   1.852587 S    
C56   C70   1.410427 A    
C74   N2    1.155778 T    
C40   C48   1.394938 A    
O41   C5    1.403240 S    
C38   C50   1.398809 A    
P4    O8    1.584380 S    
C3    H11   1.109450 S    
C73   N1    1.156177 T    
C28   H64   1.106763 S    
C6    H14   1.111975 S    
C53   C71   1.409698 A    
C52   C56   1.435331 A    
O23   C31   1.405793 S    
C33   H85   1.082359 S    
C28   H56   1.109379 S    
O26   Ba2   2.871241 S    
P7    O27   1.525596 D    
P5    O25   1.525596 D    
P9    O41   1.745061 S    
C75   N3    1.156570 T    
C66   C70   1.397558 A    
O12   P15   1.733108 S    
O31   Ba3   2.796384 S    
Ba2   O46   2.825676 S    
C25   H61   1.105923 S    
P2    O2    1.526276 D    
C37   C45   1.395381 A    
C6    H18   1.110666 S    
C24   H48   1.103826 S    
C22   H50   1.111159 S    
C5    H17   1.110068 S    
P3    Ba3   3.424142 S    
C51   C55   1.434826 A    
Ba3   O48   2.940383 S    
P2    Ba2   3.424294 S    
C10   H26   1.110657 S    
C11   H73   1.109684 S    
C1    H71   1.106995 S    
H3    C31   1.111580 S    
C8    H20   1.109898 S    
O30   Ba2   2.796264 S    
C16   H36   1.108692 S    
Ba1   O46   2.940383 S    
O10   P13   1.730998 S    
C17   H41   1.106047 S    
P10   O30   1.750194 S    
H1    C29   1.110524 S    
C32   H68   1.108881 S    
C2    H72   1.107700 S    
P11   O35   1.540905 D    
C40   H92   1.081982 S    
P12   O36   1.544587 D    
P14   C45   1.850493 S    
C37   H89   1.081845 S    
C20   H44   1.105931 S    
C68   C72   1.397140 A    
O4    Ba4   2.868175 S    
P5    Ba1   3.426551 S    
O23   P16   1.745310 S    
C40   C52   1.398723 A    
C42   H80   1.072406 S    
O22   C30   1.406493 S    
O24   P15   1.747020 S    
P3    C51   1.881834 S    
C8    C12   1.518554 S    
C13   H33   1.107832 S    
C18   H42   1.105190 S    
P2    C50   1.881128 S    
C3    C31   1.515758 S    
C42   C46   1.398039 A    
C1    C29   1.519963 S    
C4    C32   1.520394 S    
O42   C6    1.404119 S    
P12   O44   1.750950 S    
C14   H30   1.105171 S    
C27   H63   1.105883 S    
O9    Ba1   2.796926 S    
C39   C51   1.399994 A    
C33   C61   1.395588 A    
C35   C63   1.398101 A    
C31   H67   1.105748 S    
C20   C76   1.468198 S    
C15   C19   1.518263 S    
P6    O26   1.525612 D    
O5    Ba2   2.825387 S    
P1    O5    1.584155 S    
O44   C8    1.403099 S    
P7    O39   1.737463 S    
C1    H7    1.110093 S    
C6    C10   1.517992 S    
O13   P14   1.544786 D    
C5    C9    1.517582 S    
Ba1   Ba2   4.603014 S    
Ba1   O45   2.825357 S    
O39   C16   1.399997 S    
C57   C61   1.435804 A    
C27   H59   1.108058 S    
C7    C11   1.519151 S    
P8    O47   1.589153 S    
C12   H22   1.108010 S    
C16   C20   1.518440 S    
C44   H78   1.071631 S    
Ba4   O48   2.825676 S    
C54   C60   1.435694 A    
P10   O34   1.542498 D    
Ba2   O45   2.940439 S    
C2    H8    1.110090 S    
C4    H12   1.109250 S    
P11   O31   1.750788 S    
O2    Ba2   2.868175 S    
O17   C21   1.398800 S    
C4    H6    1.110142 S    
P2    O6    1.584380 S    
O27   Ba3   2.871568 S    
C39   H91   1.081795 S    
O9    P14   1.731216 S    
C42   C60   1.409885 A    
C37   C49   1.399116 A    
C18   C74   1.466910 S    
O24   C32   1.406075 S    
O20   C24   1.399516 S    
C43   H77   1.072596 S    
C21   H49   1.110231 S    
P4    C52   1.879755 S    
P6    O45   1.589153 S    
C18   H38   1.102864 S    
C22   C26   1.520297 S    
C5    H13   1.111764 S    
C41   H79   1.072395 S    
P1    Ba1   3.424142 S    
C58   C62   1.435725 A    
C55   C69   1.411074 A    
C43   C47   1.398194 A    
P15   C48   1.848465 S    
C8    H16   1.111676 S    
P16   C47   1.855774 S    
O3    Ba3   2.867852 S    
C2    C30   1.520246 S    
C39   C47   1.396512 A    
P8    Ba4   3.426396 S    
C19   H39   1.104708 S    
P11   O43   1.745379 S    
C41   C45   1.398210 A    
P7    Ba3   3.426551 S    
C17   H37   1.100661 S    
H2    C30   1.110970 S    
C15   H35   1.108972 S    
C43   C57   1.410995 A    
O19   C23   1.399456 S    
C4    H70   1.106124 S    
C14   H34   1.108556 S    
P8    O40   1.736582 S    
C65   C69   1.397638 A    
C44   C48   1.397762 A    
C21   C25   1.512941 S    
C41   C59   1.410727 A    
C23   H47   1.102937 S    
C11   H21   1.110303 S    
C13   C17   1.518358 S    
O12   Ba4   2.797046 S    
O40   C15   1.399298 S    
C1    H9    1.108289 S    
O11   P16   1.728917 S    
O14   P13   1.544804 D    
O25   Ba1   2.871568 S    
O43   C7    1.403550 S    
C69   H83   1.074906 S    
P9    O33   1.542266 D    
C7    H19   1.110020 S    
C50   C54   1.435376 A    
O8    Ba3   2.825705 S    
C59   C63   1.435644 A    
C26   H58   1.108809 S    
C49   C53   1.435131 A    
C34   C62   1.395377 A    
P8    C63   1.877654 S    
C44   C58   1.409509 A    
C9    H75   1.109609 S    
C3    H69   1.109729 S    
C36   H88   1.082400 S    
C53   C59   1.435466 A    
C10   H76   1.109780 S    
C35   H87   1.082226 S    
C72   H82   1.072282 S    
P10   O42   1.745175 S    
C34   H86   1.082384 S    
P3    O7    1.584155 S    
O29   Ba1   2.796384 S    
C21   H45   1.105625 S    
P8    O28   1.525612 D    
C56   C58   1.435991 A    
P7    O48   1.589380 S    
Ba4   O47   2.940439 S    
O21   P14   1.746511 S    
C55   C57   1.436284 A    
O10   Ba2   2.797046 S    
C26   H54   1.109876 S    
P1    C49   1.881417 S    
P6    Ba2   3.426396 S    
C27   H55   1.107512 S    
P5    O46   1.589380 S    
C38   C46   1.395169 A    
O7    Ba4   2.825387 S    
C36   C64   1.395149 A    
C7    H15   1.109824 S    
C23   C27   1.519117 S    
C13   H29   1.105592 S    
C71   H81   1.073245 S    
C24   C28   1.520613 S    
C17   C73   1.467172 S    
