data_mof_unit_68361.cif
_audit_creation_date              2013-03-05T15:41:21-0500
_audit_creation_method            fapswitch 2.2
_symmetry_space_group_name_H-M    P1
_symmetry_Int_Tables_number       1
_space_group_crystal_system       triclinic
_cell_length_a                    10.758891
_cell_length_b                    8.945363
_cell_length_c                    7.545739
_cell_angle_alpha                 101.522538
_cell_angle_beta                  95.512171
_cell_angle_gamma                 94.394614
_cell_volume                      704.865821263

loop_
_atom_site_label
_atom_site_type_symbol
_atom_site_description
_atom_site_fract_x
_atom_site_fract_y
_atom_site_fract_z
_atom_type_partial_charge
O1    O     O_R   0.509190 0.286130 0.619780 -0.589903
O2    O     O_R   0.490810 0.713870 0.380220 -0.589902
O3    O     O_R   0.485310 0.256770 0.308360 -0.591696
O4    O     O_R   0.514690 0.743230 0.691640 -0.591695
C1    C     C_R   0.491722 0.200511 0.455311 0.842293
C2    C     C_R   0.508286 0.799488 0.544689 0.842281
O5    O     O_R   0.328790 0.514640 0.655680 -0.604221
O6    O     O_R   0.671210 0.485360 0.344320 -0.604230
O7    O     O_R   0.304910 0.485280 0.344260 -0.526129
O8    O     O_R   0.695090 0.514720 0.655740 -0.526119
C3    C     C_R   0.259906 0.498516 0.499975 0.811373
C4    C     C_R   0.740094 0.501479 0.500025 0.811356
Cu1   Cu    Cu3+1 0.514140 0.517380 0.684380 0.993279
Cu2   Cu    Cu3+1 0.485860 0.482620 0.315620 0.993272
N1    N     N_2   0.464560 0.456420 0.038510 -0.208415
N2    N     N_2   0.535440 0.543580 0.961490 -0.208407
C5    C     C_3   0.046370 0.416477 0.617845 -0.327030
C6    C     C_3   0.953629 0.583521 0.382160 -0.327030
C7    C     C_3   0.947622 0.355001 0.449759 -0.097884
C8    C     C_3   0.052376 0.644998 0.550247 -0.097902
H1    H     H_    0.084345 0.365851 0.729007 0.197551
H2    H     H_    0.915648 0.634146 0.271002 0.197565
C9    C     C_3   0.875980 0.497233 0.498285 -0.180660
C10   C     C_3   0.124020 0.502765 0.501721 -0.180655
C11   C     C_3   0.974166 0.558239 0.662760 0.451671
C12   C     C_3   0.025833 0.441760 0.337247 0.451695
H3    H     H_    0.403428 0.375715 0.949182 0.222174
H4    H     H_    0.596572 0.624284 0.050818 0.222180
C13   C     C_2   0.481548 0.033788 0.431994 -0.361246
C14   C     C_2   0.518463 0.966211 0.568003 -0.361256
H5    H     H_    0.444205 0.965287 0.299140 0.181942
H6    H     H_    0.555807 0.034711 0.700857 0.181937
C15   C     C_R   0.902435 0.190679 0.370297 0.123515
C16   C     C_R   0.990354 0.083900 0.338635 -0.099686
C17   C     C_R   0.950826 0.932343 0.255974 -0.084896
C18   C     C_R   0.822831 0.886154 0.206691 -0.057823
C19   C     C_R   0.736357 0.993346 0.225645 -0.152154
C20   C     C_R   0.776078 0.144964 0.307268 -0.116925
H7    H     H_    0.089408 0.117348 0.380441 0.156020
H8    H     H_    0.020248 0.851806 0.236075 0.192160
H9    H     H_    0.788864 0.768439 0.150148 0.165947
H10   H     H_    0.638974 0.958676 0.174799 0.145103
H11   H     H_    0.708398 0.225516 0.315906 0.164702
C21   C     C_R   0.097563 0.809322 0.629706 0.123491
C22   C     C_R   0.009644 0.916096 0.661395 -0.099730
C23   C     C_R   0.049169 0.067654 0.744059 -0.084883
C24   C     C_R   0.177165 0.113848 0.793328 -0.057820
C25   C     C_R   0.263644 0.006661 0.774338 -0.152150
C26   C     C_R   0.223925 0.855044 0.692697 -0.116916
H12   H     H_    0.910590 0.882645 0.619606 0.156010
H13   H     H_    0.979746 0.148188 0.763969 0.192173
H14   H     H_    0.211131 0.231563 0.849890 0.165946
H15   H     H_    0.361028 0.041336 0.825174 0.145106
H16   H     H_    0.291610 0.774496 0.684014 0.164681
N3    N     N_R   0.950883 0.628610 0.844928 0.142536
O9    O     O_R   0.042145 0.644526 0.975268 -0.374541
O10   O     O_R   0.864566 0.722404 0.861630 -0.416993
N4    N     N_R   0.049118 0.371384 0.155082 0.142506
O11   O     O_R   0.957830 0.355434 0.024755 -0.374554
O12   O     O_R   0.135431 0.277534 0.138423 -0.417012

loop_
_geom_bond_atom_site_label_1
_geom_bond_atom_site_label_2
_geom_bond_distance
_ccdc_geom_bond_type
C21   C26   1.398017 A    
N2    H4    1.027504 S    
C24   C25   1.383115 A    
C7    C9    1.537982 S    
O7    Cu2   1.980721 S    
C24   H14   1.075185 S    
C6    H2    1.090807 S    
C13   C14   1.335198 D    
C12   N4    1.446766 S    
N1    H3    1.027504 S    
C15   C20   1.398013 A    
C6    C12   1.535014 S    
O6    C4    1.303502 A    
C5    C11   1.535015 S    
N3    O9    1.299532 A    
C9    C11   1.530769 S    
C15   C16   1.398178 A    
C20   H11   1.060403 S    
C13   H5    1.086900 S    
C23   C24   1.399437 A    
Cu1   Cu2   2.721972 S    
C14   H6    1.086906 S    
O7    C3    1.300598 A    
C4    C9    1.466634 S    
C18   H9    1.075167 S    
O2    C2    1.309763 A    
O3    Cu2   2.009622 S    
O8    C4    1.300590 A    
C22   H12   1.083322 S    
C6    C9    1.540628 S    
O1    C1    1.309768 A    
N1    N2    1.304705 D    
C25   C26   1.388664 A    
C2    C14   1.460701 S    
C19   C20   1.388642 A    
C10   C12   1.530758 S    
O5    C3    1.303497 A    
C1    C13   1.460708 S    
N3    O10   1.296891 A    
C25   H15   1.080076 S    
O2    Cu2   2.023587 S    
C5    C10   1.540633 S    
O1    Cu1   2.023585 S    
C8    C11   1.526943 S    
C19   H10   1.080085 S    
C17   H8    1.077134 S    
C26   H16   1.060416 S    
C5    C7    1.553305 S    
C11   N3    1.446768 S    
C3    C10   1.466640 S    
O5    Cu1   1.982825 S    
C21   C22   1.398173 A    
C6    C8    1.553309 S    
O4    C2    1.304280 A    
C16   C17   1.389521 A    
C7    C15   1.496298 S    
Cu1   N2    2.045398 S    
O4    Cu1   2.009622 S    
C7    C12   1.526937 S    
C8    C10   1.537990 S    
Cu2   N1    2.045398 S    
C18   C19   1.383101 A    
O6    Cu2   1.982827 S    
C17   C18   1.399433 A    
C8    C21   1.496307 S    
N4    O11   1.299614 A    
C22   C23   1.389528 A    
N4    O12   1.297187 A    
C23   H13   1.077139 S    
C5    H1    1.090813 S    
C16   H7    1.083334 S    
O3    C1    1.304279 A    
O8    Cu1   1.980721 S    
