data_mof_unit_39881.cif
_audit_creation_date              2012-12-11T14:17:45-0500
_audit_creation_method            fapswitch 2.2
_symmetry_space_group_name_H-M    P1
_symmetry_Int_Tables_number       1
_space_group_crystal_system       monoclinic
_cell_length_a                    11.088834
_cell_length_b                    11.088834
_cell_length_c                    18.790678
_cell_angle_alpha                 90.0
_cell_angle_beta                  90.0
_cell_angle_gamma                 120.000162
_cell_volume                      2000.98640265

loop_
_atom_site_label
_atom_site_type_symbol
_atom_type_description
_atom_site_fract_x
_atom_site_fract_y
_atom_site_fract_z
_atom_type_partial_charge
C1    C     C_R   0.520099 0.460238 0.147747 0.568456
C2    C     C_R   0.539762 0.059861 0.147747 0.568455
C3    C     C_R   0.940139 0.479901 0.147747 0.568455
C4    C     C_R   0.452810 0.521462 0.854645 0.618883
C5    C     C_R   0.068652 0.547190 0.854645 0.618881
C6    C     C_R   0.478538 0.931348 0.854645 0.618882
C7    C     C_R   0.455873 0.079169 0.471109 -0.159382
C8    C     C_R   0.920831 0.376704 0.471109 -0.159382
C9    C     C_R   0.623296 0.544127 0.471109 -0.159381
C10   C     C_R   0.943102 0.392640 0.543866 -0.159666
C11   C     C_R   0.449539 0.056898 0.543866 -0.159667
C12   C     C_R   0.607359 0.550461 0.543866 -0.159665
C13   C     C_R   0.702813 0.926627 0.546472 0.410502
C14   C     C_R   0.073372 0.776185 0.546472 0.410501
C15   C     C_R   0.223813 0.297187 0.546472 0.410501
C16   C     C_R   0.141922 0.742799 0.408276 0.375406
C17   C     C_R   0.600875 0.858077 0.408276 0.375406
C18   C     C_R   0.257202 0.399125 0.408275 0.375407
C19   C     C_R   0.758482 0.871409 0.498660 0.447271
C20   C     C_R   0.128590 0.887073 0.498661 0.447271
C21   C     C_R   0.112926 0.241517 0.498660 0.447271
C22   C     C_R   0.161939 0.870595 0.429739 0.392660
C23   C     C_R   0.708653 0.838059 0.429739 0.392661
C24   C     C_R   0.129405 0.291346 0.429739 0.392660
C25   C     C_R   0.521252 0.456493 0.354061 0.623083
C26   C     C_R   0.543506 0.064759 0.354061 0.623082
C27   C     C_R   0.935241 0.478748 0.354061 0.623082
C28   C     C_R   0.453114 0.516491 0.645498 0.560233
C29   C     C_R   0.063377 0.546886 0.645498 0.560232
C30   C     C_R   0.483509 0.936623 0.645498 0.560233
C31   C     C_R   0.491957 0.969064 0.929788 0.041007
C32   C     C_R   0.030936 0.522893 0.929788 0.041007
C33   C     C_R   0.477107 0.508043 0.929788 0.041007
C34   C     C_R   0.007956 0.496017 0.078068 0.025254
C35   C     C_R   0.488061 0.992044 0.078068 0.025254
C36   C     C_R   0.503983 0.511939 0.078068 0.025254
C37   C     C_R   0.420605 0.031745 0.959940 -0.131891
C38   C     C_R   0.968255 0.388860 0.959940 -0.131891
C39   C     C_R   0.611140 0.579395 0.959940 -0.131891
C40   C     C_R   0.975320 0.377462 0.034745 -0.146263
C41   C     C_R   0.402142 0.024680 0.034745 -0.146264
C42   C     C_R   0.622539 0.597859 0.034745 -0.146264
C43   C     C_R   0.552743 0.925266 0.047337 -0.138602
C44   C     C_R   0.074734 0.627478 0.047337 -0.138602
C45   C     C_R   0.372522 0.447257 0.047337 -0.138601
C46   C     C_R   0.091644 0.640791 0.974383 -0.148165
C47   C     C_R   0.549146 0.908355 0.974383 -0.148165
C48   C     C_R   0.359209 0.450853 0.974383 -0.148164
C49   C     C_R   0.361099 0.094734 0.917892 0.371997
C50   C     C_R   0.905266 0.266364 0.917892 0.371997
C51   C     C_R   0.733636 0.638902 0.917892 0.371997
C52   C     C_R   0.949869 0.248320 0.062652 0.391371
C53   C     C_R   0.298452 0.050132 0.062651 0.391371
C54   C     C_R   0.751680 0.701549 0.062652 0.391372
C55   C     C_R   0.266602 0.127493 0.947761 0.409745
C56   C     C_R   0.872507 0.139108 0.947762 0.409744
C57   C     C_R   0.860892 0.733399 0.947762 0.409744
C58   C     C_R   0.894278 0.130506 0.019799 0.444761
C59   C     C_R   0.236230 0.105723 0.019798 0.444760
C60   C     C_R   0.869494 0.763772 0.019799 0.444760
C61   C     C_R   0.514323 0.988312 0.572282 0.017402
C62   C     C_R   0.011687 0.526010 0.572282 0.017402
C63   C     C_R   0.473989 0.485677 0.572282 0.017402
C64   C     C_R   0.989300 0.492542 0.425407 0.054469
C65   C     C_R   0.503241 0.010700 0.425407 0.054469
C66   C     C_R   0.507458 0.496758 0.425407 0.054469
C67   C     C_R   0.590124 0.946195 0.525874 -0.134536
C68   C     C_R   0.053804 0.643929 0.525875 -0.134535
C69   C     C_R   0.356071 0.409876 0.525874 -0.134535
C70   C     C_R   0.069686 0.625958 0.453298 -0.123043
C71   C     C_R   0.556271 0.930314 0.453298 -0.123042
C72   C     C_R   0.374042 0.443728 0.453298 -0.123043
Cr1   Cr    Cr6+3 0.768550 0.541320 0.250660 1.248449
Cr2   Cr    Cr6+3 0.458680 0.227230 0.250660 1.248449
Cr3   Cr    Cr6+3 0.772770 0.231450 0.250660 1.248449
Cr4   Cr    Cr6+3 0.541320 0.768550 0.749340 1.224752
Cr5   Cr    Cr6+3 0.227230 0.458680 0.749340 1.224752
Cr6   Cr    Cr6+3 0.231450 0.772770 0.749340 1.224752
H1    H     H_    0.609095 0.889252 0.079794 0.233150
H2    H     H_    0.110748 0.719844 0.079794 0.233151
H3    H     H_    0.280156 0.390904 0.079794 0.233151
H4    H     H_    0.151544 0.744908 0.952739 0.188096
H5    H     H_    0.593363 0.848456 0.952739 0.188095
H6    H     H_    0.255092 0.406636 0.952739 0.188095
O1    O     O_R   0.910960 0.572410 0.171010 -0.458523
O2    O     O_R   0.427590 0.338550 0.171010 -0.458523
O3    O     O_R   0.661450 0.089040 0.171010 -0.458523
O4    O     O_R   0.572410 0.910960 0.828990 -0.436316
O5    O     O_R   0.338550 0.427590 0.828990 -0.436316
O6    O     O_R   0.089040 0.661450 0.828990 -0.436316
O7    O     O_R   0.639750 0.528530 0.175600 -0.439275
O8    O     O_R   0.471470 0.111220 0.175600 -0.439275
O9    O     O_R   0.888780 0.360250 0.175600 -0.439275
O10   O     O_R   0.528530 0.639750 0.824400 -0.459732
O11   O     O_R   0.111220 0.471470 0.824400 -0.459732
O12   O     O_R   0.360250 0.888780 0.824400 -0.459732
O13   O     O_R   0.909330 0.572400 0.331540 -0.453184
O14   O     O_R   0.427600 0.336930 0.331540 -0.453184
O15   O     O_R   0.663070 0.090670 0.331540 -0.453184
O16   O     O_R   0.572400 0.909330 0.668460 -0.424036
O17   O     O_R   0.336930 0.427600 0.668460 -0.424035
O18   O     O_R   0.090670 0.663070 0.668460 -0.424035
O19   O     O_R   0.638240 0.528520 0.324410 -0.452348
O20   O     O_R   0.471480 0.109720 0.324410 -0.452349
O21   O     O_R   0.890280 0.361760 0.324410 -0.452349
O22   O     O_R   0.528520 0.638240 0.675590 -0.483023
O23   O     O_R   0.109720 0.471480 0.675590 -0.483023
O24   O     O_R   0.361760 0.890280 0.675590 -0.483023
O25   O     O_3   0.666667 0.333333 0.250630 -0.391677
O26   O     O_3   0.333333 0.666667 0.749370 -0.385278
F1    F     F_    0.396895 0.129322 0.848680 -0.535979
F2    F     F_    0.870679 0.267571 0.848680 -0.535979
F3    F     F_    0.732428 0.603107 0.848680 -0.535979
F4    F     F_    0.996903 0.238304 0.127884 -0.483327
F5    F     F_    0.241402 0.003099 0.127883 -0.483327
F6    F     F_    0.761697 0.758599 0.127884 -0.483326
F7    F     F_    0.198217 0.173013 0.905724 -0.528394
F8    F     F_    0.826987 0.025203 0.905725 -0.528395
F9    F     F_    0.974797 0.801785 0.905725 -0.528395
F10   F     F_    0.864680 0.007561 0.048710 -0.495338
F11   F     F_    0.142882 0.135321 0.048709 -0.495339
F12   F     F_    0.992440 0.857119 0.048709 -0.495338
H7    H     H_    0.422455 0.149031 0.450536 0.191391
H8    H     H_    0.850969 0.273423 0.450536 0.191392
H9    H     H_    0.726577 0.577545 0.450536 0.191391
H10   H     H_    0.902924 0.301916 0.577994 0.218225
H11   H     H_    0.398993 0.097076 0.577995 0.218224
H12   H     H_    0.698083 0.601007 0.577995 0.218225
F13   F     F_    0.779434 0.985340 0.606009 -0.468286
F14   F     F_    0.014658 0.794093 0.606009 -0.468287
F15   F     F_    0.205905 0.220566 0.606009 -0.468285
F16   F     F_    0.181582 0.730278 0.341491 -0.515223
F17   F     F_    0.548694 0.818418 0.341491 -0.515223
F18   F     F_    0.269724 0.451306 0.341491 -0.515223
F19   F     F_    0.864554 0.853425 0.519191 -0.494764
F20   F     F_    0.146574 0.011130 0.519192 -0.494762
F21   F     F_    0.988869 0.135445 0.519191 -0.494764
F22   F     F_    0.205465 0.976405 0.382295 -0.528280
F23   F     F_    0.770938 0.794535 0.382294 -0.528279
F24   F     F_    0.023595 0.229061 0.382294 -0.528279

loop_
_geom_bond_atom_site_label_1
_geom_bond_atom_site_label_2
_ccdc_geom_bond_type
C2    C35   S    
C59   F11   S    
C39   C51   A    
C55   C59   A    
Cr6   O18   S    
Cr5   O17   S    
C21   F21   S    
Cr2   O25   S    
C53   C59   A    
Cr2   O14   S    
C54   C60   A    
Cr6   O6    S    
Cr1   O13   S    
Cr5   O5    S    
C17   C23   A    
C34   C40   A    
C23   F23   S    
C32   C38   A    
C14   F14   S    
C3    O1    A    
C27   O21   A    
C19   F19   S    
C30   O16   A    
C6    O4    A    
Cr6   O24   S    
Cr2   O8    S    
C9    C66   A    
Cr4   O10   S    
C46   H4    S    
C36   C42   A    
C28   O17   A    
C66   C72   A    
C63   C69   A    
Cr6   O12   S    
C54   F6    S    
Cr1   O19   S    
C16   C22   A    
C51   C57   A    
C64   C70   A    
C35   C43   A    
Cr4   O4    S    
C5    O6    A    
C26   O15   A    
C49   F1    S    
C5    C32   S    
C26   O20   A    
C6    C31   S    
C1    O7    A    
C31   C47   A    
C10   C62   A    
C32   C46   A    
C35   C41   A    
C58   F10   S    
C5    O11   A    
C44   C46   A    
C39   C42   A    
C18   C72   A    
C15   C69   A    
C45   H3    S    
Cr3   O25   S    
C13   C19   A    
C14   C20   A    
C44   H2    S    
C16   C70   A    
Cr1   O7    S    
Cr6   O26   S    
C28   O22   A    
C12   C63   A    
C19   C23   A    
C8    H8    S    
C57   C60   A    
C3    C34   S    
C40   C52   A    
Cr5   O11   S    
C24   F24   S    
C31   C37   A    
C69   C72   A    
C7    C11   A    
C28   C63   S    
C7    C65   A    
C37   C49   A    
C61   C67   A    
Cr5   O23   S    
Cr1   O1    S    
Cr3   O15   S    
C34   C44   A    
C2    O3    A    
C3    O9    A    
C33   C39   A    
Cr2   O2    S    
C60   F12   S    
C20   F20   S    
C41   C53   A    
C52   C58   A    
C8    C64   A    
C38   C50   A    
C11   H11   S    
C8    C10   A    
C20   C22   A    
C17   C71   A    
C36   C45   A    
C17   F17   S    
C18   C24   A    
C21   C24   A    
Cr3   O9    S    
Cr2   O20   S    
C4    O5    A    
C55   F7    S    
C45   C48   A    
Cr3   O3    S    
C1    O2    A    
C4    C33   S    
C29   C62   S    
C27   O13   A    
Cr4   O22   S    
C13   C67   A    
C30   O24   A    
C26   C65   S    
C56   F8    S    
C51   F3    S    
C25   O19   A    
C25   C66   S    
C7    H7    S    
C11   C61   A    
C49   C55   A    
Cr1   O25   S    
C12   H12   S    
C52   F4    S    
Cr4   O16   S    
C22   F22   S    
C6    O12   A    
Cr4   O26   S    
C57   F9    S    
C50   F2    S    
C65   C71   A    
C42   C54   A    
C38   C40   A    
C4    O10   A    
C43   C47   A    
C2    O8    A    
C56   C58   A    
C29   O18   A    
C18   F18   S    
C67   C71   A    
C62   C68   A    
C37   C41   A    
Cr5   O26   S    
C16   F16   S    
C9    C12   A    
C50   C56   A    
C27   C64   S    
C47   H5    S    
C9    H9    S    
C48   H6    S    
C25   O14   A    
C15   C21   A    
C15   F15   S    
C68   C70   A    
C30   C61   S    
C33   C48   A    
C14   C68   A    
C29   O23   A    
Cr3   O21   S    
C10   H10   S    
C43   H1    S    
C13   F13   S    
C53   F5    S    
C1    C36   S    
