data_mof_unit_46722.cif
_audit_creation_date              2012-12-10T18:46:21-0500
_audit_creation_method            fapswitch 2.2
_symmetry_space_group_name_H-M    P1
_symmetry_Int_Tables_number       1
_space_group_crystal_system       triclinic
_cell_length_a                    9.89007
_cell_length_b                    10.68782
_cell_length_c                    13.176997
_cell_angle_alpha                 89.27491
_cell_angle_beta                  70.106503
_cell_angle_gamma                 89.22869
_cell_volume                      1309.56894847

loop_
_atom_site_label
_atom_site_type_symbol
_atom_type_description
_atom_site_fract_x
_atom_site_fract_y
_atom_site_fract_z
_atom_type_partial_charge
C1    C     C_R   0.506591 0.738390 0.483550 0.878062
C2    C     C_R   0.432404 0.470155 0.984277 0.092235
C3    C     C_R   0.465667 0.439801 0.874761 0.087573
C4    C     C_R   0.543367 0.461173 0.029289 0.080959
C5    C     C_R   0.677787 0.405357 0.970422 0.184269
C6    C     C_R   0.700567 0.359460 0.867816 -0.270831
C7    C     C_R   0.594937 0.373929 0.821235 -0.218317
C8    C     C_R   0.525467 0.509162 0.130504 -0.275765
C9    C     C_R   0.760281 0.431954 0.121825 -0.201310
C10   C     C_R   0.369705 0.478447 0.821459 -0.122193
C11   C     C_R   0.645757 0.931970 0.447161 0.397317
C12   C     C_R   0.420523 0.492097 0.703900 0.858768
C13   C     C_R   0.638756 0.056796 0.474253 -0.055758
C14   C     C_R   0.512070 0.125370 0.482560 -0.175012
C15   C     C_R   0.398877 0.067186 0.460874 -0.253144
C16   C     C_R   0.400662 0.939341 0.447833 -0.034832
C17   C     C_R   0.518443 0.870313 0.455324 -0.232602
C18   C     C_R   0.968442 0.460576 0.411372 0.516059
C19   C     C_R   0.112589 0.461165 0.411846 -0.192260
C20   C     C_R   0.031158 0.537562 0.588612 -0.103452
C21   C     C_R   0.887881 0.537846 0.588522 -0.175116
C22   C     C_R   0.502036 0.258929 0.498422 0.881956
C23   C     C_R   0.579689 0.500502 0.296005 0.850287
C24   C     C_R   0.786530 0.393716 0.016169 -0.224613
C25   C     C_R   0.627514 0.486573 0.179761 -0.052304
C26   C     C_R   0.230054 0.518587 0.881698 -0.197299
C27   C     C_R   0.189048 0.528633 0.993089 -0.151941
C28   C     C_R   0.289647 0.507785 0.044120 -0.209504
H1    H     H_    0.840534 0.413954 0.159212 0.194414
H2    H     H_    0.309207 0.120632 0.453392 0.170589
H3    H     H_    0.199702 0.429555 0.341724 0.131510
H4    H     H_    0.052518 0.568493 0.659469 0.137108
H5    H     H_    0.802105 0.569514 0.659416 0.169056
H6    H     H_    0.801318 0.314362 0.823046 0.145596
H7    H     H_    0.889173 0.350510 0.971933 0.141412
H8    H     H_    0.429881 0.561286 0.174602 0.150191
H9    H     H_    0.153742 0.545272 0.842497 0.151007
H10   H     H_    0.251897 0.518491 0.130568 0.117884
H11   H     H_    0.080571 0.557835 0.039626 0.148827
H12   H     H_    0.615667 0.332068 0.743116 0.181181
N1    N     N_R   0.142790 0.500030 0.500030 -0.079086
N2    N     N_R   0.857180 0.499940 0.500010 -0.081664
O1    O     O_R   0.385370 0.683250 0.500010 -0.597758
O2    O     O_R   0.614700 0.683220 0.500010 -0.591470
O3    O     O_R   0.328400 0.499990 0.653620 -0.617573
O4    O     O_R   0.557730 0.499960 0.653620 -0.621923
O5    O     O_R   0.385300 0.316780 0.499990 -0.624461
O6    O     O_R   0.614630 0.316750 0.499990 -0.598334
O7    O     O_R   0.442270 0.500040 0.346380 -0.625590
O8    O     O_R   0.671600 0.500010 0.346380 -0.564173
Zn1   Zn    Zn3+2 0.346870 0.500020 0.500000 0.942179
Zn2   Zn    Zn3+2 0.653130 0.499980 0.500000 0.987950
C29   C     C_R   0.761678 0.106626 0.500289 0.212607
C30   C     C_R   0.892153 0.132823 0.417954 -0.004115
C31   C     C_R   0.012549 0.165842 0.444040 -0.150784
C32   C     C_R   0.003040 0.173267 0.552130 -0.135490
C33   C     C_R   0.874529 0.144036 0.634024 -0.166874
C34   C     C_R   0.753719 0.111671 0.608474 -0.162543
H13   H     H_    0.900918 0.125779 0.334025 0.126752
H14   H     H_    0.113115 0.185675 0.380412 0.122084
H15   H     H_    0.095374 0.200061 0.572812 0.146878
H16   H     H_    0.869482 0.143767 0.717176 0.128646
H17   H     H_    0.655163 0.087298 0.672657 0.117509
C35   C     C_R   0.286897 0.881922 0.416099 0.169390
C36   C     C_R   0.320949 0.831291 0.312499 -0.136305
C37   C     C_R   0.215386 0.771722 0.283101 -0.178602
C38   C     C_R   0.076596 0.760549 0.357477 -0.063970
C39   C     C_R   0.042393 0.810655 0.460959 -0.050984
C40   C     C_R   0.146861 0.872441 0.490006 -0.153514
H18   H     H_    0.429204 0.837526 0.254980 0.115442
H19   H     H_    0.241400 0.733317 0.203106 0.128823
H20   H     H_    0.996486 0.711422 0.334953 0.142154
H21   H     H_    0.935573 0.800316 0.519455 0.178123
H22   H     H_    0.119946 0.909751 0.570594 0.128543
O9    O     O_3   0.938256 0.419675 0.322849 -0.783177
H23   H     H_    0.029203 0.394028 0.266181 0.290359
O10   O     O_3   0.777164 0.871970 0.414271 -0.795725
H24   H     H_    0.775714 0.809102 0.359909 0.326670

loop_
_geom_bond_atom_site_label_1
_geom_bond_atom_site_label_2
_ccdc_geom_bond_type
C22   O6    A    
C31   C32   A    
C18   O9    S    
C4    C8    A    
C19   H3    S    
C20   N1    A    
C9    C25   A    
C33   H16   S    
C29   C30   A    
C26   C27   A    
C38   H20   S    
C3    C7    A    
C18   N2    A    
C5    C6    A    
C23   O7    A    
C21   H5    S    
O3    Zn1   S    
C36   H18   S    
O4    Zn2   S    
C32   C33   A    
C18   C19   A    
C8    H8    S    
C11   O10   S    
C1    O1    A    
C27   H11   S    
C39   C40   A    
O7    Zn1   S    
O8    Zn2   S    
C7    H12   S    
C9    H1    S    
O2    Zn2   S    
C22   O5    A    
C31   H14   S    
C8    C25   A    
C13   C29   S    
C30   H13   S    
C24   H7    S    
C15   C16   A    
C38   C39   A    
C12   O4    A    
C12   O3    A    
C23   O8    A    
O5    Zn1   S    
C39   H21   S    
O10   H24   S    
C6    H6    S    
C2    C4    A    
O9    H23   S    
C1    O2    A    
C37   H19   S    
C28   H10   S    
C40   H22   S    
C9    C24   A    
C35   C40   A    
C10   C12   S    
C15   H2    S    
C20   H4    S    
C34   H17   S    
C30   C31   A    
C11   C17   A    
C14   C15   A    
C4    C5    A    
C29   C34   A    
C26   H9    S    
C6    C7    A    
C1    C17   S    
C35   C36   A    
C14   C22   S    
C2    C3    A    
C3    C10   A    
C11   C13   A    
C10   C26   A    
C33   C34   A    
C16   C17   A    
C5    C24   A    
O1    Zn1   S    
C37   C38   A    
C23   C25   S    
C21   N2    A    
O6    Zn2   S    
C20   C21   A    
C36   C37   A    
C27   C28   A    
C32   H15   S    
C2    C28   A    
C16   C35   S    
C13   C14   A    
N1    Zn1   S    
C19   N1    A    
N2    Zn2   S    
