data_mof_unit_66924.cif
_audit_creation_date              2013-03-05T15:57:28-0500
_audit_creation_method            fapswitch 2.2
_symmetry_space_group_name_H-M    P1
_symmetry_Int_Tables_number       1
_space_group_crystal_system       triclinic
_cell_length_a                    17.234533
_cell_length_b                    18.654996
_cell_length_c                    8.413172
_cell_angle_alpha                 89.848854
_cell_angle_beta                  101.505203
_cell_angle_gamma                 90.271235
_cell_volume                      2650.53543018

loop_
_atom_site_label
_atom_site_type_symbol
_atom_site_description
_atom_site_fract_x
_atom_site_fract_y
_atom_site_fract_z
_atom_type_partial_charge
P1    P     P_3+3 0.834140 0.419320 0.003900 0.505341
P2    P     P_3+3 0.834140 0.580680 0.503900 0.504216
P3    P     P_3+3 0.334140 0.919320 0.003900 0.505100
P4    P     P_3+3 0.334140 0.080680 0.503900 0.504158
O1    O     O_2   0.841960 0.394640 0.833410 -0.315110
O2    O     O_2   0.841960 0.605360 0.333410 -0.342436
O3    O     O_2   0.341960 0.894640 0.833410 -0.315055
O4    O     O_2   0.341960 0.105360 0.333410 -0.342960
O5    O     O_3   0.907950 0.463080 0.102990 -0.423657
O6    O     O_3   0.907950 0.536920 0.602990 -0.411209
O7    O     O_3   0.407950 0.963080 0.102990 -0.423880
O8    O     O_3   0.407950 0.036920 0.602990 -0.411178
O9    O     O_3   0.972780 0.329600 0.629720 -0.356897
O10   O     O_3   0.972780 0.670400 0.129720 -0.365749
O11   O     O_3   0.472780 0.829600 0.629720 -0.357316
O12   O     O_3   0.472780 0.170400 0.129720 -0.365786
O13   O     O_2   0.837543 0.278424 0.690931 -0.360979
O14   O     O_2   0.836626 0.721337 0.183483 -0.362976
O15   O     O_2   0.337617 0.778288 0.691056 -0.361511
O16   O     O_2   0.336478 0.221235 0.183025 -0.363456
O17   O     O_3   0.754027 0.477343 0.959264 -0.498384
O18   O     O_3   0.752463 0.522958 0.469239 -0.506301
O19   O     O_3   0.254067 0.977432 0.959034 -0.498207
O20   O     O_3   0.252478 0.022937 0.469120 -0.505989
O21   O     O_3   0.933589 0.181991 0.638045 -0.506860
O22   O     O_3   0.939477 0.816959 0.148220 -0.529900
O23   O     O_3   0.433876 0.682055 0.637776 -0.507879
O24   O     O_3   0.439416 0.316918 0.148366 -0.529696
H1    H     H_    0.027311 0.156964 0.530739 0.144510
H2    H     H_    0.046681 0.855345 0.118906 0.129980
H3    H     H_    0.528173 0.656377 0.532835 0.144486
H4    H     H_    0.546694 0.355304 0.119571 0.130026
C1    C     C_3   0.943451 0.068709 0.514171 -0.877514
C2    C     C_3   0.951410 0.913150 0.966825 -0.880195
C3    C     C_3   0.442700 0.569235 0.511213 -0.879977
C4    C     C_3   0.451547 0.413068 0.966974 -0.879715
H5    H     H_    0.479629 0.539451 0.440632 0.278846
H6    H     H_    0.430725 0.447075 0.057828 0.278487
H7    H     H_    0.979828 0.039136 0.442062 0.278419
H8    H     H_    0.930829 0.947175 0.057956 0.278478
H9    H     H_    0.956055 0.047450 0.639704 0.287242
H10   H     H_    0.900193 0.901276 0.868055 0.223844
H11   H     H_    0.453575 0.547385 0.636249 0.286992
H12   H     H_    0.400494 0.401141 0.867879 0.223443
P5    P     P_3+3 0.165830 0.418670 0.685610 0.451755
P6    P     P_3+3 0.165830 0.581330 0.185610 0.448100
P7    P     P_3+3 0.665830 0.918670 0.685610 0.451527
P8    P     P_3+3 0.665830 0.081330 0.185610 0.448264
P9    P     P_3+3 0.098604 0.264454 0.112273 0.547385
P10   P     P_3+3 0.099312 0.735368 0.609041 0.525051
P11   P     P_3+3 0.598605 0.764464 0.112153 0.546369
P12   P     P_3+3 0.599330 0.235357 0.609082 0.524909
O25   O     O_2   0.157990 0.394030 0.856030 -0.376607
O26   O     O_2   0.157990 0.605970 0.356030 -0.376218
O27   O     O_2   0.657990 0.894030 0.856030 -0.376336
O28   O     O_2   0.657990 0.105970 0.356030 -0.376393
O29   O     O_3   0.027110 0.329490 0.059550 -0.410636
O30   O     O_3   0.027110 0.670510 0.559550 -0.407089
O31   O     O_3   0.527110 0.829490 0.059550 -0.410501
O32   O     O_3   0.527110 0.170510 0.559550 -0.406794
O33   O     O_2   0.155610 0.270280 0.992133 -0.341311
O34   O     O_2   0.159759 0.724223 0.498535 -0.356279
O35   O     O_2   0.655753 0.770526 0.992363 -0.342420
O36   O     O_2   0.659829 0.224145 0.498731 -0.356465
O37   O     O_3   0.248057 0.475990 0.723318 -0.584478
O38   O     O_3   0.248533 0.525249 0.221573 -0.587897
O39   O     O_3   0.748078 0.975963 0.723338 -0.584715
O40   O     O_3   0.748552 0.025261 0.221600 -0.587478
O41   O     O_3   0.051598 0.181886 0.065891 -0.414820
O42   O     O_3   0.054808 0.816732 0.542310 -0.447652
O43   O     O_3   0.551686 0.681909 0.064902 -0.415569
O44   O     O_3   0.554924 0.316740 0.542181 -0.447843
C5    C     C_3   0.970461 0.188466 0.064939 0.550867
C6    C     C_3   0.975584 0.814664 0.560404 0.533110
C7    C     C_3   0.470471 0.688427 0.063323 0.550250
C8    C     C_3   0.475761 0.314861 0.560685 0.532592
H13   H     H_    0.940175 0.214288 0.950451 0.141910
H14   H     H_    0.939448 0.781912 0.462440 0.132496
H15   H     H_    0.440312 0.713939 0.948388 0.142812
H16   H     H_    0.439461 0.282097 0.462965 0.132032
H17   H     H_    0.959387 0.220461 0.169067 -0.023667
H18   H     H_    0.969386 0.792718 0.679931 -0.001613
H19   H     H_    0.459068 0.720714 0.166739 -0.021980
H20   H     H_    0.469661 0.293042 0.680373 -0.001455
C9    C     C_3   0.936190 0.113895 0.075006 -0.925772
C10   C     C_3   0.944285 0.890368 0.547740 -0.952343
C11   C     C_3   0.436301 0.613878 0.074284 -0.926186
C12   C     C_3   0.444630 0.390630 0.547880 -0.951026
H21   H     H_    0.371846 0.616872 0.072571 0.204268
H22   H     H_    0.381771 0.391439 0.560590 0.209962
H23   H     H_    0.871707 0.116900 0.072989 0.204286
H24   H     H_    0.881468 0.891056 0.560733 0.210091
H25   H     H_    0.947513 0.080749 0.973080 0.292208
H26   H     H_    0.950361 0.913357 0.429474 0.292795
H27   H     H_    0.447522 0.580514 0.972629 0.292728
H28   H     H_    0.450872 0.413564 0.429665 0.293044
C13   C     C_3   0.229864 0.459016 0.283532 0.375221
C14   C     C_3   0.227759 0.542613 0.779390 0.378670
C15   C     C_3   0.729988 0.959142 0.284237 0.375582
C16   C     C_3   0.727796 0.042584 0.779452 0.378561
H29   H     H_    0.241341 0.462662 0.417336 0.106907
H30   H     H_    0.234295 0.539713 0.912564 0.111342
H31   H     H_    0.741972 0.962913 0.418027 0.106884
H32   H     H_    0.734275 0.039654 0.912610 0.111644
H33   H     H_    0.167844 0.441705 0.237203 0.119825
H34   H     H_    0.167060 0.560233 0.723367 0.123930
H35   H     H_    0.667846 0.941954 0.238978 0.119423
H36   H     H_    0.667122 0.060238 0.723345 0.123956
C17   C     C_3   0.283602 0.402376 0.234551 -0.917069
C18   C     C_3   0.284683 0.598571 0.737693 -0.912567
C19   C     C_3   0.783315 0.902297 0.234634 -0.917952
C20   C     C_3   0.784781 0.098526 0.737929 -0.913124
H37   H     H_    0.343534 0.424806 0.240432 0.273845
H38   H     H_    0.345692 0.577710 0.765753 0.273252
H39   H     H_    0.843210 0.924564 0.239349 0.273961
H40   H     H_    0.845777 0.077607 0.765935 0.273587
H41   H     H_    0.287174 0.354874 0.315081 0.222672
H42   H     H_    0.281667 0.648582 0.806891 0.225853
H43   H     H_    0.787097 0.854909 0.315505 0.222664
H44   H     H_    0.781799 0.148511 0.807251 0.226047
H45   H     H_    0.260692 0.385244 0.108451 0.277283
H46   H     H_    0.269920 0.610642 0.606621 0.274454
H47   H     H_    0.759898 0.885014 0.108909 0.277809
H48   H     H_    0.770020 0.110673 0.606885 0.274190
Ba1   Ba    Ba6+2 0.000000 0.447380 0.844850 1.588734
Ba2   Ba    Ba6+2 1.000000 0.552620 0.344850 1.578814
Ba3   Ba    Ba6+2 0.500000 0.947380 0.844850 1.588266
Ba4   Ba    Ba6+2 0.500000 0.052620 0.344850 1.578733
C21   C     C_3   0.777563 0.545561 0.919604 0.294747
C22   C     C_3   0.769361 0.459197 0.396887 0.340510
C23   C     C_3   0.277868 0.045685 0.920208 0.295684
C24   C     C_3   0.269442 0.959176 0.396838 0.341008
H49   H     H_    0.822407 0.542539 0.841901 0.042285
H50   H     H_    0.802159 0.470137 0.298943 0.050027
H51   H     H_    0.323126 0.042756 0.843436 0.041869
H52   H     H_    0.302442 0.970096 0.299211 0.049488
H53   H     H_    0.803637 0.574981 0.031821 0.125048
H54   H     H_    0.806377 0.424830 0.490073 0.084698
H55   H     H_    0.303542 0.074966 0.032820 0.125541
H56   H     H_    0.306293 0.924765 0.490171 0.084973
C25   C     C_3   0.705359 0.586425 0.825843 -0.031766
C26   C     C_3   0.691628 0.419294 0.323914 -0.039694
C27   C     C_3   0.206089 0.086761 0.825494 -0.033473
C28   C     C_3   0.191743 0.919351 0.323305 -0.041395
H57   H     H_    0.696316 0.572275 0.695899 0.150171
H58   H     H_    0.684799 0.417346 0.190013 0.111303
H59   H     H_    0.197185 0.072441 0.695700 0.150717
H60   H     H_    0.185071 0.917540 0.189427 0.111728
H61   H     H_    0.717636 0.644695 0.836928 0.081749
H62   H     H_    0.694791 0.362782 0.366132 0.107865
H63   H     H_    0.218795 0.144941 0.836495 0.081468
H64   H     H_    0.194803 0.862808 0.365314 0.107742
O45   O     O_3   0.092100 0.536880 0.086720 -0.401030
O46   O     O_3   0.092100 0.463120 0.586720 -0.403583
O47   O     O_3   0.592100 0.036880 0.086720 -0.400773
O48   O     O_3   0.592100 0.963120 0.586720 -0.403610
P13   P     P_3+3 0.898167 0.734784 0.076139 0.452327
P14   P     P_3+3 0.895739 0.266518 0.576123 0.463927
P15   P     P_3+3 0.398162 0.234766 0.076037 0.452055
P16   P     P_3+3 0.395775 0.766516 0.576096 0.463274
C29   C     C_3   0.962418 0.148342 0.512177 0.472248
C30   C     C_3   0.987415 0.843854 0.044442 0.466401
C31   C     C_3   0.463082 0.648653 0.512067 0.474986
C32   C     C_3   0.487498 0.343803 0.044863 0.466743
H65   H     H_    0.936454 0.167862 0.389925 -0.009946
H66   H     H_    0.998228 0.806074 0.949468 0.013078
H67   H     H_    0.438462 0.669163 0.389950 -0.010971
H68   H     H_    0.498471 0.306005 0.950069 0.012933
H69   H     H_    0.379268 0.560837 0.455596 0.241035
H70   H     H_    0.496386 0.443862 0.917357 0.286834
H71   H     H_    0.879848 0.059357 0.461574 0.240477
H72   H     H_    0.996150 0.943903 0.916834 0.286345
H73   H     H_    0.466057 0.587722 0.187746 0.290922
H74   H     H_    0.480478 0.423700 0.644437 0.296994
H75   H     H_    0.965784 0.087496 0.188326 0.290397
H76   H     H_    0.980138 0.923447 0.644239 0.296774
C33   C     C_R   0.138154 0.675100 0.920949 -0.549565
C34   C     C_R   0.140464 0.325801 0.421866 -0.547442
C35   C     C_R   0.638151 0.175097 0.920970 -0.549543
C36   C     C_R   0.640309 0.825721 0.421964 -0.547091
C37   C     C_R   0.855307 0.326253 0.265428 -0.527370
C38   C     C_R   0.862712 0.678855 0.760610 -0.520442
C39   C     C_R   0.355337 0.826228 0.265386 -0.527322
C40   C     C_R   0.362964 0.179005 0.760342 -0.520084
C41   C     C_R   0.786089 0.216432 0.299848 -0.161903
C42   C     C_R   0.791456 0.786964 0.797991 -0.179649
C43   C     C_R   0.286224 0.716344 0.299728 -0.162151
C44   C     C_R   0.291615 0.287054 0.797844 -0.179800
C45   C     C_R   0.840316 0.270224 0.363550 0.192499
C46   C     C_R   0.847963 0.734894 0.859410 0.198575
C47   C     C_R   0.340394 0.770168 0.363478 0.193866
C48   C     C_R   0.348169 0.235011 0.859198 0.197885
C49   C     C_R   0.810641 0.335550 0.109161 0.242990
C50   C     C_R   0.815120 0.667209 0.607333 0.241789
C51   C     C_R   0.310654 0.835538 0.109132 0.242585
C52   C     C_R   0.315268 0.167293 0.607194 0.241576
C53   C     C_R   0.749328 0.283876 0.046148 -0.227205
C54   C     C_R   0.753763 0.718940 0.545419 -0.217989
C55   C     C_R   0.249366 0.783853 0.046087 -0.227106
C56   C     C_R   0.253902 0.219020 0.545327 -0.217453
C57   C     C_R   0.239832 0.721379 0.141703 -0.076612
C58   C     C_R   0.244350 0.281353 0.640701 -0.066349
C59   C     C_R   0.739761 0.221423 0.141781 -0.076828
C60   C     C_R   0.744204 0.781268 0.640814 -0.066766
C61   C     C_R   0.182363 0.667114 0.078077 0.286508
C62   C     C_R   0.184789 0.333990 0.578577 0.289456
C63   C     C_R   0.682334 0.167129 0.078117 0.286486
C64   C     C_R   0.684689 0.833938 0.578637 0.288979
C65   C     C_R   0.148913 0.733827 0.825560 0.106927
C66   C     C_R   0.152325 0.268179 0.325846 0.103203
C67   C     C_R   0.648893 0.233835 0.825612 0.106934
C68   C     C_R   0.652179 0.768114 0.325902 0.103871
C69   C     C_R   0.198164 0.790534 0.891532 0.264172
C70   C     C_R   0.201716 0.211804 0.392429 0.274952
C71   C     C_R   0.698129 0.290550 0.891606 0.264420
C72   C     C_R   0.701635 0.711777 0.392407 0.274222
H77   H     H_    0.281555 0.670681 0.375336 0.164576
H78   H     H_    0.284198 0.330993 0.875841 0.170620
H79   H     H_    0.781405 0.170778 0.375482 0.164773
H80   H     H_    0.784091 0.830936 0.875957 0.170878
H81   H     H_    0.096203 0.633939 0.869826 0.178874
H82   H     H_    0.096813 0.365587 0.372142 0.177719
H83   H     H_    0.596230 0.133919 0.869814 0.178838
H84   H     H_    0.596644 0.865497 0.372261 0.177905
H85   H     H_    0.900463 0.365116 0.314928 0.166234
H86   H     H_    0.908346 0.640599 0.809295 0.167228
H87   H     H_    0.400470 0.865108 0.314909 0.166191
H88   H     H_    0.408620 0.140765 0.808992 0.167287
N1    N     N_R   0.631010 0.572527 0.879424 0.328869
O49   O     O_R   0.625369 0.529192 0.997755 -0.246608
O50   O     O_R   0.568654 0.607303 0.809655 -0.374926
N2    N     N_R   0.621472 0.453194 0.364236 0.323257
O51   O     O_R   0.615095 0.462535 0.514091 -0.275596
O52   O     O_R   0.565152 0.476077 0.249558 -0.373317
N3    N     N_R   0.131455 0.073633 0.878312 0.327853
O53   O     O_R   0.124715 0.029447 0.994418 -0.247014
O54   O     O_R   0.069940 0.109801 0.809662 -0.372731
N4    N     N_R   0.121536 0.953245 0.363343 0.323057
O55   O     O_R   0.114879 0.962294 0.513123 -0.275160
O56   O     O_R   0.065499 0.976465 0.248507 -0.372165
N5    N     N_R   0.684880 0.357434 0.809919 0.273748
O57   O     O_R   0.627652 0.397098 0.839509 -0.386184
O58   O     O_R   0.706855 0.365117 0.672063 -0.321594
N6    N     N_R   0.684629 0.643825 0.318530 0.268233
O59   O     O_R   0.702991 0.632472 0.178659 -0.320538
O60   O     O_R   0.627297 0.606897 0.358186 -0.369810
N7    N     N_R   0.184921 0.857419 0.809809 0.273806
O61   O     O_R   0.127685 0.897077 0.839381 -0.385669
O62   O     O_R   0.206865 0.865086 0.671908 -0.321323
N8    N     N_R   0.184378 0.143744 0.319257 0.268057
O63   O     O_R   0.202530 0.131914 0.179386 -0.319769
O64   O     O_R   0.127138 0.107032 0.359894 -0.370411

loop_
_geom_bond_atom_site_label_1
_geom_bond_atom_site_label_2
_geom_bond_distance
_ccdc_geom_bond_type
C72   N6    1.416725 S    
P6    C61   1.884540 S    
C15   H31   1.105493 S    
C12   H28   1.106247 S    
P1    O17   1.739011 S    
P5    C62   1.882253 S    
C14   C18   1.516886 S    
C4    H70   1.106648 S    
C26   H58   1.109743 S    
P3    O19   1.739651 S    
O3    Ba3   2.875169 S    
C2    H10   1.106909 S    
P8    O28   1.538374 D    
P4    O4    1.536418 D    
C54   C72   1.421472 A    
C18   H42   1.107891 S    
C9    H23   1.109766 S    
C54   C60   1.443157 A    
C25   H61   1.107056 S    
O8    Ba3   2.857759 S    
C22   H50   1.106353 S    
C27   H59   1.105275 S    
O26   Ba2   2.878561 S    
C1    H7    1.105539 S    
P7    C64   1.882335 S    
C29   H65   1.098498 S    
P1    O1    1.539065 D    
O15   P16   1.542166 D    
O38   C13   1.400576 S    
P7    O27   1.535729 D    
C3    H5    1.105549 S    
P1    Ba1   3.426907 S    
O37   C14   1.400957 S    
C20   H48   1.104049 S    
P3    O3    1.539065 D    
O42   C6    1.404036 S    
O29   Ba1   2.823083 S    
P4    O20   1.746365 S    
P3    Ba3   3.426907 S    
C21   C25   1.538226 S    
P7    O48   1.605952 S    
O31   Ba3   2.823083 S    
N4    O56   1.297417 A    
C35   C67   1.389704 A    
C16   H32   1.104680 S    
P9    O29   1.726336 S    
N6    O59   1.296248 A    
C34   C66   1.386503 A    
O22   P13   1.745557 S    
C19   H43   1.108295 S    
N5    O57   1.299268 A    
C33   C65   1.389767 A    
C36   C68   1.386547 A    
P13   C46   1.855806 S    
N2    O51   1.299451 A    
P12   O32   1.722737 S    
Ba4   O47   2.950402 S    
O23   C31   1.406770 S    
C30   H66   1.110637 S    
C9    H25   1.107456 S    
P11   C68   1.851691 S    
O4    Ba4   2.883807 S    
C60   C64   1.443589 A    
P10   C65   1.851653 S    
O21   C29   1.406636 S    
O16   P15   1.543399 D    
C11   H27   1.107316 S    
P9    C66   1.851229 S    
P2    O18   1.746314 S    
P12   C67   1.851556 S    
C39   C51   1.395553 A    
N3    O53   1.298940 A    
C40   C48   1.392846 A    
O41   C5    1.402736 S    
C14   H34   1.109184 S    
C38   C50   1.400264 A    
P4    O8    1.600873 S    
O6    Ba1   2.857759 S    
C3    H11   1.108001 S    
C18   H38   1.103232 S    
C51   C55   1.447851 A    
C53   C71   1.423769 A    
C4    H12   1.106913 S    
C28   H60   1.109728 S    
O9    Ba1   2.827729 S    
C27   H63   1.106666 S    
P5    O25   1.535729 D    
C24   C28   1.546092 S    
P9    O41   1.745383 S    
O18   C22   1.395708 S    
O12   P15   1.754894 S    
N3    O54   1.293551 A    
C8    H20   1.109210 S    
P2    O2    1.536418 D    
P11   O43   1.745535 S    
C6    H18   1.109281 S    
C5    H17   1.109360 S    
Ba1   O45   2.855221 S    
C42   H80   1.075294 S    
C12   H74   1.105004 S    
C35   C63   1.395823 A    
N7    O62   1.297370 A    
C10   H26   1.106248 S    
C11   H73   1.103142 S    
C1    H71   1.110384 S    
H3    C31   1.109131 S    
C16   H36   1.109185 S    
C16   C20   1.516869 S    
P9    O33   1.547011 D    
P4    Ba4   3.432115 S    
O10   P13   1.754964 S    
C27   N3    1.461654 S    
P10   O30   1.722637 S    
P1    O5    1.596970 S    
C68   C72   1.399726 A    
O32   Ba4   2.827058 S    
C2    H72   1.106553 S    
P11   O35   1.546880 D    
O2    Ba2   2.883807 S    
P12   O36   1.543402 D    
P14   C45   1.853137 S    
C39   H87   1.082437 S    
C52   C56   1.451909 A    
C37   C45   1.385163 A    
C23   H55   1.106790 S    
C25   N1    1.462524 S    
C38   H86   1.082076 S    
C37   H85   1.082438 S    
O23   P16   1.747160 S    
C40   C52   1.400312 A    
C36   H84   1.081617 S    
C19   H47   1.102696 S    
O22   C30   1.406470 S    
O24   P15   1.745434 S    
P3    C51   1.876202 S    
O19   C23   1.393724 S    
C35   H83   1.081563 S    
P2    C50   1.896460 S    
C69   N7    1.420286 S    
C42   C46   1.401633 A    
C1    C29   1.520342 S    
C4    C32   1.524485 S    
C70   N8    1.416842 S    
N1    O49   1.299120 A    
P12   O44   1.744158 S    
C14   H30   1.104696 S    
P8    Ba4   3.429139 S    
C13   C17   1.519150 S    
O20   C24   1.395755 S    
C56   C70   1.421271 A    
C33   C61   1.395884 A    
C41   C59   1.411075 A    
C32   H68   1.110587 S    
C31   H67   1.098886 S    
C24   H52   1.106336 S    
C15   C19   1.519185 S    
P6    O26   1.538374 D    
C10   H76   1.104840 S    
N2    O52   1.297465 A    
C42   C60   1.411895 A    
O44   C8    1.403968 S    
P7    O39   1.749384 S    
C6    C10   1.510070 S    
P7    Ba3   3.434464 S    
O13   P14   1.542062 D    
O12   Ba4   2.823758 S    
O17   C21   1.393651 S    
O25   Ba1   2.887291 S    
O39   C16   1.400957 S    
C21   H49   1.109054 S    
Ba2   O46   2.857730 S    
C7    C11   1.517448 S    
C3    C31   1.520707 S    
P8    O47   1.602002 S    
C12   H22   1.109816 S    
O30   Ba2   2.827058 S    
N8    O64   1.298465 A    
C44   H78   1.075223 S    
C11   H21   1.109742 S    
P5    O37   1.749411 S    
Ba1   Ba2   4.637472 S    
P10   O34   1.543477 D    
C2    H8    1.108924 S    
C17   H41   1.108506 S    
N5    O58   1.297293 A    
P11   O31   1.726114 S    
C40   H88   1.082066 S    
Ba3   O47   2.855221 S    
Ba3   Ba4   4.637472 S    
P2    O6    1.600873 S    
P2    Ba2   3.432115 S    
O9    P14   1.760770 S    
C20   H40   1.103403 S    
C23   C27   1.537850 S    
Ba1   O46   2.947764 S    
O24   C32   1.406463 S    
C20   H44   1.107959 S    
C5    C9    1.517499 S    
C58   C62   1.443570 A    
P4    C52   1.896531 S    
P6    O45   1.602002 S    
C8    C12   1.510185 S    
N4    O55   1.299440 A    
C57   C61   1.440200 A    
C41   H79   1.074120 S    
C55   C69   1.423897 A    
C43   C47   1.400591 A    
P15   C48   1.855647 S    
P6    Ba2   3.429139 S    
C34   H82   1.081638 S    
C8    H16   1.111187 S    
P16   C47   1.853194 S    
C17   H45   1.103195 S    
C2    C30   1.524496 S    
C39   C47   1.385191 A    
Ba3   O48   2.947764 S    
O27   Ba3   2.887291 S    
C71   N5    1.420149 S    
C19   H39   1.104269 S    
N7    O61   1.299260 A    
P6    O38   1.748752 S    
C41   C45   1.400649 A    
P5    O46   1.605952 S    
C17   H37   1.104558 S    
C24   H56   1.110986 S    
H2    C30   1.106847 S    
C15   H35   1.108845 S    
C43   C57   1.411255 A    
C23   H51   1.109121 S    
O5    Ba2   2.855254 S    
O10   Ba2   2.823758 S    
P8    O40   1.748867 S    
C44   C48   1.401663 A    
C1    H9    1.107691 S    
C26   H62   1.109686 S    
C4    H6    1.108899 S    
C67   C71   1.397979 A    
P10   O42   1.744164 S    
O40   C15   1.400554 S    
C13   H33   1.109028 S    
O11   P16   1.760380 S    
N1    O50   1.293564 A    
O14   P13   1.543325 D    
C10   H24   1.109741 S    
C18   H46   1.103974 S    
O43   C7    1.402971 S    
C7    H19   1.109269 S    
C50   C54   1.451935 A    
C59   C63   1.440210 A    
C49   C53   1.447928 A    
H4    C32   1.106683 S    
P8    C63   1.884494 S    
C44   C58   1.411756 A    
C25   H57   1.105577 S    
C9    H75   1.103412 S    
C3    H69   1.110560 S    
N6    O60   1.298475 A    
C53   C59   1.441554 A    
O7    Ba4   2.855254 S    
P5    Ba1   3.434464 S    
O28   Ba4   2.878561 S    
C26   N2    1.465928 S    
C22   C26   1.546171 S    
C65   C69   1.397968 A    
N8    O63   1.296234 A    
P3    O7    1.596970 S    
Ba4   O48   2.857730 S    
C43   H77   1.074088 S    
Ba2   O45   2.950402 S    
C21   H53   1.107086 S    
C56   C58   1.443090 A    
C6    H14   1.111189 S    
C34   C62   1.394052 A    
O1    Ba1   2.875169 S    
O21   P14   1.747343 S    
C55   C57   1.441656 A    
C5    H13   1.109795 S    
P1    C49   1.876216 S    
C28   N4    1.465700 S    
O11   Ba3   2.827729 S    
C37   C49   1.395506 A    
C38   C46   1.392772 A    
H1    C29   1.108968 S    
C33   H81   1.081563 S    
C66   C70   1.399853 A    
C36   C64   1.394176 A    
C7    H15   1.109550 S    
C13   H29   1.105639 S    
C28   H64   1.109713 S    
C22   H54   1.111018 S    
