data_mof_unit_5450.cif
_audit_creation_date              2012-12-11T14:15:40-0500
_audit_creation_method            fapswitch 2.2
_symmetry_space_group_name_H-M    P1
_symmetry_Int_Tables_number       1
_space_group_crystal_system       triclinic
_cell_length_a                    11.141405
_cell_length_b                    12.743961
_cell_length_c                    23.551668
_cell_angle_alpha                 90.287532
_cell_angle_beta                  96.745965
_cell_angle_gamma                 68.765459
_cell_volume                      3092.83543147

loop_
_atom_site_label
_atom_site_type_symbol
_atom_type_description
_atom_site_fract_x
_atom_site_fract_y
_atom_site_fract_z
_atom_type_partial_charge
C1    C     C_R   0.149259 0.616820 0.428848 0.544460
C2    C     C_R   0.630904 0.572643 0.313404 0.101702
C3    C     C_R   0.710880 0.727760 0.318661 -0.169953
C4    C     C_R   0.698129 0.736459 0.259258 0.003706
C5    C     C_R   0.665195 0.654839 0.227283 0.058717
C6    C     C_R   0.665062 0.657080 0.168647 -0.096892
C7    C     C_R   0.698059 0.834748 0.171232 -0.131996
C8    C     C_R   0.719560 0.823923 0.231019 -0.133558
C9    C     C_1   0.235938 0.161814 0.122995 0.002411
C10   C     C_2   0.181604 0.232478 0.226427 -0.119634
C11   C     C_2   0.155074 0.165771 0.263041 -0.120397
C12   C     C_R   0.747323 0.605039 0.404501 0.565343
C13   C     C_1   0.132164 0.199834 0.320666 -0.045769
C14   C     C_1   0.210753 0.196574 0.169661 -0.043286
C15   C     C_1   0.115824 0.232886 0.368364 -0.001268
C16   C     C_1   0.167608 0.749602 0.123660 0.001940
C17   C     C_2   0.143712 0.686658 0.227715 -0.125715
C18   C     C_2   0.233723 0.681739 0.271894 -0.139456
C19   C     C_1   0.216127 0.655599 0.329316 -0.052491
C20   C     C_1   0.155639 0.719842 0.170642 -0.043696
C21   C     C_1   0.193232 0.636096 0.376200 0.003429
C22   C     C_1   0.629577 0.757812 0.865398 -0.003680
C23   C     C_R   0.101007 0.282634 0.423297 0.543914
C24   C     C_2   0.701112 0.716949 0.761361 0.138267
C25   C     C_2   0.618528 0.695961 0.720068 0.137096
C26   C     C_1   0.655915 0.665486 0.663562 -0.006075
C27   C     C_1   0.665698 0.740216 0.818725 -0.005129
C28   C     C_1   0.692890 0.637626 0.617722 -0.004959
C29   C     C_R   0.201186 0.183885 0.855190 0.048341
C30   C     C_R   0.107011 0.234846 0.642591 0.017747
C31   C     C_R   0.013292 0.170491 0.716547 -0.129149
C32   C     C_R   0.015601 0.192190 0.658676 -0.132193
C33   C     C_R   0.194064 0.256603 0.684014 -0.112987
C34   C     C_R   0.151322 0.616255 0.590303 0.548806
C35   C     C_R   0.188884 0.239955 0.741002 0.026240
C36   C     C_R   0.099850 0.194681 0.758020 0.039444
C37   C     C_R   0.104667 0.168948 0.815745 -0.158514
C38   C     C_R   0.281731 0.239258 0.838069 0.094990
C39   C     C_R   0.274503 0.266521 0.780843 -0.133131
C40   C     C_R   0.135655 0.764906 0.846633 0.054764
C41   C     C_R   0.199504 0.634946 0.647879 0.008529
C42   C     C_R   0.287053 0.551958 0.742761 -0.144498
C43   C     C_R   0.280529 0.543101 0.683825 -0.148455
C44   C     C_R   0.137936 0.738964 0.670714 -0.117308
C45   C     C_R   0.750291 0.601757 0.566109 0.546835
C46   C     C_R   0.138601 0.747009 0.729244 0.040521
C47   C     C_R   0.211504 0.652268 0.766158 0.069541
C48   C     C_R   0.206581 0.661030 0.825343 0.092441
C49   C     C_R   0.057902 0.855676 0.808927 -0.167891
C50   C     C_R   0.060348 0.846985 0.750738 -0.154308
C51   C     C_R   0.265884 0.109765 0.069478 0.546988
C52   C     C_R   0.600305 0.774535 0.081275 0.538983
C53   C     C_R   0.189689 0.787861 0.069808 0.546852
C54   C     C_R   0.241035 0.116638 0.908362 0.570371
C55   C     C_R   0.574007 0.776770 0.918276 0.544165
C56   C     C_R   0.099681 0.279284 0.585329 0.541573
C57   C     C_R   0.165206 0.789563 0.905860 0.574896
C58   C     C_R   0.666397 0.752504 0.139915 -0.007458
C59   C     C_R   0.686436 0.641007 0.345851 0.025767
C60   C     C_R   0.625606 0.576271 0.253745 0.087653
Cr1   Cr    Cr6+3 0.189770 0.415650 0.511620 1.027508
Cr2   Cr    Cr6+3 0.930400 0.667320 0.496770 1.024742
Cr3   Cr    Cr6+3 0.879870 0.417010 0.491650 1.038495
Cr4   Cr    Cr6+3 0.149500 0.973980 0.985330 1.022536
Cr5   Cr    Cr6+3 0.457000 0.976510 0.994660 1.043515
Cr6   Cr    Cr6+3 0.411170 0.724270 0.995270 1.051615
H1    H     H_    0.647219 0.590290 0.144737 0.183526
H2    H     H_    0.058084 0.668755 0.234471 0.141975
H3    H     H_    0.042922 0.126823 0.828851 0.117316
H4    H     H_    0.943872 0.136084 0.728839 0.098950
H5    H     H_    0.263007 0.292275 0.672270 0.126503
H6    H     H_    0.700231 0.908992 0.149895 0.135651
H7    H     H_    0.348114 0.479242 0.769416 0.098537
H8    H     H_    0.331307 0.462216 0.666685 0.127017
H9    H     H_    0.077718 0.810909 0.642856 0.127843
H10   H     H_    0.153283 0.084237 0.250312 0.138322
O1    O     O_R   0.196340 0.303200 0.448500 -0.505186
O2    O     O_R   0.811960 0.658090 0.547150 -0.489503
O3    O     O_R   0.757930 0.506140 0.547110 -0.508950
O4    O     O_R   0.988670 0.321620 0.556040 -0.498987
O5    O     O_3   0.000020 0.499990 0.500010 -0.252022
O6    O     O_R   0.113660 0.883270 0.047820 -0.508037
O7    O     O_R   0.186930 0.068530 0.043990 -0.496242
O8    O     O_R   0.377770 0.089040 0.054220 -0.504463
O9    O     O_R   0.562800 0.872960 0.056970 -0.498933
O10   O     O_R   0.555390 0.700940 0.062700 -0.521608
O11   O     O_R   0.295020 0.731920 0.049950 -0.488591
O12   O     O_R   0.199310 0.519670 0.454880 -0.491981
O13   O     O_R   0.094290 0.884230 0.921550 -0.537750
O14   O     O_R   0.168980 0.069410 0.926940 -0.519143
O15   O     O_R   0.358400 0.089990 0.927950 -0.472230
O16   O     O_R   0.544850 0.873850 0.939920 -0.497594
O17   O     O_R   0.536020 0.701900 0.936430 -0.502559
O18   O     O_R   0.277070 0.732810 0.932890 -0.460415
O19   O     O_3   0.339220 0.891590 0.991750 -0.258819
O20   O     O_R   0.045660 0.691380 0.441680 -0.512497
O21   O     O_R   0.811930 0.659460 0.430950 -0.516950
O22   O     O_R   0.757900 0.507620 0.421760 -0.472477
O23   O     O_R   0.988630 0.322990 0.439840 -0.497495
O24   O     O_R   0.196380 0.301720 0.573850 -0.525088
O25   O     O_R   0.199350 0.518300 0.571080 -0.505511
O26   O     O_R   0.045700 0.689900 0.567030 -0.514748
N1    N     N_3   0.494522 0.698432 0.732358 -0.630767
H11   H     H_    0.423168 0.755479 0.703098 0.233844
H12   H     H_    0.491621 0.618488 0.724919 0.234654
N2    N     N_3   0.825423 0.714362 0.749333 -0.628214
H13   H     H_    0.896750 0.654960 0.777622 0.235003
H14   H     H_    0.830168 0.793247 0.758308 0.232404
N3    N     N_3   0.382108 0.254803 0.877435 -0.592598
H15   H     H_    0.471682 0.205803 0.864630 0.233432
H16   H     H_    0.374623 0.338401 0.874687 0.216219
H17   H     H_    0.342641 0.300994 0.767232 0.090593
H18   H     H_    0.945460 0.177709 0.626823 0.119778
N4    N     N_3   0.268849 0.565635 0.864233 -0.621950
H19   H     H_    0.368282 0.533550 0.860898 0.233986
H20   H     H_    0.227817 0.505689 0.852508 0.222176
H21   H     H_    0.001181 0.936615 0.824336 0.135815
H22   H     H_    0.002190 0.918975 0.722601 0.109402
N5    N     N_3   0.579159 0.501535 0.219782 -0.656074
H23   H     H_    0.637953 0.418380 0.232110 0.234380
H24   H     H_    0.484081 0.515089 0.227101 0.237150
H25   H     H_    0.744462 0.887420 0.255078 0.117288
N6    N     N_3   0.585754 0.496518 0.341357 -0.597826
H26   H     H_    0.487916 0.515212 0.326547 0.226472
H27   H     H_    0.638684 0.414082 0.331076 0.236966
H28   H     H_    0.747677 0.783955 0.343520 0.136001
H29   H     H_    0.184210 0.313671 0.239351 0.137038
H30   H     H_    0.318651 0.700936 0.265421 0.141968

loop_
_geom_bond_atom_site_label_1
_geom_bond_atom_site_label_2
_ccdc_geom_bond_type
Cr5   O16   S    
C23   O23   A    
C1    C21   S    
C37   H3    S    
C6    C58   A    
C35   C39   A    
C35   C36   A    
C9    C51   S    
C24   C27   S    
Cr4   O14   S    
C4    C8    A    
N4    H19   S    
C3    H28   S    
N6    H26   S    
Cr3   O3    S    
C2    N6    S    
C34   O26   A    
C57   O13   A    
Cr3   O5    S    
C36   C37   A    
C19   C21   T    
C54   O14   A    
Cr3   O22   S    
Cr2   O20   S    
C11   H10   S    
N3    H16   S    
C5    C6    A    
C2    C60   A    
N6    H27   S    
N2    H13   S    
C40   C49   A    
C17   C20   S    
C60   N5    S    
Cr5   O15   S    
C18   C19   S    
C16   C53   S    
Cr3   O23   S    
C18   H30   S    
C12   C59   S    
C31   H4    S    
C49   H21   S    
C31   C32   A    
Cr1   O1    S    
C17   H2    S    
C29   C38   A    
C45   O2    A    
C32   H18   S    
C7    C58   A    
C12   O22   A    
C5    C60   A    
C55   O17   A    
Cr6   O18   S    
C43   H8    S    
C15   C23   S    
C41   C43   A    
C34   C41   S    
Cr4   O13   S    
C53   O11   A    
C44   C46   A    
Cr3   O4    S    
N5    H24   S    
C28   C45   S    
C34   O25   A    
C7    C8    A    
C24   C25   D    
C45   O3    A    
C10   C14   S    
C7    H6    S    
C2    C59   A    
C25   N1    S    
Cr5   O8    S    
C25   C26   S    
C30   C56   S    
C53   O6    A    
C44   H9    S    
Cr1   O25   S    
C9    C14   T    
Cr4   O7    S    
C55   O16   A    
Cr1   O12   S    
Cr2   O21   S    
C47   C48   A    
C16   C20   T    
C17   C18   D    
N1    H12   S    
C23   O1    A    
C38   N3    S    
Cr4   O6    S    
C12   O21   A    
C52   C58   S    
Cr6   O17   S    
C39   H17   S    
Cr2   O5    S    
C52   O9    A    
C22   C27   T    
C13   C15   T    
C41   C44   A    
Cr1   O24   S    
C24   N2    S    
C42   C43   A    
C56   O24   A    
C10   H29   S    
C51   O7    A    
Cr6   O11   S    
C48   N4    S    
C40   C48   A    
C46   C47   A    
C6    H1    S    
C42   H7    S    
C40   C57   S    
C30   C33   A    
C50   H22   S    
Cr2   O2    S    
Cr4   O19   S    
C4    C5    A    
Cr6   O10   S    
N4    H20   S    
N5    H23   S    
Cr5   O9    S    
C22   C55   S    
C46   C50   A    
C26   C28   T    
C56   O4    A    
C57   O18   A    
C52   O10   A    
C54   O15   A    
Cr1   O5    S    
N3    H15   S    
C30   C32   A    
C11   C13   S    
C8    H25   S    
C38   C39   A    
N2    H14   S    
C1    O12   A    
C1    O20   A    
C33   C35   A    
C42   C47   A    
C10   C11   D    
C33   H5    S    
Cr5   O19   S    
C49   C50   A    
C29   C54   S    
C29   C37   A    
N1    H11   S    
C31   C36   A    
C51   O8    A    
C3    C4    A    
Cr6   O19   S    
Cr2   O26   S    
C3    C59   A    
