data_mof_unit_40804.cif
_audit_creation_date              2012-10-26T21:21:07-0400
_audit_creation_method            fapswitch 2.2
_symmetry_space_group_name_H-M    P1
_symmetry_Int_Tables_number       1
_space_group_crystal_system       triclinic
_cell_length_a                    10.769582
_cell_length_b                    10.927561
_cell_length_c                    9.726255
_cell_angle_alpha                 90.243922
_cell_angle_beta                  90.626304
_cell_angle_gamma                 90.473319
_cell_volume                      1144.51863217

loop_
_atom_site_label
_atom_site_type_symbol
_atom_type_description
_atom_site_fract_x
_atom_site_fract_y
_atom_site_fract_z
_atom_type_partial_charge
C1    C     C_R   0.501508 0.265486 0.499877 0.527697
C2    C     C_2   0.508212 0.133581 0.502072 -0.123026
C3    C     C_2   0.437994 0.421669 0.920426 0.001934
C4    C     C_R   0.262807 0.497148 0.499425 0.532069
C5    C     C_2   0.422634 0.434638 0.074062 0.088881
C6    C     C_R   0.498512 0.734563 0.500271 0.577319
C7    C     C_R   0.737354 0.499316 0.500501 0.568726
C8    C     C_R   0.128030 0.288826 0.611722 -0.103963
C9    C     C_R   0.062214 0.190438 0.666614 -0.115364
C10   C     C_R   0.933056 0.191410 0.667071 -0.104359
C11   C     C_R   0.868962 0.290909 0.612967 -0.095764
C12   C     C_R   0.064931 0.391049 0.557252 0.020036
C13   C     C_R   0.933771 0.392470 0.558154 0.004529
C14   C     C_3   0.310455 0.370395 0.131759 -0.313202
C15   C     C_R   0.129155 0.490680 0.498371 -0.021367
C16   C     C_R   0.065702 0.588069 0.439219 -0.127784
C17   C     C_R   0.937507 0.591108 0.441072 0.060547
C18   C     C_R   0.871259 0.494277 0.501166 0.012652
C19   C     C_2   0.502854 0.932628 0.387392 -0.136554
C20   C     C_2   0.492295 0.866612 0.502596 -0.102246
C21   C     C_2   0.496997 0.066564 0.386965 -0.151649
Cu1   Cu    Cu3+1 0.500020 0.500020 0.638630 0.946068
Cu2   Cu    Cu3+1 0.499980 0.499980 0.361370 0.956272
H1    H     H_    0.116540 0.663913 0.394536 0.146159
H2    H     H_    0.514203 0.887583 0.288592 0.164350
H3    H     H_    0.475976 0.907928 0.601963 0.098059
H4    H     H_    0.484977 0.110685 0.287872 0.147608
H5    H     H_    0.264711 0.310430 0.053529 0.071498
H6    H     H_    0.335116 0.310746 0.218941 0.170441
H7    H     H_    0.240245 0.438807 0.161818 0.161656
H8    H     H_    0.525308 0.093111 0.601731 0.102758
H9    H     H_    0.388191 0.348482 0.867282 0.140020
H10   H     H_    0.537005 0.573774 0.895773 0.211926
H11   H     H_    0.576291 0.535081 0.107691 0.212535
H12   H     H_    0.228207 0.283054 0.610786 0.124912
H13   H     H_    0.111610 0.112668 0.707843 0.117658
H14   H     H_    0.882213 0.114366 0.708638 0.126560
H15   H     H_    0.768676 0.286450 0.613271 0.133992
I1    I     I_    0.850609 0.749006 0.357815 -0.385931
N1    N     N_2   0.498640 0.498660 0.846910 -0.354434
N2    N     N_2   0.498610 0.498630 0.153040 -0.331424
O1    O     O_R   0.500020 0.321960 0.617040 -0.516120
O2    O     O_R   0.499980 0.321920 0.382900 -0.504024
O3    O     O_R   0.319670 0.500020 0.617100 -0.492281
O4    O     O_R   0.319630 0.499980 0.382950 -0.512375
O5    O     O_R   0.500020 0.678080 0.617100 -0.492178
O6    O     O_R   0.499980 0.678040 0.382960 -0.478359
O7    O     O_R   0.680370 0.500020 0.617050 -0.492701
O8    O     O_R   0.680330 0.499980 0.382900 -0.471756

loop_
_geom_bond_atom_site_label_1
_geom_bond_atom_site_label_2
_ccdc_geom_bond_type
C11   H15   S    
Cu1   O7    S    
C14   H5    S    
Cu2   O4    S    
C9    H13   S    
C6    C20   S    
C9    C10   A    
C19   C20   D    
Cu2   N2    S    
C12   C15   A    
C8    C12   A    
C7    C18   S    
Cu1   N1    S    
C7    O7    A    
C4    C15   S    
C17   C18   A    
C21   H4    S    
C16   H1    S    
C11   C13   A    
C6    O5    A    
C5    C14   S    
Cu1   O1    S    
H11   N2    S    
C20   H3    S    
C13   C18   A    
C14   H7    S    
C10   H14   S    
C19   C21   S    
C3    N1    D    
C4    O4    A    
C2    H8    S    
C17   I1    S    
C3    H9    S    
C19   H2    S    
Cu2   O8    S    
H10   N1    S    
Cu2   O6    S    
C10   C11   A    
C14   H6    S    
C15   C16   A    
C1    O1    A    
Cu2   O2    S    
C12   C13   A    
C7    O8    A    
C1    C2    S    
C6    O6    A    
C5    N2    D    
Cu1   Cu2   S    
C8    C9    A    
C4    O3    A    
Cu1   O5    S    
C2    C21   D    
C1    O2    A    
Cu1   O3    S    
C16   C17   A    
C3    C5    S    
C8    H12   S    
