data_mof_unit_20562.cif
_audit_creation_date              2012-12-11T14:03:49-0500
_audit_creation_method            fapswitch 2.2
_symmetry_space_group_name_H-M    P1
_symmetry_Int_Tables_number       1
_space_group_crystal_system       triclinic
_cell_length_a                    19.033111
_cell_length_b                    11.006041
_cell_length_c                    18.806891
_cell_angle_alpha                 89.700123
_cell_angle_beta                  89.865294
_cell_angle_gamma                 89.936535
_cell_volume                      3939.58527055

loop_
_atom_site_label
_atom_site_type_symbol
_atom_type_description
_atom_site_fract_x
_atom_site_fract_y
_atom_site_fract_z
_atom_type_partial_charge
C1    C     C_R   0.238818 0.469630 0.645825 0.575337
C2    C     C_R   0.760771 0.468225 0.353534 0.563507
C3    C     C_R   0.738820 0.969624 0.645828 0.573106
C4    C     C_R   0.260770 0.968222 0.353532 0.563396
C5    C     C_2   0.293091 0.856735 0.536800 0.160741
C6    C     C_2   0.702859 0.863566 0.461483 0.163193
C7    C     C_2   0.793096 0.356742 0.536803 0.160885
C8    C     C_2   0.202849 0.363598 0.461475 0.163611
C9    C     C_R   0.006434 0.658093 0.424629 -0.034490
C10   C     C_R   0.995218 0.667859 0.574266 -0.038133
C11   C     C_R   0.506431 0.158093 0.424631 -0.034204
C12   C     C_R   0.495215 0.167858 0.574268 -0.037956
C13   C     C_R   0.033196 0.874603 0.420639 -0.090625
C14   C     C_R   0.005837 0.892969 0.565871 -0.063551
C15   C     C_R   0.533192 0.374604 0.420644 -0.090651
C16   C     C_R   0.505824 0.392967 0.565874 -0.063482
C17   C     C_R   0.039314 0.985745 0.454273 -0.083487
C18   C     C_R   0.024550 0.995683 0.526480 -0.058769
C19   C     C_R   0.539303 0.485747 0.454279 -0.083604
C20   C     C_R   0.524533 0.495684 0.526483 -0.058759
C21   C     C_R   0.004689 0.776875 0.534025 0.004424
C22   C     C_R   0.013841 0.770029 0.459240 0.007512
C23   C     C_R   0.504683 0.276875 0.534027 0.004322
C24   C     C_R   0.513837 0.270029 0.459242 0.007621
C25   C     C_R   0.984448 0.557779 0.537660 -0.000956
C26   C     C_R   0.004379 0.550496 0.466045 0.001429
C27   C     C_R   0.484446 0.057778 0.537662 -0.000981
C28   C     C_R   0.504376 0.050495 0.466046 0.001503
C29   C     C_R   0.961852 0.450914 0.572821 -0.081664
C30   C     C_R   0.018957 0.434777 0.437266 -0.076008
C31   C     C_R   0.461849 0.950914 0.572822 -0.081577
C32   C     C_R   0.518953 0.934776 0.437267 -0.076002
C33   C     C_R   0.973692 0.337733 0.542734 -0.092573
C34   C     C_R   0.002936 0.329731 0.475294 -0.091011
C35   C     C_R   0.473685 0.837733 0.542735 -0.092557
C36   C     C_R   0.502930 0.829731 0.475295 -0.091155
C37   C     C_2   0.238916 0.896070 0.928790 -0.100512
C38   C     C_2   0.761047 0.898037 0.071471 -0.089818
C39   C     C_2   0.739077 0.396825 0.928597 -0.090062
C40   C     C_2   0.244396 0.428356 0.083472 -0.102631
C41   C     C_2   0.247986 0.897691 0.085191 -0.104377
C42   C     C_2   0.751819 0.897707 0.915309 -0.106330
C43   C     C_2   0.748056 0.398388 0.084990 -0.104370
C44   C     C_2   0.244252 0.439268 0.927301 -0.106136
C45   C     C_R   0.227374 0.874203 0.647648 0.631736
C46   C     C_R   0.772250 0.874606 0.351995 0.627936
C47   C     C_R   0.727375 0.374205 0.647648 0.630849
C48   C     C_R   0.272248 0.374610 0.351993 0.626046
C49   C     C_2   0.189011 0.918038 0.048920 -0.159972
C50   C     C_2   0.810914 0.917470 0.951291 -0.158122
C51   C     C_2   0.689176 0.419386 0.048682 -0.161706
C52   C     C_2   0.271277 0.524671 0.970566 -0.152842
C53   C     C_2   0.183568 0.892638 0.973482 -0.154961
C54   C     C_2   0.816281 0.891909 0.026785 -0.148317
C55   C     C_2   0.683686 0.394217 0.973257 -0.152991
C56   C     C_2   0.284002 0.504250 0.045609 -0.159714
C57   C     C_2   0.043132 0.655276 0.932995 -0.106945
C58   C     C_2   0.016432 0.664199 0.086927 -0.111217
C59   C     C_2   0.543220 0.155217 0.933007 -0.105964
C60   C     C_2   0.516549 0.164176 0.086972 -0.108932
C61   C     C_2   0.039563 0.565091 0.052700 -0.149386
C62   C     C_2   0.063543 0.568211 0.978484 -0.160941
C63   C     C_2   0.539722 0.065101 0.052720 -0.154127
C64   C     C_2   0.563911 0.068415 0.978550 -0.165347
C65   C     C_R   0.027349 0.656206 0.646056 0.538946
C66   C     C_R   0.973144 0.654001 0.353426 0.528332
C67   C     C_R   0.527349 0.156206 0.646056 0.539190
C68   C     C_R   0.473143 0.154001 0.353428 0.527898
C69   C     C_R   0.237670 0.470791 0.852816 0.542859
C70   C     C_R   0.760706 0.463744 0.150373 0.552588
C71   C     C_R   0.739252 0.963602 0.849738 0.543805
C72   C     C_R   0.260683 0.963611 0.150414 0.553057
C73   C     C_R   0.225706 0.869481 0.854730 0.541256
C74   C     C_R   0.774107 0.870409 0.145507 0.547518
C75   C     C_R   0.725782 0.369723 0.854632 0.543324
C76   C     C_R   0.271544 0.375620 0.148392 0.552239
C77   C     C_R   0.061700 0.647591 0.858329 0.561450
C78   C     C_R   0.972721 0.652696 0.150420 0.547306
C79   C     C_R   0.561749 0.147579 0.858323 0.563301
C80   C     C_R   0.472747 0.152688 0.150429 0.551561
C81   C     C_2   0.254565 0.926673 0.582127 0.227601
C82   C     C_2   0.743836 0.929716 0.416116 0.230738
C83   C     C_2   0.754567 0.426677 0.582129 0.227641
C84   C     C_2   0.243827 0.429738 0.416105 0.231105
C85   C     C_2   0.248785 0.912999 0.422035 -0.080844
C86   C     C_2   0.749513 0.917669 0.576201 -0.069369
C87   C     C_2   0.748788 0.413008 0.422039 -0.080734
C88   C     C_2   0.249506 0.417691 0.576193 -0.069605
C89   C     C_2   0.303980 0.892585 0.463900 -0.103183
C90   C     C_2   0.693540 0.899495 0.534736 -0.104927
C91   C     C_2   0.803984 0.392590 0.463902 -0.103159
C92   C     C_2   0.193531 0.399543 0.534725 -0.105277
Cr1   Cr    Cr6+3 0.113970 0.508630 0.747920 1.027879
Cr2   Cr    Cr6+3 0.886030 0.508630 0.252080 1.030198
Cr3   Cr    Cr6+3 0.613970 0.008630 0.747920 1.027265
Cr4   Cr    Cr6+3 0.386030 0.008630 0.252080 1.028838
Cr5   Cr    Cr6+3 0.269200 0.666740 0.749850 1.052851
Cr6   Cr    Cr6+3 0.730800 0.666740 0.250150 1.053680
Cr7   Cr    Cr6+3 0.769200 0.166740 0.749850 1.054482
Cr8   Cr    Cr6+3 0.230800 0.166740 0.250150 1.052849
Cr9   Cr    Cr6+3 0.112300 0.820070 0.749800 1.025887
Cr10  Cr    Cr6+3 0.887700 0.820070 0.250200 1.034078
Cr11  Cr    Cr6+3 0.612300 0.320070 0.749800 1.029205
Cr12  Cr    Cr6+3 0.387700 0.320070 0.250200 1.036186
H1    H     H_    0.357621 0.900193 0.444677 0.174409
H2    H     H_    0.640154 0.907016 0.554876 0.172865
H3    H     H_    0.857625 0.400188 0.444676 0.174397
H4    H     H_    0.140145 0.407083 0.554864 0.172716
H5    H     H_    0.130624 0.879376 0.953436 0.148026
H6    H     H_    0.869056 0.875642 0.046774 0.152232
H7    H     H_    0.630684 0.381401 0.953245 0.148339
H8    H     H_    0.330501 0.546126 0.068203 0.154193
H9    H     H_    0.290953 0.845766 0.062300 0.102410
H10   H     H_    0.708721 0.846476 0.938676 0.102761
H11   H     H_    0.790995 0.346475 0.062057 0.110264
H12   H     H_    0.224296 0.352905 0.946726 0.095970
H13   H     H_    0.292468 0.908430 0.947042 0.098082
H14   H     H_    0.707673 0.913330 0.053255 0.087459
H15   H     H_    0.792670 0.408768 0.946836 0.100396
H16   H     H_    0.195779 0.392125 0.062063 0.101270
H17   H     H_    0.035668 0.475912 0.077412 0.153169
H18   H     H_    0.092783 0.490236 0.959064 0.139903
H19   H     H_    0.535740 0.975879 0.077364 0.153774
H20   H     H_    0.593556 0.990815 0.959192 0.134649
H21   H     H_    0.023916 0.754602 0.064904 0.092003
H22   H     H_    0.012420 0.732963 0.950079 0.099895
H23   H     H_    0.524143 0.254586 0.064992 0.097708
H24   H     H_    0.512217 0.232571 0.950064 0.106772
H25   H     H_    0.195434 0.905276 0.442414 0.144917
H26   H     H_    0.802580 0.909464 0.555148 0.151914
H27   H     H_    0.695436 0.405292 0.442420 0.144939
H28   H     H_    0.302572 0.409471 0.555140 0.152016
H29   H     H_    0.055300 0.063589 0.423374 0.168149
H30   H     H_    0.028418 0.082744 0.552346 0.137062
H31   H     H_    0.555283 0.563596 0.423381 0.168051
H32   H     H_    0.528395 0.582745 0.552349 0.137151
H33   H     H_    0.046433 0.870098 0.364690 0.125259
H34   H     H_    0.991276 0.906175 0.620862 0.138443
H35   H     H_    0.546430 0.370103 0.364695 0.125020
H36   H     H_    0.491263 0.406170 0.620863 0.139113
H37   H     H_    0.042914 0.425026 0.385325 0.154330
H38   H     H_    0.938392 0.454460 0.625315 0.143809
H39   H     H_    0.542910 0.925024 0.385327 0.154374
H40   H     H_    0.438391 0.954460 0.625317 0.144057
H41   H     H_    0.961309 0.256420 0.572511 0.167480
H42   H     H_    0.011677 0.242430 0.451603 0.151728
H43   H     H_    0.461298 0.756421 0.572511 0.167662
H44   H     H_    0.511670 0.742430 0.451604 0.151640
H45   H     H_    0.144461 0.963578 0.073355 0.152323
H46   H     H_    0.855603 0.962330 0.926516 0.156983
H47   H     H_    0.644672 0.465035 0.073137 0.153441
H48   H     H_    0.290326 0.610714 0.949428 0.159061
O1    O     O_R   0.043230 0.549300 0.667990 -0.515139
O2    O     O_R   0.956770 0.549300 0.332010 -0.527037
O3    O     O_R   0.543230 0.049300 0.667990 -0.515160
O4    O     O_R   0.456770 0.049300 0.332010 -0.527351
O5    O     O_R   0.262920 0.788600 0.824420 -0.509309
O6    O     O_R   0.737080 0.788600 0.175580 -0.500894
O7    O     O_R   0.762920 0.288600 0.824420 -0.500848
O8    O     O_R   0.237080 0.288600 0.175580 -0.504893
O9    O     O_R   0.167530 0.905110 0.830340 -0.519788
O10   O     O_R   0.832470 0.905110 0.169660 -0.517101
O11   O     O_R   0.667530 0.405110 0.830340 -0.521892
O12   O     O_R   0.332470 0.405110 0.169660 -0.515864
O13   O     O_R   0.054010 0.748440 0.822860 -0.506574
O14   O     O_R   0.945990 0.748440 0.177140 -0.509244
O15   O     O_R   0.554010 0.248440 0.822860 -0.504224
O16   O     O_R   0.445990 0.248440 0.177140 -0.501419
O17   O     O_3   0.165160 0.665150 0.749190 -0.282538
O18   O     O_3   0.834840 0.665150 0.250810 -0.259011
O19   O     O_3   0.665160 0.165150 0.749190 -0.281399
O20   O     O_3   0.334840 0.165150 0.250810 -0.257348
O21   O     O_R   0.178620 0.457600 0.674100 -0.500166
O22   O     O_R   0.821380 0.457600 0.325900 -0.500209
O23   O     O_R   0.678620 0.957600 0.674100 -0.501189
O24   O     O_R   0.321380 0.957600 0.325900 -0.500672
O25   O     O_R   0.284680 0.542100 0.669460 -0.454091
O26   O     O_R   0.715320 0.542100 0.330540 -0.467510
O27   O     O_R   0.784680 0.042100 0.669460 -0.456213
O28   O     O_R   0.215320 0.042100 0.330540 -0.467305
O29   O     O_R   0.262860 0.790390 0.676650 -0.474058
O30   O     O_R   0.737140 0.790390 0.323350 -0.474337
O31   O     O_R   0.762860 0.290390 0.676650 -0.474964
O32   O     O_R   0.237140 0.290390 0.323350 -0.475354
O33   O     O_R   0.167460 0.907030 0.670940 -0.481297
O34   O     O_R   0.832540 0.907030 0.329060 -0.474914
O35   O     O_R   0.667460 0.407030 0.670940 -0.481677
O36   O     O_R   0.332540 0.407030 0.329060 -0.476989
O37   O     O_R   0.053950 0.750220 0.675100 -0.505508
O38   O     O_R   0.946050 0.750220 0.324900 -0.499742
O39   O     O_R   0.553950 0.250220 0.675100 -0.505418
O40   O     O_R   0.446050 0.250220 0.324900 -0.500565
O41   O     O_R   0.043300 0.547370 0.827390 -0.500208
O42   O     O_R   0.956700 0.547370 0.172610 -0.512390
O43   O     O_R   0.543300 0.047370 0.827390 -0.499952
O44   O     O_R   0.456700 0.047370 0.172610 -0.514104
O45   O     O_R   0.178690 0.455820 0.821860 -0.514802
O46   O     O_R   0.821310 0.455820 0.178140 -0.496971
O47   O     O_R   0.678690 0.955820 0.821860 -0.518793
O48   O     O_R   0.321310 0.955820 0.178140 -0.497997
O49   O     O_R   0.284750 0.540170 0.828860 -0.513329
O50   O     O_R   0.715250 0.540170 0.171140 -0.518546
O51   O     O_R   0.784750 0.040170 0.828860 -0.514001
O52   O     O_R   0.215250 0.040170 0.171140 -0.518465
Cl1   Cl    Cl    0.322310 0.707759 0.554042 -0.628147
Cl2   Cl    Cl    0.667343 0.719574 0.443379 -0.654224
Cl3   Cl    Cl    0.822321 0.207772 0.554048 -0.628081
Cl4   Cl    Cl    0.167346 0.219588 0.443385 -0.654005
O53   O     O_3   0.234043 0.044320 0.565932 -0.681750
H49   H     H_    0.267616 0.079735 0.531235 0.341296
O54   O     O_3   0.765547 0.046559 0.431268 -0.674028
H50   H     H_    0.729849 0.085088 0.462336 0.341528
O55   O     O_3   0.734041 0.544320 0.565932 -0.681936
H51   H     H_    0.767614 0.579739 0.531237 0.341207
O56   O     O_3   0.265531 0.546591 0.431245 -0.674378
H52   H     H_    0.229831 0.585124 0.462308 0.341455

loop_
_geom_bond_atom_site_label_1
_geom_bond_atom_site_label_2
_ccdc_geom_bond_type
Cr10  O18   S    
C81   O53   S    
C69   O49   A    
Cr1   O21   S    
C6    C82   D    
C87   C91   D    
Cr8   O20   S    
Cr8   O52   S    
C14   C18   A    
C7    C83   D    
C35   C36   A    
C30   C34   A    
C45   O33   A    
C45   C81   S    
Cr5   O17   S    
C57   C62   D    
O55   H51   S    
C11   C68   S    
C71   O51   A    
C12   C23   A    
C1    O21   A    
C59   C64   D    
C50   C54   S    
C30   H37   S    
C4    O24   A    
C60   C63   D    
C32   C36   A    
C14   C21   A    
C61   H17   S    
C48   O36   A    
Cr7   O7    S    
Cr12  O20   S    
C67   O39   A    
C9    C22   A    
Cr7   O19   S    
C29   H38   S    
C19   H31   S    
Cr12  O40   S    
C73   O5    A    
C11   C24   A    
C79   O43   A    
C54   H6    S    
C68   O40   A    
C75   O11   A    
C78   O42   A    
C87   H27   S    
C31   H40   S    
C8    Cl4   S    
Cr3   O23   S    
C9    C66   S    
C32   H39   S    
C65   O1    A    
C85   H25   S    
C5    C81   D    
C46   C82   S    
C1    O25   A    
C92   H4    S    
C39   C55   D    
C14   H34   S    
C29   C33   A    
C40   C56   D    
C17   C18   A    
Cr6   O6    S    
C73   O9    A    
C23   C24   A    
Cr9   O17   S    
C8    C92   S    
C39   C75   S    
Cr6   O26   S    
Cr7   O31   S    
C84   O56   S    
C16   C20   A    
C72   O52   A    
C37   C53   D    
C44   C52   D    
C1    C88   S    
C51   H47   S    
C70   O46   A    
C8    C84   D    
C21   C22   A    
C3    C86   S    
C69   O45   A    
C16   H36   S    
C4    O28   A    
Cr9   O33   S    
C41   C49   D    
C83   O55   S    
C48   O32   A    
C36   H44   S    
C9    C26   A    
C33   C34   A    
C15   H35   S    
C10   C21   A    
C25   C29   A    
C80   O44   A    
C12   C67   S    
Cr12  O36   S    
C78   O14   A    
C42   H10   S    
C74   O6    A    
C12   C27   A    
C45   O29   A    
Cr5   O29   S    
C88   C92   D    
C28   C32   A    
Cr11  O35   S    
C90   H2    S    
C7    Cl3   S    
C86   C90   D    
C59   C79   S    
C57   H22   S    
C74   O10   A    
C85   C89   D    
C86   H26   S    
C35   H43   S    
C4    C85   S    
C51   C55   S    
C59   H24   S    
C64   H20   S    
C27   C31   A    
C70   O50   A    
C46   O34   A    
C3    O27   A    
C43   H11   S    
Cr2   O46   S    
Cr5   O5    S    
Cr6   O30   S    
C15   C19   A    
O56   H52   S    
Cr7   O27   S    
C57   C77   S    
C72   O48   A    
C48   C84   S    
C50   H46   S    
Cr5   O25   S    
O54   H50   S    
C38   C54   D    
C52   H48   S    
Cr1   O17   S    
O53   H49   S    
C2    C87   S    
Cr10  O34   S    
Cr11  O15   S    
C20   H32   S    
Cr9   O13   S    
C47   O31   A    
Cr10  O14   S    
C33   H41   S    
C49   H45   S    
C42   C50   D    
C41   C72   S    
C10   C25   A    
C3    O23   A    
C15   C24   A    
C40   H16   S    
Cr2   O22   S    
C26   C30   A    
C43   C70   S    
C47   C83   S    
C17   H29   S    
C31   C35   A    
C76   O12   A    
Cr11  O39   S    
C88   H28   S    
C47   O35   A    
Cr8   O28   S    
C7    C91   S    
C62   H18   S    
Cr10  O10   S    
C66   O2    A    
C82   O54   S    
C38   C74   S    
C10   C65   S    
C75   O7    A    
Cr4   O48   S    
C39   H15   S    
C37   C73   S    
C60   C80   S    
Cr3   O43   S    
Cr4   O24   S    
C55   H7    S    
C77   O41   A    
Cr2   O42   S    
Cr11  O11   S    
Cr6   O50   S    
C60   H23   S    
Cr1   O41   S    
C65   O37   A    
Cr8   O8    S    
C68   O4    A    
Cr12  O12   S    
C63   H19   S    
Cr12  O16   S    
C71   O47   A    
C67   O3    A    
Cr5   O49   S    
C16   C23   A    
Cr9   O37   S    
C13   C17   A    
C89   H1    S    
C46   O30   A    
C19   C20   A    
Cr9   O9    S    
C25   C26   A    
C41   H9    S    
C6    C90   S    
C2    O22   A    
Cr2   O2    S    
C34   H42   S    
Cr11  O19   S    
C43   C51   D    
Cr4   O4    S    
C76   O8    A    
Cr3   O19   S    
C11   C28   A    
C58   C61   D    
C49   C53   S    
Cr1   O45   S    
C66   O38   A    
Cr1   O1    S    
C42   C71   S    
Cr10  O38   S    
C56   H8    S    
C13   C22   A    
C18   H30   S    
Cr3   O3    S    
C61   C62   S    
Cr8   O32   S    
C5    C89   S    
C6    Cl2   S    
C58   C78   S    
C5    Cl1   S    
C63   C64   S    
Cr6   O18   S    
C40   C76   S    
Cr4   O44   S    
C37   H13   S    
C44   H12   S    
C58   H21   S    
Cr3   O47   S    
Cr4   O20   S    
Cr7   O51   S    
C27   C28   A    
C44   C69   S    
C38   H14   S    
C53   H5    S    
C2    O26   A    
C79   O15   A    
C77   O13   A    
C80   O16   A    
Cr2   O18   S    
C52   C56   S    
C13   H33   S    
C91   H3    S    
