data_mof_unit_52844.cif
_audit_creation_date              2012-12-11T14:40:35-0500
_audit_creation_method            fapswitch 2.2
_symmetry_space_group_name_H-M    P1
_symmetry_Int_Tables_number       1
_space_group_crystal_system       triclinic
_cell_length_a                    24.838319
_cell_length_b                    17.618062
_cell_length_c                    15.520985
_cell_angle_alpha                 90.00438
_cell_angle_beta                  129.77257
_cell_angle_gamma                 90.058977
_cell_volume                      5220.28061625

loop_
_atom_site_label
_atom_site_type_symbol
_atom_type_description
_atom_site_fract_x
_atom_site_fract_y
_atom_site_fract_z
_atom_type_partial_charge
C1    C     C_R   0.357205 0.353999 0.258974 -0.060587
C2    C     C_R   0.667558 0.658156 0.506621 -0.160800
C3    C     C_R   0.184242 0.876330 0.506142 -0.143382
C4    C     C_R   0.167559 0.158155 0.506621 -0.160799
C5    C     C_R   0.319054 0.390312 0.507875 -0.134009
C6    C     C_R   0.356983 0.675209 0.513999 -0.199382
C7    C     C_R   0.819054 0.890312 0.507875 -0.134010
C8    C     C_R   0.856983 0.175209 0.513999 -0.199383
C9    C     C_3   0.305617 0.319939 0.637520 -0.388515
C10   C     C_3   0.359764 0.765392 0.648550 -0.433645
C11   C     C_3   0.805616 0.819940 0.637520 -0.388508
C12   C     C_R   0.333520 0.599241 0.191920 0.087601
C13   C     C_3   0.859765 0.265393 0.648550 -0.433646
C14   C     C_3   0.769177 0.748819 0.637997 -0.388728
C15   C     C_3   0.810143 0.324409 0.641212 -0.374472
C16   C     C_3   0.269178 0.248818 0.637996 -0.388725
C17   C     C_3   0.310143 0.824409 0.641212 -0.374472
C18   C     C_3   0.200121 0.351616 0.440203 -0.311196
C19   C     C_3   0.256210 0.689814 0.502282 -0.298821
C20   C     C_3   0.700120 0.851616 0.440202 -0.311195
C21   C     C_3   0.756211 0.189815 0.502283 -0.298820
C22   C     C_3   0.293693 0.256718 0.483131 -0.479527
C23   C     C_R   0.857205 0.853999 0.258975 -0.060568
C24   C     C_3   0.307481 0.803117 0.457939 -0.389316
C25   C     C_3   0.793693 0.756718 0.483131 -0.479533
C26   C     C_3   0.807481 0.303117 0.457939 -0.389316
C27   C     C_3   0.279699 0.332431 0.516518 0.377719
C28   C     C_3   0.320773 0.732173 0.528898 0.415186
C29   C     C_3   0.779699 0.832432 0.516518 0.377722
C30   C     C_3   0.820773 0.232173 0.528898 0.415187
C31   C     C_3   0.709387 0.722016 0.514955 0.370787
C32   C     C_3   0.736699 0.326216 0.518982 0.340663
C33   C     C_3   0.209387 0.222015 0.514954 0.370785
C34   C     C_R   0.833520 0.099241 0.191920 0.087604
C35   C     C_3   0.236699 0.826216 0.518982 0.340663
C36   C     C_3   0.661143 0.791623 0.453198 -0.461082
C37   C     C_3   0.706020 0.245308 0.492262 -0.409274
C38   C     C_3   0.161144 0.291622 0.453199 -0.461082
C39   C     C_3   0.206019 0.745308 0.492262 -0.409274
C40   C     C_R   0.650463 0.362146 0.758037 -0.108751
C41   C     C_R   0.667537 0.607229 0.801066 -0.110577
C42   C     C_R   0.150463 0.862146 0.758037 -0.108752
C43   C     C_R   0.167537 0.107229 0.801066 -0.110577
C44   C     C_3   0.742569 0.697948 0.462188 -0.294659
C45   C     C_R   0.618077 0.320403 0.789616 0.135728
C46   C     C_3   0.749088 0.349600 0.436998 -0.307343
C47   C     C_3   0.242569 0.197948 0.462188 -0.294659
C48   C     C_3   0.249088 0.849600 0.436998 -0.307343
C49   C     C_2   0.643788 0.248810 0.851422 -0.200483
C50   C     C_2   0.694569 0.655353 0.980196 -0.187233
C51   C     C_2   0.143788 0.748810 0.851422 -0.200483
C52   C     C_2   0.194569 0.155353 0.980196 -0.187235
C53   C     C_2   0.696086 0.211355 0.866379 -0.115505
C54   C     C_2   0.764422 0.657499 0.042396 -0.105320
C55   C     C_2   0.196086 0.711355 0.866379 -0.115506
C56   C     C_R   0.648163 0.627223 0.864175 0.128958
C57   C     C_2   0.264422 0.157499 0.042396 -0.105319
C58   C     C_2   0.307591 0.657100 0.019752 -0.168574
C59   C     C_2   0.366968 0.234873 0.178016 -0.181018
C60   C     C_2   0.807591 0.157100 0.019752 -0.168573
C61   C     C_2   0.866968 0.734873 0.178016 -0.181016
C62   C     C_2   0.238012 0.658759 0.959661 -0.106156
C63   C     C_2   0.306474 0.204602 0.143660 -0.095103
C64   C     C_2   0.738012 0.158759 0.959661 -0.106156
C65   C     C_2   0.806474 0.704602 0.143660 -0.095101
C66   C     C_R   0.615659 0.393437 0.408971 0.484986
C67   C     C_R   0.118077 0.820403 0.789616 0.135729
C68   C     C_R   0.608384 0.623064 0.409379 0.480192
C69   C     C_R   0.115659 0.893437 0.408971 0.484985
C70   C     C_R   0.108385 0.123064 0.409379 0.480193
C71   C     C_R   0.387950 0.404137 0.596251 -0.236598
C72   C     C_R   0.411396 0.634370 0.600923 -0.203981
C73   C     C_R   0.887950 0.904137 0.596251 -0.236599
C74   C     C_R   0.911396 0.134370 0.600923 -0.203981
C75   C     C_R   0.689103 0.397424 0.595495 -0.229897
C76   C     C_R   0.679032 0.625332 0.597169 -0.202226
C77   C     C_R   0.189103 0.897424 0.595495 -0.229897
C78   C     C_R   0.148163 0.127223 0.864175 0.128959
C79   C     C_R   0.179033 0.125331 0.597169 -0.202226
C80   C     C_R   0.311436 0.404071 0.411685 0.465019
C81   C     C_R   0.331279 0.637940 0.413353 0.509792
C82   C     C_R   0.811436 0.904071 0.411685 0.465021
C83   C     C_R   0.831279 0.137940 0.413353 0.509794
C84   C     C_R   0.559671 0.360740 0.758080 -0.131241
C85   C     C_R   0.578348 0.607128 0.803112 -0.128797
C86   C     C_R   0.059671 0.860740 0.758080 -0.131241
C87   C     C_R   0.078348 0.107128 0.803112 -0.128798
C88   C     C_R   0.448320 0.349443 0.264788 -0.014721
C89   C     C_R   0.684242 0.376330 0.506142 -0.143382
C90   C     C_R   0.424692 0.616032 0.201267 -0.072831
C91   C     C_R   0.948320 0.849443 0.264788 -0.014722
C92   C     C_R   0.924692 0.116032 0.201267 -0.072832
C93   C     C_R   0.391661 0.308375 0.236796 0.013721
C94   C     C_R   0.353734 0.626963 0.134189 0.030155
C95   C     C_R   0.891661 0.808375 0.236796 0.013713
C96   C     C_R   0.853734 0.126963 0.134189 0.030156
H1    H     H_    0.314252 0.336916 0.254657 0.164896
H2    H     H_    0.834574 0.381740 0.664227 0.167816
H3    H     H_    0.308267 0.202513 0.686063 0.164491
H4    H     H_    0.334574 0.881740 0.664227 0.167816
H5    H     H_    0.248062 0.263164 0.681194 0.163107
H6    H     H_    0.304063 0.807667 0.703639 0.157421
H7    H     H_    0.748062 0.763165 0.681195 0.163107
H8    H     H_    0.804063 0.307667 0.703639 0.157421
H9    H     H_    0.192056 0.408885 0.460436 0.166036
H10   H     H_    0.275059 0.650043 0.572371 0.129547
H11   H     H_    0.692054 0.908887 0.460433 0.166038
H12   H     H_    0.281546 0.581600 0.153594 0.178347
H13   H     H_    0.775060 0.150043 0.572372 0.129547
H14   H     H_    0.646447 0.815750 0.501945 0.172980
H15   H     H_    0.697179 0.228847 0.551693 0.151348
H16   H     H_    0.146447 0.315749 0.501945 0.172980
H17   H     H_    0.197179 0.728847 0.551693 0.151347
H18   H     H_    0.348194 0.237006 0.551445 0.178405
H19   H     H_    0.355657 0.838794 0.504265 0.151873
H20   H     H_    0.848194 0.737007 0.551444 0.178405
H21   H     H_    0.855657 0.338794 0.504265 0.151873
H22   H     H_    0.768412 0.641476 0.493019 0.175511
H23   H     H_    0.814252 0.836915 0.254657 0.164900
H24   H     H_    0.760907 0.411291 0.443596 0.186090
H25   H     H_    0.268411 0.141475 0.493017 0.175511
H26   H     H_    0.260907 0.911291 0.443596 0.186090
H27   H     H_    0.702525 0.698040 0.370598 0.269461
H28   H     H_    0.703510 0.335516 0.350766 0.279226
H29   H     H_    0.202524 0.198041 0.370598 0.269461
H30   H     H_    0.203510 0.835516 0.350766 0.279226
H31   H     H_    0.175426 0.350407 0.351299 0.264361
H32   H     H_    0.227879 0.650949 0.429732 0.222792
H33   H     H_    0.675425 0.850407 0.351297 0.264361
H34   H     H_    0.781546 0.081600 0.153594 0.178344
H35   H     H_    0.727879 0.150949 0.429733 0.222792
H36   H     H_    0.698091 0.348805 0.772771 0.092593
H37   H     H_    0.720018 0.605680 0.828993 0.086951
H38   H     H_    0.198091 0.848805 0.772771 0.092594
H39   H     H_    0.220018 0.105680 0.828993 0.086951
H40   H     H_    0.611170 0.776783 0.369835 0.215447
H41   H     H_    0.654686 0.240870 0.407309 0.228930
H42   H     H_    0.111171 0.276783 0.369835 0.215447
H43   H     H_    0.154686 0.740870 0.407309 0.228929
H44   H     H_    0.213218 0.632107 0.989331 0.145448
H45   H     H_    0.362988 0.309906 0.699481 0.161730
H46   H     H_    0.281353 0.225343 0.175998 0.152890
H47   H     H_    0.713218 0.132107 0.989330 0.145446
H48   H     H_    0.781353 0.725343 0.175998 0.152891
H49   H     H_    0.715501 0.228266 0.823408 0.125722
H50   H     H_    0.789512 0.633525 0.011598 0.130075
H51   H     H_    0.215501 0.728266 0.823408 0.125722
H52   H     H_    0.289512 0.133525 0.011598 0.130075
H53   H     H_    0.331433 0.685690 0.989417 0.139000
H54   H     H_    0.391370 0.213514 0.144553 0.155815
H55   H     H_    0.831434 0.185690 0.989417 0.139000
H56   H     H_    0.410001 0.792829 0.681049 0.172096
H57   H     H_    0.891370 0.713514 0.144554 0.155816
H58   H     H_    0.412419 0.407398 0.683962 0.135454
H59   H     H_    0.439640 0.642421 0.689268 0.133213
H60   H     H_    0.912419 0.907399 0.683961 0.135454
H61   H     H_    0.939640 0.142421 0.689268 0.133213
H62   H     H_    0.735570 0.400618 0.682552 0.130101
H63   H     H_    0.722559 0.633329 0.685164 0.127154
H64   H     H_    0.235570 0.900618 0.682552 0.130101
H65   H     H_    0.222560 0.133328 0.685163 0.127153
H66   H     H_    0.489657 0.322749 0.272168 0.161149
H67   H     H_    0.862988 0.809907 0.699483 0.161728
H68   H     H_    0.455169 0.633922 0.178821 0.194820
H69   H     H_    0.989657 0.822749 0.272168 0.161149
H70   H     H_    0.955170 0.133922 0.178821 0.194820
H71   H     H_    0.293653 0.370782 0.665156 0.166256
H72   H     H_    0.373046 0.720245 0.709523 0.162585
H73   H     H_    0.793652 0.870783 0.665157 0.166254
H74   H     H_    0.873047 0.220246 0.709523 0.162585
H75   H     H_    0.788927 0.761466 0.406965 0.189919
H76   H     H_    0.797060 0.292192 0.378607 0.240349
H77   H     H_    0.288928 0.261465 0.406966 0.189918
H78   H     H_    0.910001 0.292829 0.681048 0.172096
H79   H     H_    0.297060 0.792192 0.378608 0.240349
H80   H     H_    0.625073 0.231341 0.895401 0.147126
H81   H     H_    0.670314 0.679661 0.012409 0.162607
H82   H     H_    0.125073 0.731341 0.895401 0.147127
H83   H     H_    0.170314 0.179662 0.012409 0.162606
H84   H     H_    0.608061 0.426044 0.166102 0.378353
H85   H     H_    0.520227 0.557704 0.120069 0.382623
H86   H     H_    0.108061 0.926044 0.166102 0.378353
H87   H     H_    0.020227 0.057704 0.120069 0.382624
H88   H     H_    0.201888 0.448431 0.113096 0.380040
H89   H     H_    0.808267 0.702514 0.686064 0.164491
H90   H     H_    0.227310 0.728478 0.136459 0.371053
H91   H     H_    0.701884 0.948445 0.113098 0.380053
H92   H     H_    0.727309 0.228478 0.136458 0.371053
H93   H     H_    0.523455 0.344151 0.771112 0.108718
H94   H     H_    0.550880 0.604775 0.835840 0.104859
H95   H     H_    0.023455 0.844151 0.771112 0.108719
H96   H     H_    0.050880 0.104775 0.835840 0.104859
N1    N     N_R   0.389430 0.421450 0.294590 -0.044992
N2    N     N_R   0.581780 0.577610 0.443390 -0.093335
N3    N     N_R   0.081780 0.922390 0.443390 -0.106814
N4    N     N_R   0.081780 0.077610 0.443390 -0.093335
N5    N     N_R   0.419850 0.423100 0.556610 -0.066703
N6    N     N_R   0.419850 0.576900 0.556610 -0.064399
N7    N     N_R   0.919850 0.923100 0.556610 -0.066703
N8    N     N_R   0.919850 0.076900 0.556610 -0.064399
N9    N     N_R   0.627410 0.423100 0.556610 -0.067795
N10   N     N_R   0.627410 0.576900 0.556610 -0.063375
N11   N     N_R   0.127410 0.923100 0.556610 -0.067795
N12   N     N_R   0.389430 0.578550 0.294590 -0.072548
N13   N     N_R   0.127410 0.076900 0.556610 -0.063375
N14   N     N_R   0.374220 0.422390 0.443390 -0.102344
N15   N     N_R   0.374220 0.577610 0.443390 -0.091780
N16   N     N_R   0.874220 0.922390 0.443390 -0.102345
N17   N     N_R   0.874220 0.077610 0.443390 -0.091780
N18   N     N_R   0.555000 0.424040 0.705410 -0.043688
N19   N     N_R   0.555000 0.575960 0.705410 -0.042757
N20   N     N_R   0.055000 0.924040 0.705410 -0.043688
N21   N     N_R   0.055000 0.075960 0.705410 -0.042757
N22   N     N_R   0.446630 0.421450 0.294590 -0.041657
N23   N     N_R   0.889430 0.921450 0.294590 -0.044991
N24   N     N_R   0.446630 0.578550 0.294590 -0.065736
N25   N     N_R   0.946630 0.921450 0.294590 -0.041658
N26   N     N_R   0.946630 0.078550 0.294590 -0.065736
N27   N     N_R   0.889430 0.078550 0.294590 -0.072548
N28   N     N_R   0.612200 0.424040 0.705410 -0.046354
N29   N     N_R   0.612200 0.575960 0.705410 -0.045029
N30   N     N_R   0.112200 0.924040 0.705410 -0.046353
N31   N     N_R   0.112200 0.075960 0.705410 -0.045029
N32   N     N_R   0.581780 0.422390 0.443390 -0.106814
Ni1   Ni    Ni4+2 0.382890 0.500000 0.370170 0.317305
Ni2   Ni    Ni4+2 0.882890 0.000000 0.370170 0.317305
Ni3   Ni    Ni4+2 0.618740 0.500000 0.629830 0.195429
Ni4   Ni    Ni4+2 0.118740 0.000000 0.629830 0.195429
Ni5   Ni    Ni4+2 0.514090 0.500000 0.370170 0.337228
Ni6   Ni    Ni4+2 0.014090 0.000000 0.370170 0.337228
Ni7   Ni    Ni4+2 0.487550 0.500000 0.629830 0.197381
Ni8   Ni    Ni4+2 0.987550 0.000000 0.629830 0.197381
O1    O     O_2   0.578961 0.305866 0.234897 -0.333863
O2    O     O_2   0.076390 0.187041 0.223467 -0.357499
O3    O     O_2   0.157217 0.079030 0.305389 -0.279047
O4    O     O_3   0.027420 0.052481 0.190389 -0.489186
O5    O     O_2   0.197310 0.340841 0.223756 -0.355505
O6    O     O_2   0.183542 0.467058 0.274598 -0.256324
O7    O     O_3   0.246065 0.455920 0.190732 -0.553042
O8    O     O_2   0.215002 0.591570 0.206553 -0.236340
O9    O     O_2   0.199741 0.705209 0.273230 -0.297863
O10   O     O_3   0.272527 0.717480 0.211442 -0.595009
O11   O     O_2   0.697311 0.840840 0.223756 -0.355498
O12   O     O_2   0.506439 0.415961 0.184015 -0.275589
O13   O     O_2   0.683542 0.967058 0.274596 -0.256332
O14   O     O_3   0.746065 0.955919 0.190732 -0.553054
O15   O     O_2   0.715002 0.091570 0.206553 -0.236356
O16   O     O_2   0.699741 0.205209 0.273230 -0.297862
O17   O     O_3   0.772527 0.217480 0.211442 -0.595008
O18   O     O_3   0.628617 0.437173 0.244380 -0.487019
O19   O     O_2   0.576390 0.687041 0.223467 -0.357498
O20   O     O_2   0.657217 0.579030 0.305389 -0.279047
O21   O     O_3   0.527420 0.552481 0.190389 -0.489185
O22   O     O_2   0.078961 0.805866 0.234897 -0.333863
O23   O     O_2   0.006439 0.915960 0.184015 -0.275589
O24   O     O_3   0.128617 0.937172 0.244380 -0.487019
S1    S     S_3+6 0.580140 0.387220 0.265045 -0.064208
S2    S     S_3+6 0.592807 0.611630 0.280738 -0.081303
S3    S     S_3+6 0.080140 0.887220 0.265045 -0.064208
S4    S     S_3+6 0.092807 0.111630 0.280738 -0.081303
S5    S     S_3+6 0.231717 0.416699 0.273017 -0.076977
S6    S     S_3+6 0.252001 0.661442 0.274484 -0.082809
S7    S     S_3+6 0.731717 0.916699 0.273016 -0.076980
S8    S     S_3+6 0.752001 0.161442 0.274484 -0.082812

loop_
_geom_bond_atom_site_label_1
_geom_bond_atom_site_label_2
_ccdc_geom_bond_type
C78   C87   A    
C58   C62   D    
C80   N14   A    
C55   C62   S    
C76   H63   S    
C7    C29   S    
C8    C83   A    
N21   N31   A    
N29   Ni3   S    
C43   N31   A    
C26   H21   S    
C69   N3    A    
C14   C31   S    
N7    Ni8   S    
C66   S1    S    
C46   H28   S    
C90   N24   A    
C75   N9    A    
O20   S2    D    
C15   C32   S    
C7    C73   A    
C54   C65   S    
C23   N23   A    
C43   C78   A    
O2    S4    D    
C86   H95   S    
C50   C54   D    
N19   Ni7   S    
C19   C39   S    
C17   C35   S    
C3    C69   A    
C9    C16   S    
C34   C96   A    
H91   O14   S    
C2    C68   A    
N23   N25   A    
O19   S2    D    
C23   H23   S    
C35   C39   S    
N20   Ni8   S    
C53   C64   S    
C76   N10   A    
C47   H25   S    
N3    N11   A    
C32   C46   S    
C10   C17   S    
C45   C49   S    
N2    N10   A    
O24   S3    S    
C85   N19   A    
C19   H32   S    
C92   C96   A    
N18   N28   A    
C9    H71   S    
N13   Ni4   S    
N4    N13   A    
C21   H35   S    
C10   H56   S    
C5    C27   S    
H84   O18   S    
O21   S2    S    
N15   Ni1   S    
C6    C28   S    
C52   H83   S    
C70   N4    A    
O3    S4    D    
C39   H17   S    
C84   N18   A    
N18   Ni7   S    
C90   C94   A    
C88   H66   S    
C3    C77   A    
C44   H22   S    
C15   H8    S    
C51   H82   S    
C20   H33   S    
O18   S1    S    
O15   S8    D    
C58   H53   S    
H87   O4    S    
C54   H50   S    
C20   H11   S    
N16   Ni2   S    
C25   H75   S    
C48   H30   S    
C70   S4    S    
C22   C47   S    
C40   H36   S    
C26   H76   S    
C81   S6    S    
O17   S8    S    
C6    C81   A    
C37   H41   S    
C40   N28   A    
C25   C29   S    
N2    Ni5   S    
C12   C94   A    
C83   S8    S    
C40   C45   A    
C38   H42   S    
O11   S7    D    
C79   H65   S    
C52   C78   S    
C35   C48   S    
C36   H40   S    
C25   C44   S    
C4    C70   A    
N11   Ni4   S    
C71   N5    A    
C66   C89   A    
O23   S3    D    
C20   C29   S    
N5    Ni7   S    
O10   S6    S    
C13   H78   S    
C47   H29   S    
C39   H43   S    
O4    S4    S    
C31   C44   S    
C18   C27   S    
O5    S5    D    
C24   C48   S    
C13   C30   S    
N1    N22   A    
C50   H81   S    
C4    C79   A    
C66   N32   A    
C25   H20   S    
C1    H1    S    
C12   H12   S    
C65   H48   S    
C88   C93   A    
C34   N27   A    
N20   N30   A    
C85   H94   S    
C79   N13   A    
C71   H58   S    
C72   N6    A    
C50   C56   S    
C92   N26   A    
N3    Ni6   S    
C90   H68   S    
C2    C31   S    
C60   H55   S    
C11   H67   S    
C91   N25   A    
C1    N1    A    
C17   H6    S    
C81   N15   A    
C41   C56   A    
C92   H70   S    
C18   H31   S    
C53   H49   S    
C80   S5    S    
C55   H51   S    
C32   C89   S    
C3    C35   S    
C68   N2    A    
N14   Ni1   S    
C8    C74   A    
N24   Ni5   S    
C87   N21   A    
C46   H24   S    
C84   H93   S    
C6    C72   A    
C51   C67   S    
C32   C37   S    
C5    C80   A    
C43   H39   S    
C19   C28   S    
C22   H18   S    
C34   H34   S    
C83   N17   A    
N21   Ni8   S    
C88   N22   A    
C41   H37   S    
C60   C96   S    
C75   H62   S    
C1    C93   A    
C13   H74   S    
N4    Ni6   S    
C11   H73   S    
O9    S6    D    
C13   C15   S    
C36   H14   S    
C42   C67   A    
C33   C47   S    
C57   H52   S    
C45   C84   A    
N17   Ni2   S    
C15   H2    S    
C38   H16   S    
O13   S7    D    
C82   N16   A    
C22   H77   S    
C2    C76   A    
C9    C27   S    
H90   O10   S    
C59   H54   S    
C10   C28   S    
N9    Ni3   S    
N12   N24   A    
C4    C33   S    
H85   O21   S    
C67   C86   A    
N5    N14   A    
H88   O7    S    
C74   H61   S    
N6    N15   A    
N6    Ni7   S    
C59   C63   D    
C91   H69   S    
C42   N30   A    
O12   S1    D    
C24   C28   S    
C57   C63   S    
O8    S6    D    
C61   H57   S    
O1    S1    D    
C61   C95   S    
C16   H3    S    
C26   C30   S    
N10   Ni3   S    
C86   N20   A    
C64   H47   S    
C68   S2    S    
C59   C93   S    
C21   C30   S    
C14   H89   S    
C44   H27   S    
C22   C27   S    
C33   C38   S    
C69   S3    S    
C60   C64   D    
N23   Ni2   S    
C8    C30   S    
N8    N17   A    
C87   H96   S    
C18   C38   S    
C18   H9    S    
N1    Ni1   S    
C5    C71   A    
C16   C33   S    
C56   C85   A    
N32   Ni5   S    
C11   C29   S    
C48   H26   S    
N31   Ni4   S    
N26   N27   A    
C74   N8    A    
O22   S3    D    
C49   C53   D    
C73   N7    A    
C73   H60   S    
N7    N16   A    
C11   C14   S    
C63   H46   S    
C23   C95   A    
C42   H38   S    
C51   C55   D    
C12   N12   A    
N27   Ni2   S    
C58   C94   S    
H92   O17   S    
C17   H4    S    
C37   H15   S    
C9    H45   S    
C52   C57   D    
C26   C46   S    
C77   H64   S    
C91   C95   A    
N25   Ni6   S    
C20   C36   S    
C19   H10   S    
C61   C65   D    
C16   H5    S    
C77   N11   A    
C7    C82   A    
C21   C37   S    
N28   Ni3   S    
C24   H19   S    
C10   H72   S    
N30   Ni4   S    
C75   C89   A    
C82   S7    S    
C72   H59   S    
C14   H7    S    
N26   Ni6   S    
O7    S5    S    
O6    S5    D    
C31   C36   S    
N8    Ni8   S    
N9    N32   A    
C62   H44   S    
N12   Ni1   S    
N22   Ni5   S    
C24   H79   S    
H86   O24   S    
C49   H80   S    
C41   N29   A    
O14   S7    S    
C21   H13   S    
O16   S8    D    
N19   N29   A    
