data_mof_unit_8695.cif
_audit_creation_date              2012-12-10T17:46:15-0500
_audit_creation_method            fapswitch 2.2
_symmetry_space_group_name_H-M    P1
_symmetry_Int_Tables_number       1
_space_group_crystal_system       triclinic
_cell_length_a                    14.135716
_cell_length_b                    10.641222
_cell_length_c                    9.995803
_cell_angle_alpha                 91.377104
_cell_angle_beta                  89.091875
_cell_angle_gamma                 92.003397
_cell_volume                      1502.05902152

loop_
_atom_site_label
_atom_site_type_symbol
_atom_type_description
_atom_site_fract_x
_atom_site_fract_y
_atom_site_fract_z
_atom_type_partial_charge
C1    C     C_R   0.497011 0.260598 0.498736 0.873317
C2    C     C_R   0.563817 0.065740 0.432082 -0.215225
C3    C     C_R   0.565337 0.937376 0.435595 -0.203665
C4    C     C_R   0.329479 0.499899 0.500950 0.872415
C5    C     C_R   0.493744 0.871338 0.504047 -0.092374
C6    C     C_R   0.344915 0.380194 0.133765 0.272720
C7    C     C_R   0.259392 0.369568 0.063152 -0.200474
C8    C     C_R   0.263332 0.362795 0.925071 -0.256699
C9    C     C_R   0.349173 0.385941 0.860385 -0.137609
C10   C     C_R   0.425129 0.444682 0.927752 0.140511
C11   C     C_R   0.424156 0.443783 0.071310 0.058179
C12   C     C_1   0.772133 0.500165 0.497550 -0.211576
C13   C     C_R   0.572022 0.553977 0.071084 -0.108213
C14   C     C_R   0.572005 0.553876 0.928576 -0.101383
C15   C     C_R   0.498965 0.739165 0.501403 0.851432
C16   C     C_R   0.670547 0.500294 0.499090 0.884868
C17   C     C_1   0.227965 0.500078 0.502714 -0.218464
C18   C     C_1   0.142661 0.500026 0.502523 -0.024870
C19   C     C_1   0.042727 0.499943 0.501040 0.000172
C20   C     C_1   0.957422 0.499951 0.499441 0.001737
C21   C     C_1   0.857466 0.500047 0.497888 -0.015984
C22   C     C_3   0.282707 0.211253 0.281915 -0.818881
C23   C     C_R   0.334360 0.124216 0.612123 -0.206177
C24   C     C_R   0.260640 0.057160 0.675228 -0.129338
C25   C     C_R   0.264176 0.927229 0.684638 -0.129188
C26   C     C_R   0.340752 0.864042 0.629198 -0.178415
C27   C     C_R   0.416759 0.931257 0.566401 0.095649
C28   C     C_R   0.414339 0.062515 0.560309 0.094449
C29   C     C_R   0.490257 0.127630 0.496020 -0.099582
H1    H     H_    0.621139 0.117269 0.382067 0.150844
H2    H     H_    0.630895 0.598603 0.123793 0.142404
H3    H     H_    0.193770 0.338897 0.111213 0.162648
H4    H     H_    0.416911 0.231362 0.199173 0.237788
H5    H     H_    0.308826 0.143690 0.353397 0.246495
H6    H     H_    0.248152 0.154552 0.200417 0.236122
H7    H     H_    0.230823 0.271913 0.334109 0.244415
H8    H     H_    0.202300 0.328440 0.869258 0.160688
H9    H     H_    0.356024 0.352660 0.760405 0.197125
H10   H     H_    0.630902 0.598509 0.875582 0.144777
H11   H     H_    0.325762 0.223013 0.596601 0.122110
H12   H     H_    0.199713 0.105785 0.714150 0.132040
H13   H     H_    0.206376 0.874875 0.732122 0.139565
H14   H     H_    0.338644 0.762702 0.634281 0.153816
H15   H     H_    0.623238 0.889226 0.386614 0.147421
N1    N     N_R   0.499190 0.498800 0.142780 -0.110180
N2    N     N_R   0.499160 0.498720 0.857170 -0.106357
N3    N     N_2   0.361693 0.286821 0.229574 -0.246093
O1    O     O_R   0.500000 0.316780 0.614690 -0.620131
O2    O     O_R   0.499990 0.316750 0.385360 -0.606355
O3    O     O_R   0.373720 0.500010 0.614690 -0.631664
O4    O     O_R   0.373710 0.499990 0.385360 -0.568808
O5    O     O_R   0.500010 0.683250 0.614640 -0.610322
O6    O     O_R   0.500000 0.683220 0.385310 -0.602853
O7    O     O_R   0.626290 0.500010 0.614640 -0.594313
O8    O     O_R   0.626280 0.499990 0.385310 -0.602217
Zn1   Zn    Zn3+2 0.500010 0.500020 0.653130 0.934235
Zn2   Zn    Zn3+2 0.499990 0.499980 0.346870 0.949467

loop_
_geom_bond_atom_site_label_1
_geom_bond_atom_site_label_2
_ccdc_geom_bond_type
C25   H13   S    
C10   N2    A    
C23   C24   A    
C1    O1    A    
C23   C28   A    
C6    C7    A    
C24   H12   S    
C8    H8    S    
C22   H7    S    
C9    C10   A    
C19   C20   T    
C2    H1    S    
C15   O5    A    
C17   C18   T    
C25   C26   A    
C16   O8    A    
C7    C8    A    
C14   N2    A    
C13   C14   A    
C24   C25   A    
C13   N1    A    
C22   H6    S    
N1    Zn2   S    
C26   C27   A    
C2    C29   A    
C22   H5    S    
C4    C17   S    
C15   O6    A    
C1    C29   S    
C28   C29   A    
C26   H14   S    
C22   N3    S    
C16   O7    A    
O8    Zn2   S    
H4    N3    S    
O7    Zn1   S    
C3    H15   S    
C11   N1    A    
C5    C15   S    
C10   C11   A    
C4    O4    A    
C23   H11   S    
O5    Zn1   S    
O4    Zn2   S    
C6    C11   A    
O2    Zn2   S    
C20   C21   S    
C18   C19   S    
C6    N3    S    
N2    Zn1   S    
C27   C28   A    
O1    Zn1   S    
O6    Zn2   S    
C9    H9    S    
C2    C3    A    
C7    H3    S    
C14   H10   S    
C5    C27   A    
C1    O2    A    
C12   C21   T    
C13   H2    S    
O3    Zn1   S    
C12   C16   S    
C4    O3    A    
C8    C9    A    
C3    C5    A    
