data_mof_unit_29181.cif
_audit_creation_date              2012-12-11T15:26:56-0500
_audit_creation_method            fapswitch 2.2
_symmetry_space_group_name_H-M    P1
_symmetry_Int_Tables_number       1
_space_group_crystal_system       triclinic
_cell_length_a                    13.811458
_cell_length_b                    13.928011
_cell_length_c                    27.487397
_cell_angle_alpha                 89.929383
_cell_angle_beta                  90.1126
_cell_angle_gamma                 119.584189
_cell_volume                      4598.29149126

loop_
_atom_site_label
_atom_site_type_symbol
_atom_type_description
_atom_site_fract_x
_atom_site_fract_y
_atom_site_fract_z
_atom_type_partial_charge
C1    C     C_R   0.234653 0.787015 0.568735 0.543551
C2    C     C_R   0.212602 0.446087 0.568486 0.544889
C3    C     C_R   0.550053 0.763872 0.569697 0.542828
C4    C     C_3   0.697872 0.762414 0.788643 -0.221021
C5    C     C_3   0.250171 0.946731 0.784276 -0.220789
C6    C     C_3   0.023695 0.206626 0.770944 -0.227089
C7    C     C_3   0.674791 0.746929 0.733327 -0.243497
C8    C     C_3   0.273055 0.923495 0.731565 -0.233656
C9    C     C_3   0.039768 0.248784 0.717708 -0.234830
C10   C     C_1   0.689028 0.856820 0.862260 -0.077254
C11   C     C_1   0.110638 0.885591 0.850307 -0.076812
C12   C     C_1   0.116519 0.229353 0.850614 -0.077046
C13   C     C_1   0.610461 0.806983 0.661731 -0.083596
C14   C     C_1   0.183252 0.821693 0.656281 -0.078067
C15   C     C_1   0.180307 0.354942 0.655044 -0.077550
C16   C     C_1   0.589537 0.790596 0.618878 -0.033566
C17   C     C_1   0.202772 0.806624 0.615326 -0.028475
C18   C     C_1   0.193301 0.391129 0.614351 -0.029240
C19   C     C_R   0.070274 0.161742 0.941656 0.541856
C20   C     C_R   0.778472 0.886667 0.949422 0.542466
C21   C     C_R   0.090652 0.929828 0.941935 0.540106
C22   C     C_R   0.601644 0.807055 0.381901 0.018737
C23   C     C_R   0.193629 0.792124 0.381015 0.019473
C24   C     C_R   0.199089 0.385212 0.385597 0.018520
C25   C     C_R   0.572404 0.876323 0.354166 -0.005097
C26   C     C_R   0.126592 0.694291 0.352814 -0.006145
C27   C     C_R   0.292693 0.405509 0.356058 -0.011352
C28   C     C_R   0.566240 0.863835 0.303928 -0.106996
C29   C     C_R   0.138082 0.702270 0.302511 -0.106748
C30   C     C_R   0.273923 0.382561 0.306781 -0.106527
C31   C     C_R   0.626999 0.822650 0.280581 0.011495
C32   C     C_R   0.178990 0.803613 0.279787 0.010853
C33   C     C_R   0.168105 0.310200 0.289759 0.013056
C34   C     C_R   0.232962 0.784804 0.430349 0.531631
C35   C     C_R   0.213838 0.445852 0.431292 0.533288
C36   C     C_R   0.552832 0.767048 0.430685 0.532152
C37   C     C_R   0.674818 0.771814 0.308213 -0.133047
C38   C     C_R   0.228538 0.900571 0.307556 -0.135977
C39   C     C_R   0.075985 0.275626 0.320589 -0.132010
C40   C     C_R   0.656478 0.758382 0.358287 -0.152169
C41   C     C_R   0.241195 0.895011 0.357639 -0.156447
C42   C     C_R   0.091190 0.317476 0.367632 -0.153453
C43   C     C_R   0.630730 0.747556 0.200348 -0.138423
C44   C     C_R   0.254060 0.870100 0.198217 -0.142379
C45   C     C_R   0.079486 0.296803 0.211937 -0.143649
C46   C     C_R   0.666272 0.760830 0.152532 -0.141712
C47   C     C_R   0.240473 0.893309 0.150425 -0.148901
C48   C     C_R   0.054770 0.261340 0.164521 -0.137077
C49   C     C_R   0.721799 0.955043 0.156396 -0.113956
C50   C     C_R   0.040405 0.778706 0.158626 -0.110092
C51   C     C_R   0.177944 0.184089 0.169253 -0.114978
C52   C     C_R   0.688667 0.944538 0.205222 0.012063
C53   C     C_R   0.051655 0.754823 0.207040 0.011438
C54   C     C_R   0.209674 0.225301 0.216685 0.015048
C55   C     C_R   0.646324 0.838789 0.227795 0.031869
C56   C     C_R   0.160846 0.806915 0.227435 0.029120
C57   C     C_R   0.153243 0.276466 0.238790 0.032555
C58   C     C_R   0.716548 0.865523 0.131217 0.004870
C59   C     C_R   0.133409 0.851422 0.131338 0.003164
C60   C     C_R   0.100873 0.201690 0.143473 0.011269
C61   C     C_R   0.069869 0.159207 0.094226 0.560425
C62   C     C_R   0.777900 0.884763 0.085865 0.545326
C63   C     C_R   0.115865 0.893394 0.085674 0.554269
C64   C     C_3   0.517837 0.784027 0.742864 -0.202985
C65   C     C_3   0.118713 0.728778 0.736693 -0.211042
C66   C     C_3   0.210523 0.423748 0.739965 -0.209791
C67   C     C_3   0.718624 0.943895 0.728121 -0.067780
C68   C     C_3   0.081189 0.886455 0.710921 -0.067755
C69   C     C_3   0.221000 0.248271 0.719173 -0.069504
C70   C     C_3   0.729788 0.957341 0.784392 -0.195217
C71   C     C_3   0.046136 0.883306 0.764905 -0.201289
C72   C     C_3   0.216577 0.229408 0.775241 -0.198613
C73   C     C_1   0.723933 0.869556 0.903302 -0.028065
C74   C     C_1   0.100812 0.904328 0.892289 -0.026139
C75   C     C_1   0.097068 0.199785 0.892418 -0.028207
C76   C     C_3   0.629328 0.822215 0.714762 0.088774
C77   C     C_3   0.162277 0.838276 0.707042 0.088831
C78   C     C_3   0.165804 0.320384 0.706310 0.090061
C79   C     C_3   0.538192 0.798885 0.798774 -0.217308
C80   C     C_3   0.104423 0.747460 0.791237 -0.216726
C81   C     C_3   0.188151 0.389466 0.794220 -0.214414
C82   C     C_3   0.663046 0.843910 0.809940 0.061227
C83   C     C_3   0.127099 0.866687 0.799009 0.060594
C84   C     C_3   0.135909 0.262914 0.799133 0.061366
Cr1   Cr    Cr6+3 0.164410 0.584450 0.499910 0.997045
Cr2   Cr    Cr6+3 0.415550 0.579960 0.499910 0.996922
Cr3   Cr    Cr6+3 0.420040 0.835590 0.499910 0.997537
Cr4   Cr    Cr6+3 0.156760 0.076070 0.017830 1.016264
Cr5   Cr    Cr6+3 0.923930 0.080690 0.017830 1.001921
Cr6   Cr    Cr6+3 0.919310 0.843240 0.017830 1.006161
H1    H     H_    0.511121 0.856781 0.812830 0.107056
H2    H     H_    0.018553 0.686978 0.803227 0.110672
H3    H     H_    0.267639 0.432089 0.815010 0.110570
H4    H     H_    0.459857 0.695176 0.735086 0.101044
H5    H     H_    0.178730 0.697565 0.733504 0.102518
H6    H     H_    0.168792 0.472352 0.730651 0.104038
H7    H     H_    0.487197 0.718218 0.817380 0.112724
H8    H     H_    0.163093 0.732660 0.813594 0.117911
H9    H     H_    0.130991 0.416265 0.809817 0.118617
H10   H     H_    0.787976 0.794133 0.795516 0.107618
H11   H     H_    0.268723 0.033630 0.787135 0.107341
H12   H     H_    0.991330 0.116115 0.770490 0.100696
H13   H     H_    0.595920 0.666554 0.216847 0.108359
H14   H     H_    0.337255 0.907203 0.213447 0.111524
H15   H     H_    0.040437 0.340301 0.227937 0.112461
H16   H     H_    0.660152 0.690386 0.133112 0.127456
H17   H     H_    0.312997 0.948725 0.129311 0.126120
H18   H     H_    0.997473 0.278990 0.144710 0.134275
H19   H     H_    0.519763 0.892561 0.282774 0.103211
H20   H     H_    0.107955 0.628802 0.280514 0.104203
H21   H     H_    0.342218 0.420828 0.281546 0.103323
H22   H     H_    0.758266 0.034109 0.138268 0.117086
H23   H     H_    0.958936 0.746587 0.142451 0.127582
H24   H     H_    0.212721 0.138815 0.151492 0.122738
H25   H     H_    0.723356 0.740102 0.290836 0.113958
H26   H     H_    0.258980 0.979957 0.290380 0.117306
H27   H     H_    0.992451 0.220865 0.307449 0.110701
H28   H     H_    0.473382 0.827236 0.730534 0.100296
H29   H     H_    0.038600 0.662337 0.722497 0.106447
H30   H     H_    0.300540 0.480453 0.734515 0.102124
H31   H     H_    0.684930 0.710457 0.378552 0.115066
H32   H     H_    0.288412 0.970614 0.378052 0.115475
H33   H     H_    0.019145 0.297206 0.389955 0.116391
H34   H     H_    0.800087 0.955141 0.715160 0.098650
H35   H     H_    0.131588 0.975931 0.701855 0.103603
H36   H     H_    0.165495 0.165316 0.703102 0.101728
H37   H     H_    0.700805 0.014276 0.797641 0.119586
H38   H     H_    0.959891 0.814553 0.770443 0.115316
H39   H     H_    0.300468 0.277071 0.791997 0.121397
H40   H     H_    0.818769 0.994950 0.794844 0.089444
H41   H     H_    0.045723 0.960787 0.773995 0.085272
H42   H     H_    0.187498 0.141152 0.782680 0.089998
H43   H     H_    0.614118 0.658980 0.725470 0.116363
H44   H     H_    0.332588 0.891439 0.732298 0.108632
H45   H     H_    0.996941 0.297964 0.712401 0.115741
H46   H     H_    0.753127 0.767052 0.714514 0.113079
H47   H     H_    0.313524 0.002057 0.710542 0.102144
H48   H     H_    0.999679 0.177078 0.692452 0.098616
H49   H     H_    0.651427 0.680870 0.807111 0.119057
H50   H     H_    0.307865 0.937218 0.809613 0.117946
H51   H     H_    0.960971 0.222146 0.789301 0.114560
O1    O     O_R   0.137310 0.468260 0.552980 -0.510277
O2    O     O_R   0.531740 0.669050 0.552980 -0.511093
O3    O     O_R   0.330950 0.862690 0.552980 -0.509745
O4    O     O_R   0.180530 0.983530 0.965090 -0.505124
O5    O     O_R   0.016470 0.197000 0.965090 -0.484994
O6    O     O_R   0.803000 0.819470 0.965090 -0.512601
O7    O     O_R   0.174120 0.688790 0.549730 -0.499535
O8    O     O_R   0.311210 0.485330 0.549730 -0.499844
O9    O     O_R   0.514670 0.825880 0.549730 -0.497110
O10   O     O_R   0.139940 0.470480 0.446230 -0.535658
O11   O     O_R   0.529520 0.669460 0.446230 -0.532710
O12   O     O_R   0.330540 0.860060 0.446230 -0.533114
O13   O     O_R   0.176560 0.690850 0.450770 -0.518041
O14   O     O_R   0.309150 0.485710 0.450770 -0.518659
O15   O     O_R   0.514290 0.823440 0.450770 -0.516421
O16   O     O_3   0.333333 0.666667 0.499990 -0.253245
O17   O     O_3   1.000000 0.000000 0.017910 -0.283324
O18   O     O_R   0.149710 0.171070 0.967700 -0.491484
O19   O     O_R   0.828930 0.978640 0.967700 -0.519562
O20   O     O_R   0.021360 0.850290 0.967700 -0.482579
O21   O     O_R   0.178510 0.985930 0.071830 -0.528844
O22   O     O_R   0.014070 0.192580 0.071830 -0.507179
O23   O     O_R   0.807420 0.821490 0.071830 -0.517752
O24   O     O_R   0.147830 0.173300 0.066650 -0.476715
O25   O     O_R   0.826700 0.974530 0.066650 -0.519498
O26   O     O_R   0.025470 0.852170 0.066650 -0.495645
C85   C     C_3   0.543767 0.960061 0.375890 -0.231551
C86   C     C_3   0.586540 0.067535 0.346463 -0.334341
C87   C     C_3   0.568369 0.152675 0.373828 -0.465942
H52   H     H_    0.479899 0.116937 0.384724 0.155064
H53   H     H_    0.621937 0.181618 0.406771 0.150738
H54   H     H_    0.589831 0.224429 0.349786 0.138093
H55   H     H_    0.676903 0.103438 0.339035 0.164781
H56   H     H_    0.540732 0.050727 0.311582 0.151726
H57   H     H_    0.452348 0.920569 0.378127 0.188214
H58   H     H_    0.582658 0.987108 0.412236 0.180108
C88   C     C_3   0.045389 0.580805 0.373668 -0.230481
C89   C     C_3   0.937373 0.515782 0.343928 -0.333871
C90   C     C_3   0.851931 0.413240 0.371113 -0.463816
H59   H     H_    0.888382 0.361088 0.381932 0.156918
H60   H     H_    0.822178 0.436979 0.404039 0.149470
H61   H     H_    0.780036 0.364014 0.346825 0.138404
H62   H     H_    0.900210 0.569044 0.336154 0.164722
H63   H     H_    0.954953 0.487105 0.309126 0.150151
H64   H     H_    0.088211 0.531619 0.374794 0.183764
H65   H     H_    0.016940 0.588801 0.410278 0.184636
C91   C     C_3   0.411317 0.451542 0.375268 -0.229008
C92   C     C_3   0.487494 0.424137 0.344169 -0.330941
C93   C     C_3   0.590864 0.442952 0.372246 -0.463450
H66   H     H_    0.636178 0.527903 0.387056 0.157937
H67   H     H_    0.567204 0.383082 0.402715 0.148740
H68   H     H_    0.647188 0.430931 0.347433 0.138720
H69   H     H_    0.441677 0.336047 0.332893 0.163318
H70   H     H_    0.515141 0.477269 0.311198 0.152276
H71   H     H_    0.449875 0.542261 0.378271 0.188688
H72   H     H_    0.407159 0.414173 0.411445 0.177077
C94   C     C_3   0.701976 0.044822 0.233528 -0.260732
C95   C     C_3   0.771510 0.158047 0.209581 -0.314266
C96   C     C_3   0.788530 0.251402 0.243918 -0.468666
H73   H     H_    0.707055 0.242496 0.254704 0.151398
H74   H     H_    0.834244 0.250825 0.277101 0.145208
H75   H     H_    0.837978 0.332118 0.225329 0.138982
H76   H     H_    0.853456 0.168146 0.200062 0.169233
H77   H     H_    0.729287 0.163804 0.176131 0.157101
H78   H     H_    0.618305 0.035045 0.239053 0.128266
H79   H     H_    0.741534 0.047412 0.269097 0.156800
C97   C     C_3   0.949695 0.676845 0.237140 -0.258961
C98   C     C_3   0.834631 0.636406 0.213873 -0.312266
C99   C     C_3   0.742344 0.552102 0.246639 -0.468798
H80   H     H_    0.750083 0.476706 0.250335 0.149000
H81   H     H_    0.747082 0.586979 0.283389 0.145227
H82   H     H_    0.659770 0.528170 0.230477 0.136811
H83   H     H_    0.821159 0.707784 0.207703 0.170866
H84   H     H_    0.828908 0.594828 0.178654 0.160157
H85   H     H_    0.955536 0.601847 0.244633 0.135727
H86   H     H_    0.951761 0.718089 0.272040 0.154221
C100  C     C_3   0.303489 0.218171 0.243054 -0.261244
C101  C     C_3   0.355621 0.158600 0.216099 -0.314765
C102  C     C_3   0.454936 0.166462 0.244153 -0.472829
H87   H     H_    0.523621 0.253482 0.245250 0.149128
H88   H     H_    0.431171 0.136713 0.282025 0.147969
H89   H     H_    0.485577 0.115621 0.225818 0.138257
H90   H     H_    0.291537 0.071155 0.211507 0.173397
H91   H     H_    0.386242 0.196614 0.179770 0.165897
H92   H     H_    0.372998 0.302873 0.248545 0.137583
H93   H     H_    0.272612 0.177980 0.279007 0.147371
C103  C     C_3   0.710434 0.039213 0.702469 -0.260501
C104  C     C_3   0.599457 0.038599 0.708208 -0.284718
C105  C     C_3   0.610767 0.149457 0.693574 -0.459050
H94   H     H_    0.670874 0.216064 0.717853 0.143612
H95   H     H_    0.639661 0.169526 0.655316 0.157055
H96   H     H_    0.528661 0.145380 0.696741 0.132874
H97   H     H_    0.536173 0.974705 0.683923 0.167759
H98   H     H_    0.569942 0.021046 0.746421 0.154840
H99   H     H_    0.779027 0.118424 0.716842 0.132733
H100  H     H_    0.727147 0.038018 0.662974 0.141777
C106  C     C_3   0.983761 0.844841 0.673635 -0.264531
C107  C     C_3   0.910004 0.719036 0.668827 -0.294704
C108  C     C_3   0.821346 0.689204 0.629436 -0.451722
H101  H     H_    0.771621 0.730637 0.635714 0.157932
H102  H     H_    0.861398 0.714486 0.593142 0.156353
H103  H     H_    0.764432 0.598532 0.629197 0.141969
H104  H     H_    0.960588 0.681429 0.657329 0.171796
H105  H     H_    0.869349 0.682644 0.704122 0.147383
H106  H     H_    0.931186 0.881941 0.683156 0.121022
H107  H     H_    0.019709 0.878465 0.637232 0.144609
C109  C     C_3   0.335951 0.280589 0.696453 -0.261555
C110  C     C_3   0.430750 0.398119 0.706894 -0.285085
C111  C     C_3   0.542869 0.410470 0.691968 -0.458731
H108  H     H_    0.560907 0.353565 0.713502 0.145728
H109  H     H_    0.542439 0.392018 0.652635 0.156368
H110  H     H_    0.610334 0.496192 0.698724 0.133233
H111  H     H_    0.417572 0.458317 0.685440 0.167191
H112  H     H_    0.434344 0.418132 0.746150 0.152372
H113  H     H_    0.360644 0.220216 0.709773 0.128302
H114  H     H_    0.326117 0.269421 0.656342 0.143621

loop_
_geom_bond_atom_site_label_1
_geom_bond_atom_site_label_2
_ccdc_geom_bond_type
C70   H37   S    
C58   C62   S    
C63   O21   A    
C54   C100  S    
C104  H98   S    
C93   H66   S    
Cr6   O26   S    
C94   H78   S    
C24   C42   A    
C86   C87   S    
C15   C18   T    
C107  C108  S    
C24   C27   A    
C95   H77   S    
C67   H34   S    
C6    C9    S    
C102  H88   S    
C88   C89   S    
C44   H14   S    
C72   H39   S    
C48   H18   S    
C109  C110  S    
C25   C28   A    
C103  H100  S    
C40   H31   S    
C45   C57   A    
C110  C111  S    
C33   C39   A    
C35   O10   A    
C5    H50   S    
C68   C77   S    
C50   C59   A    
C91   H72   S    
C35   O14   A    
C81   H3    S    
C7    H43   S    
C37   C40   A    
C4    C7    S    
C109  H114  S    
C5    C83   S    
C10   C73   T    
Cr4   O18   S    
C15   C78   S    
C2    C18   S    
C87   H52   S    
C111  H109  S    
C85   H58   S    
C70   H40   S    
C53   C97   S    
C64   H28   S    
C12   C84   S    
C105  H96   S    
C23   C26   A    
C104  H97   S    
C44   C56   A    
C103  C104  S    
C93   H68   S    
C101  H90   S    
C92   H69   S    
C62   O23   A    
Cr1   O7    S    
C45   H15   S    
C97   C98   S    
Cr3   O9    S    
C106  H107  S    
Cr2   O2    S    
C93   H67   S    
C86   H55   S    
Cr3   O12   S    
C72   H42   S    
C94   C95   S    
C103  H99   S    
C32   C38   A    
Cr3   O3    S    
C44   C47   A    
C79   H1    S    
C52   C55   A    
C2    O8    A    
C9    C78   S    
Cr1   O13   S    
C23   C34   S    
C111  H110  S    
C63   O26   A    
C95   C96   S    
C97   H85   S    
C65   C80   S    
C66   H30   S    
C46   C58   A    
C27   C30   A    
C14   C17   T    
C69   C78   S    
C92   C93   S    
Cr1   O16   S    
C60   C61   S    
C80   C83   S    
C108  H102  S    
C102  H87   S    
Cr2   O16   S    
C104  C105  S    
C90   H60   S    
C42   H33   S    
C48   C60   A    
C39   C42   A    
C71   C83   S    
C26   C88   S    
C25   C85   S    
C86   H56   S    
Cr5   O5    S    
C66   C78   S    
C5    H11   S    
C72   C84   S    
C24   C35   S    
C21   O20   A    
Cr6   O20   S    
C8    H44   S    
C43   H13   S    
C51   H24   S    
C29   H20   S    
Cr5   O17   S    
C6    C84   S    
C38   C41   A    
Cr2   O8    S    
C101  C102  S    
C14   C77   S    
C36   O11   A    
C81   H9    S    
C11   C83   S    
C111  H108  S    
C39   H27   S    
C47   C59   A    
C21   C74   S    
C10   C82   S    
C108  H103  S    
C49   C58   A    
Cr3   O16   S    
Cr6   O23   S    
C8    H47   S    
C45   C48   A    
C21   O4    A    
C41   H32   S    
Cr6   O17   S    
C69   C72   S    
Cr2   O14   S    
Cr1   O10   S    
Cr6   O6    S    
Cr2   O11   S    
C5    C8    S    
C65   C77   S    
C38   H26   S    
C9    H48   S    
C92   H70   S    
C69   C109  S    
C13   C76   S    
C65   H5    S    
Cr4   O4    S    
C49   C52   A    
C22   C40   A    
C106  H106  S    
C109  H113  S    
C98   C99   S    
C64   C76   S    
C20   O6    A    
C3    O2    A    
C98   H84   S    
C101  H91   S    
C6    H51   S    
C105  H95   S    
C80   H2    S    
C107  H104  S    
C49   H22   S    
C89   H63   S    
C88   H65   S    
C9    H45   S    
C43   C55   A    
C85   C86   S    
C62   O25   A    
C22   C25   A    
C19   O5    A    
C110  H112  S    
C34   O13   A    
C47   H17   S    
C4    H10   S    
C95   H76   S    
C2    O1    A    
C64   C79   S    
C71   H38   S    
C13   C16   T    
C52   C94   S    
C20   C73   S    
C100  H93   S    
C81   C84   S    
C90   H59   S    
C36   O15   A    
Cr5   O19   S    
C66   H6    S    
C89   H62   S    
C34   O12   A    
C97   H86   S    
C85   H57   S    
C106  C107  S    
C3    O9    A    
C33   C57   S    
C30   C33   A    
C80   H8    S    
C94   H79   S    
C61   O22   A    
C1    C17   S    
C79   H7    S    
C28   C31   A    
C11   C74   T    
Cr1   O1    S    
C69   H36   S    
C79   C82   S    
C90   H61   S    
C7    C76   S    
C37   H25   S    
C28   H19   S    
C29   C32   A    
C99   H82   S    
C22   C36   S    
C99   H81   S    
C98   H83   S    
C23   C41   A    
C96   H75   S    
C30   H21   S    
C107  H105  S    
C51   C54   A    
C19   O18   A    
C50   H23   S    
C51   C60   A    
C19   C75   S    
C64   H4    S    
C7    H46   S    
Cr4   O24   S    
C1    O3    A    
C68   C106  S    
C54   C57   A    
C66   C81   S    
Cr5   O22   S    
C100  C101  S    
C8    C77   S    
C87   H53   S    
C67   C103  S    
C96   H73   S    
C68   C71   S    
Cr4   O21   S    
C46   H16   S    
C108  H101  S    
C32   C56   S    
C59   C63   S    
C61   O24   A    
C27   C91   S    
C6    H12   S    
C105  H94   S    
C70   C82   S    
C43   C46   A    
C53   C56   A    
Cr5   O25   S    
C65   H29   S    
C71   H41   S    
C89   C90   S    
C88   H64   S    
C31   C37   A    
C110  H111  S    
C4    C82   S    
C91   H71   S    
C26   C29   A    
C96   H74   S    
C99   H80   S    
C20   O19   A    
C12   C75   T    
Cr3   O15   S    
C91   C92   S    
C1    O7    A    
Cr4   O17   S    
C67   C76   S    
C67   C70   S    
C31   C55   S    
C68   H35   S    
C100  H92   S    
C102  H89   S    
C3    C16   S    
C50   C53   A    
C4    H49   S    
C87   H54   S    
