data_mof_unit_36185.cif
_audit_creation_date              2012-12-10T20:40:56-0500
_audit_creation_method            fapswitch 2.2
_symmetry_space_group_name_H-M    P1
_symmetry_Int_Tables_number       1
_space_group_crystal_system       triclinic
_cell_length_a                    27.740831
_cell_length_b                    10.667824
_cell_length_c                    9.836345
_cell_angle_alpha                 89.967151
_cell_angle_beta                  89.839939
_cell_angle_gamma                 90.062884
_cell_volume                      2910.89830357

loop_
_atom_site_label
_atom_site_type_symbol
_atom_type_description
_atom_site_fract_x
_atom_site_fract_y
_atom_site_fract_z
_atom_type_partial_charge
C1    C     C_R   0.501454 0.259833 0.500005 0.877673
C2    C     C_R   0.278059 0.467769 0.619517 -0.099793
C3    C     C_R   0.253011 0.499775 0.501534 0.318991
C4    C     C_R   0.101925 0.503019 0.518158 -0.051779
C5    C     C_R   0.127082 0.388501 0.512827 -0.021261
C6    C     C_R   0.101659 0.275690 0.514808 -0.135843
C7    C     C_R   0.127901 0.616506 0.515292 -0.021563
C8    C     C_R   0.353395 0.499376 0.500181 -0.042641
C9    C     C_R   0.647050 0.499074 0.501038 -0.066194
C10   C     C_R   0.974559 0.389892 0.545844 0.046698
C11   C     C_R   0.974955 0.620985 0.526291 0.046722
C12   C     C_R   0.406017 0.499818 0.500080 0.878882
C13   C     C_R   0.949544 0.505737 0.537651 0.070687
C14   C     C_R   0.947597 0.278784 0.566486 -0.215355
C15   C     C_R   0.897660 0.280498 0.569571 -0.137212
C16   C     C_R   0.872746 0.392958 0.553463 -0.022585
C17   C     C_R   0.898473 0.506143 0.539400 -0.051929
C18   C     C_R   0.872993 0.619532 0.525567 -0.022590
C19   C     C_R   0.822588 0.617212 0.522463 0.506953
C20   C     C_R   0.822369 0.394983 0.550400 0.506113
C21   C     C_R   0.726074 0.459064 0.403810 -0.135425
C22   C     C_R   0.675857 0.455030 0.390734 0.064980
C23   C     C_R   0.501721 0.740116 0.499920 0.889443
C24   C     C_R   0.669520 0.545020 0.619113 -0.246806
C25   C     C_R   0.719270 0.547798 0.629466 -0.105764
C26   C     C_R   0.747440 0.504589 0.522185 0.297061
C27   C     C_R   0.025422 0.388653 0.533095 0.046842
C28   C     C_R   0.050923 0.504030 0.526247 0.070307
C29   C     C_R   0.026048 0.620378 0.526951 0.046613
C30   C     C_R   0.051816 0.275472 0.524362 -0.214658
C31   C     C_R   0.103302 0.730288 0.521700 -0.135305
C32   C     C_R   0.948151 0.733077 0.512345 -0.214468
C33   C     C_R   0.898184 0.732073 0.512206 -0.137292
C34   C     C_R   0.594107 0.498629 0.499607 0.857020
C35   C     C_R   0.053385 0.732479 0.527901 -0.214402
C36   C     C_R   0.511629 0.063898 0.622765 0.143373
C37   C     C_R   0.509408 0.128553 0.499985 -0.105318
C38   C     C_R   0.516645 0.064821 0.376978 -0.232135
C39   C     C_R   0.517117 0.935364 0.377002 -0.218815
C40   C     C_R   0.509921 0.871357 0.499974 -0.101061
C41   C     C_R   0.511904 0.935976 0.622794 0.125030
C42   C     C_3   0.479689 0.928240 0.744665 -0.469170
C43   C     C_3   0.479224 0.070285 0.744280 -0.485748
C44   C     C_R   0.478211 0.404950 0.071728 0.200248
C45   C     C_R   0.177420 0.389640 0.505140 0.504150
C46   C     C_R   0.525502 0.586809 0.071826 -0.141531
C47   C     C_R   0.525512 0.586812 0.927625 -0.132152
C48   C     C_R   0.478013 0.405292 0.928912 0.215534
C49   C     C_3   0.425794 0.372446 0.924924 -0.518016
C50   C     C_3   0.426281 0.370207 0.079051 -0.486210
C51   C     C_R   0.178247 0.613315 0.507944 0.505007
C52   C     C_R   0.277894 0.531158 0.382526 -0.095792
C53   C     C_R   0.328010 0.530705 0.381614 -0.215900
C54   C     C_R   0.328079 0.467618 0.618969 -0.216988
H1    H     H_    0.346802 0.441669 0.710892 0.151623
H2    H     H_    0.258356 0.555903 0.291230 0.140144
H3    H     H_    0.122567 0.818710 0.522116 0.190952
H4    H     H_    0.964537 0.823570 0.497568 0.138612
H5    H     H_    0.648536 0.579903 0.704087 0.166932
H6    H     H_    0.879350 0.820314 0.500208 0.190369
H7    H     H_    0.736024 0.583098 0.721121 0.145041
H8    H     H_    0.037477 0.824175 0.535724 0.137830
H9    H     H_    0.518201 0.113719 0.280562 0.174887
H10   H     H_    0.519294 0.886574 0.280608 0.166429
H11   H     H_    0.443965 0.885985 0.721549 0.213166
H12   H     H_    0.258657 0.443381 0.711513 0.139277
H13   H     H_    0.498441 0.887817 0.834272 0.199572
H14   H     H_    0.443264 0.110374 0.720129 0.203463
H15   H     H_    0.497515 0.112096 0.833919 0.203632
H16   H     H_    0.545287 0.658278 0.126227 0.143281
H17   H     H_    0.545313 0.658265 0.872844 0.143793
H18   H     H_    0.403526 0.449833 0.883390 0.215676
H19   H     H_    0.419197 0.278942 0.879063 0.199601
H20   H     H_    0.403651 0.444775 0.125384 0.217940
H21   H     H_    0.420897 0.274927 0.122346 0.204742
H22   H     H_    0.120205 0.186510 0.508695 0.190341
H23   H     H_    0.749103 0.425722 0.322349 0.135365
H24   H     H_    0.878634 0.192669 0.583763 0.190469
H25   H     H_    0.963922 0.188499 0.582602 0.139160
H26   H     H_    0.035071 0.184437 0.521358 0.137952
H27   H     H_    0.346802 0.556094 0.288973 0.153997
N1    N     N_R   0.201703 0.500975 0.503406 -0.358760
N2    N     N_R   0.798605 0.505840 0.533346 -0.353573
N3    N     N_R   0.499670 0.499140 0.142800 -0.106186
N4    N     N_R   0.499670 0.499180 0.857150 -0.104345
O1    O     O_R   0.500010 0.316790 0.614690 -0.614966
O2    O     O_2   0.797211 0.287226 0.563622 -0.556193
O3    O     O_2   0.203678 0.721286 0.506637 -0.550513
O4    O     O_2   0.797672 0.724862 0.506734 -0.554834
O5    O     O_R   0.500000 0.316760 0.385350 -0.622776
O6    O     O_R   0.428760 0.500040 0.614660 -0.620301
O7    O     O_R   0.428750 0.500000 0.385310 -0.619194
O8    O     O_R   0.500000 0.683240 0.614650 -0.620326
O9    O     O_R   0.499990 0.683210 0.385310 -0.624038
O10   O     O_R   0.571250 0.500000 0.614690 -0.620010
O11   O     O_R   0.571240 0.499960 0.385340 -0.623096
O12   O     O_2   0.202028 0.280637 0.499465 -0.550634
Zn1   Zn    Zn3+2 0.500000 0.500020 0.653130 0.948103
Zn2   Zn    Zn3+2 0.500000 0.499980 0.346870 0.941824
C55   C     C_3   0.655498 0.401478 0.259866 -0.409299
C56   C     C_3   0.633619 0.270771 0.281926 -0.291165
C57   C     C_3   0.611053 0.221174 0.151206 -0.871190
H28   H     H_    0.580174 0.281116 0.120796 0.259995
H29   H     H_    0.638126 0.219614 0.067805 0.264788
H30   H     H_    0.597849 0.124094 0.167735 0.243702
H31   H     H_    0.662416 0.205156 0.314971 0.229938
H32   H     H_    0.605568 0.272799 0.362534 0.224049
H33   H     H_    0.629220 0.467116 0.213837 0.227120
H34   H     H_    0.684563 0.392375 0.182321 0.191009

loop_
_geom_bond_atom_site_label_1
_geom_bond_atom_site_label_2
_ccdc_geom_bond_type
C10   C27   A    
C56   H32   S    
C44   C48   A    
C21   C26   A    
O11   Zn2   S    
C40   C41   A    
C1    O5    A    
C41   C42   S    
C12   O6    A    
C45   N1    A    
C32   H4    S    
O10   Zn1   S    
C39   H10   S    
C56   C57   S    
C26   N2    S    
C47   N4    A    
C36   C37   A    
C34   O11   A    
C50   H20   S    
C5    C6    A    
C9    C22   A    
C15   H24   S    
C23   C40   S    
C20   O2    S    
C56   H31   S    
C57   H30   S    
C53   H27   S    
C18   C19   A    
N4    Zn1   S    
C46   C47   A    
C16   C17   A    
C49   H18   S    
C42   H11   S    
C16   C20   A    
C30   H26   S    
C55   H34   S    
C43   H15   S    
C21   C22   A    
C27   C30   A    
C36   C41   A    
C4    C7    A    
C19   N2    A    
C4    C28   A    
C55   H33   S    
C7    C31   A    
C22   C55   S    
C24   C25   A    
C2    C54   A    
C8    C54   A    
C39   C40   A    
C43   H14   S    
C44   N3    A    
C25   C26   A    
C5    C45   A    
C23   O8    A    
C8    C53   A    
C37   C38   A    
C19   O4    S    
C8    C12   S    
C3    N1    S    
C17   C18   A    
C25   H7    S    
C14   H25   S    
C34   O10   A    
C57   H29   S    
C51   N1    A    
C47   H17   S    
C46   N3    A    
C48   C49   S    
C6    C30   A    
C11   C32   A    
C33   H6    S    
C10   C14   A    
C42   H13   S    
C49   H19   S    
C42   C43   S    
O5    Zn2   S    
C52   C53   A    
C38   H9    S    
C44   C50   S    
C1    O1    A    
C54   H1    S    
C28   C29   A    
C14   C15   A    
N3    Zn2   S    
C12   O7    A    
C4    C5    A    
C2    H12   S    
C10   C13   A    
C51   O3    S    
C3    C52   A    
C9    C24   A    
C6    H22   S    
C1    C37   S    
C29   C35   A    
C23   O9    A    
C13   C17   A    
C32   C33   A    
C31   H3    S    
C2    C3    A    
C7    C51   A    
C45   O12   S    
C50   H21   S    
C11   C13   A    
C38   C39   A    
O9    Zn2   S    
C24   H5    S    
C55   C56   S    
C9    C34   S    
C35   H8    S    
C31   C35   A    
O6    Zn1   S    
C57   H28   S    
O1    Zn1   S    
C18   C33   A    
C46   H16   S    
C52   H2    S    
C11   C29   A    
C49   C50   S    
C20   N2    A    
C21   H23   S    
C27   C28   A    
C48   N4    A    
C36   C43   S    
O8    Zn1   S    
C15   C16   A    
O7    Zn2   S    
