data_mof_unit_13499.cif
_audit_creation_date              2012-12-11T17:39:37-0500
_audit_creation_method            fapswitch 2.2
_symmetry_space_group_name_H-M    P1
_symmetry_Int_Tables_number       1
_space_group_crystal_system       triclinic
_cell_length_a                    15.156001
_cell_length_b                    15.148987
_cell_length_c                    14.900204
_cell_angle_alpha                 108.676675
_cell_angle_beta                  109.714706
_cell_angle_gamma                 110.540704
_cell_volume                      2616.0266591

loop_
_atom_site_label
_atom_site_type_symbol
_atom_type_description
_atom_site_fract_x
_atom_site_fract_y
_atom_site_fract_z
_atom_type_partial_charge
C1    C     C_R   0.908265 0.976663 0.719846 -0.115247
C2    C     C_R   0.908689 0.699949 0.500962 -0.151800
C3    C     C_R   0.751194 0.779766 0.186787 -0.122132
C4    C     C_R   0.092186 0.314626 0.556684 -0.145267
C5    C     C_R   0.261026 0.947814 0.536662 -0.136459
C6    C     C_R   0.724899 0.677916 0.176308 0.130745
C7    C     C_R   0.291663 0.971780 0.465530 0.054193
C8    C     C_R   0.999317 0.695355 0.554393 0.054345
C9    C     C_R   0.997725 0.051496 0.189038 0.054252
C10   C     C_R   0.491897 0.606534 0.319218 -0.092288
C11   C     C_R   0.479556 0.694835 0.325130 -0.144392
C12   C     C_R   0.999670 0.322486 0.537238 0.044433
C13   C     C_R   0.451776 0.743355 0.400268 0.117072
C14   C     C_R   0.428615 0.696307 0.463151 -0.162363
C15   C     C_R   0.436014 0.604445 0.452865 -0.110431
C16   C     C_R   0.301311 0.208565 0.800054 -0.135754
C17   C     C_R   0.468618 0.560239 0.381592 -0.088421
C18   C     C_R   0.370448 0.859991 0.426880 -0.246674
C19   C     C_R   0.372504 0.957498 0.444695 0.042249
C20   C     C_R   0.456551 0.042541 0.450280 0.070074
C21   C     C_R   0.539370 0.029883 0.444444 -0.140136
C22   C     C_R   0.539860 0.934908 0.429922 0.032609
C23   C     C_R   0.363808 0.301749 0.802588 0.131806
C24   C     C_R   0.454047 0.846726 0.418247 0.027438
C25   C     C_R   0.462404 0.171484 0.378389 0.590823
C26   C     C_R   0.475979 0.272640 0.392347 -0.306887
C27   C     C_R   0.490235 0.347328 0.488305 -0.163370
C28   C     C_R   0.698870 0.996382 0.405258 -0.162611
C29   C     C_R   0.493700 0.323157 0.571872 -0.100947
C30   C     C_R   0.482686 0.224068 0.560134 -0.201322
C31   C     C_R   0.465241 0.147085 0.462935 -0.055892
C32   C     C_R   0.802424 0.181678 0.178847 -0.116976
C33   C     C_R   0.875312 0.272581 0.284012 -0.113391
C34   C     C_R   0.639155 0.940708 0.440534 0.055161
C35   C     C_R   0.835697 0.314321 0.349405 0.097164
C36   C     C_R   0.722322 0.265382 0.307127 -0.175620
C37   C     C_R   0.649906 0.174416 0.202055 -0.087665
C38   C     C_R   0.689847 0.132360 0.138085 -0.122577
C39   C     C_R   0.910978 0.504003 0.473741 -0.236418
C40   C     C_R   0.301287 0.299909 0.709031 -0.133760
C41   C     C_R   0.994294 0.603909 0.566472 0.064687
C42   C     C_R   0.076139 0.612049 0.655911 0.023669
C43   C     C_R   0.073139 0.516378 0.646238 -0.249618
C44   C     C_R   0.993855 0.417591 0.549015 0.072501
C45   C     C_R   0.751020 0.687743 0.278446 -0.157794
C46   C     C_R   0.912475 0.411353 0.460966 0.019962
C47   C     C_R   0.276747 0.741720 0.792064 -0.169071
C48   C     C_R   0.364259 0.846446 0.873905 -0.101573
C49   C     C_R   0.344685 0.929107 0.917117 -0.115021
C50   C     C_R   0.237653 0.906239 0.882612 -0.136293
C51   C     C_R   0.149731 0.800523 0.804970 -0.144395
C52   C     C_R   0.699087 0.909389 0.500812 -0.139059
C53   C     C_R   0.168244 0.718208 0.754671 0.118762
C54   C     C_2   0.535887 0.466406 0.879545 -0.122615
C55   C     C_2   0.478585 0.379325 0.884047 -0.198464
C56   C     C_R   0.252109 0.033933 0.438858 -0.111164
C57   C     C_2   0.628455 0.567657 0.978296 -0.119716
C58   C     C_2   0.674055 0.575862 0.076661 -0.199193
C59   C     C_R   0.388070 0.348703 0.120510 -0.145836
C60   C     C_R   0.294688 0.276020 0.113132 -0.172944
C61   C     C_R   0.191581 0.256953 0.045736 0.122402
C62   C     C_R   0.184403 0.315570 0.989565 -0.142043
C63   C     C_R   0.278179 0.389420 0.998494 -0.074888
C64   C     C_R   0.909014 0.219808 0.474023 -0.108024
C65   C     C_R   0.379711 0.405267 0.063169 -0.103314
C66   C     C_R   0.087593 0.161076 0.118188 -0.224452
C67   C     C_R   0.090954 0.787307 0.584622 -0.128245
C68   C     C_R   0.993039 0.077687 0.101058 0.056680
C69   C     C_R   0.895172 0.020527 0.998316 0.002625
C70   C     C_R   0.896379 0.047604 0.918324 -0.214316
C71   C     C_R   0.995736 0.101870 0.924561 0.046017
C72   C     C_R   0.090769 0.172542 0.029224 0.021414
C73   C     C_R   0.809948 0.822289 0.930544 -0.120472
C74   C     C_R   0.717320 0.718090 0.861632 -0.140957
C75   C     C_R   0.613169 0.704670 0.819019 -0.113708
C76   C     C_R   0.090542 0.066075 0.812732 -0.143501
C77   C     C_R   0.601516 0.795424 0.846003 -0.099616
C78   C     C_R   0.908924 0.998246 0.197750 -0.141764
C79   C     C_R   0.694008 0.899944 0.913693 -0.193157
C80   C     C_R   0.799187 0.914223 0.955800 0.112385
C81   C     C_R   0.999574 0.055723 0.822983 0.054984
C82   C     C_3   0.364021 0.061373 0.187518 0.143149
C83   C     C_3   0.255634 0.011112 0.185951 -0.336612
C84   C     C_3   0.155980 0.946601 0.071114 -0.978771
C85   C     C_R   0.090183 0.089575 0.287016 -0.131887
H1    H     H_    0.823788 0.945589 0.695956 0.095411
H2    H     H_    0.521529 0.575410 0.267647 0.109516
H3    H     H_    0.496585 0.728340 0.274676 0.119900
H4    H     H_    0.176245 0.379979 0.600644 0.097546
H5    H     H_    0.407793 0.732255 0.522256 0.107818
H6    H     H_    0.418844 0.569040 0.501943 0.101410
H7    H     H_    0.303736 0.794733 0.420142 0.133777
H8    H     H_    0.607529 0.098585 0.456675 0.132354
H9    H     H_    0.477831 0.294487 0.330362 0.120993
H10   H     H_    0.500782 0.425104 0.499245 0.123560
H11   H     H_    0.506367 0.381994 0.646424 0.110369
H12   H     H_    0.261014 0.067106 0.386739 0.095398
H13   H     H_    0.487107 0.206931 0.626238 0.145314
H14   H     H_    0.633456 0.061943 0.056768 0.097525
H15   H     H_    0.330695 0.178025 0.852787 0.095843
H16   H     H_    0.833217 0.149705 0.128883 0.116903
H17   H     H_    0.962377 0.310138 0.314737 0.113995
H18   H     H_    0.690312 0.297033 0.356005 0.130007
H19   H     H_    0.562841 0.136703 0.170173 0.124528
H20   H     H_    0.850877 0.499133 0.404029 0.129332
H21   H     H_    0.134383 0.518911 0.712797 0.128897
H22   H     H_    0.293926 0.680429 0.755049 0.102492
H23   H     H_    0.175581 0.813312 0.634013 0.113668
H24   H     H_    0.447444 0.864575 0.901983 0.099377
H25   H     H_    0.412454 0.010971 0.977312 0.088713
H26   H     H_    0.222955 0.970929 0.915209 0.117577
H27   H     H_    0.671018 0.021351 0.346118 0.122166
H28   H     H_    0.067258 0.784624 0.779059 0.122132
H29   H     H_    0.502045 0.473377 0.807344 0.104555
H30   H     H_    0.510174 0.369685 0.954774 0.127300
H31   H     H_    0.643557 0.640043 0.972516 0.138814
H32   H     H_    0.662574 0.505326 0.085932 0.128098
H33   H     H_    0.452253 0.462792 0.070276 0.110267
H34   H     H_    0.826137 0.977496 0.148676 0.107844
H35   H     H_    0.467087 0.361871 0.171398 0.099176
H36   H     H_    0.302377 0.233033 0.157985 0.104209
H37   H     H_    0.106017 0.303079 0.937777 0.113740
H38   H     H_    0.272032 0.433678 0.954521 0.110331
H39   H     H_    0.328885 0.351816 0.676933 0.082266
H40   H     H_    0.160240 0.213398 0.198768 0.122802
H41   H     H_    0.820323 0.004430 0.841736 0.127010
H42   H     H_    0.889956 0.831315 0.958206 0.113506
H43   H     H_    0.726251 0.647645 0.839950 0.121280
H44   H     H_    0.541511 0.623982 0.764470 0.089832
H45   H     H_    0.172748 0.151018 0.317895 0.086242
H46   H     H_    0.520860 0.784568 0.810772 0.098344
H47   H     H_    0.684049 0.969623 0.928149 0.107296
H48   H     H_    0.671942 0.855850 0.531527 0.112117
H49   H     H_    0.824644 0.197097 0.444829 0.112329
H50   H     H_    0.175342 0.116757 0.876359 0.117084
H51   H     H_    0.740877 0.623924 0.298846 0.095529
H52   H     H_    0.361474 0.997130 0.122712 0.160075
H53   H     H_    0.374196 0.126740 0.166485 0.078565
H54   H     H_    0.254711 0.956660 0.221374 0.218866
H55   H     H_    0.249468 0.077881 0.235998 0.178281
H56   H     H_    0.825459 0.646892 0.477599 0.096285
H57   H     H_    0.154003 0.999251 0.033970 0.264406
H58   H     H_    0.081151 0.915674 0.076742 0.267698
H59   H     H_    0.156326 0.875883 0.018616 0.274858
H60   H     H_    0.742074 0.801410 0.123349 0.105987
H61   H     H_    0.282598 0.904227 0.576500 0.099002
H62   H     H_    0.476701 0.490666 0.374976 0.097477
N1    N     N_R   0.941940 0.944580 0.650780 -0.042816
N2    N     N_R   0.204460 0.150250 0.707090 -0.042721
N3    N     N_R   0.794270 0.003240 0.446420 -0.039552
N4    N     N_R   0.204920 0.207570 0.650770 -0.042199
N5    N     N_R   0.793810 0.945920 0.502740 -0.039931
N6    N     N_R   0.943620 0.152590 0.446420 -0.041899
N7    N     N_R   0.055110 0.000900 0.707100 -0.041944
N8    N     N_R   0.795080 0.792430 0.349230 -0.039345
N9    N     N_R   0.206190 0.054080 0.497260 -0.041324
N10   N     N_R   0.056380 0.847410 0.553580 -0.039161
N11   N     N_R   0.944890 0.999100 0.292900 -0.039486
N12   N     N_R   0.058060 0.055420 0.349220 -0.039244
N13   N     N_R   0.943200 0.791100 0.497260 -0.036074
N14   N     N_R   0.795540 0.849750 0.292910 -0.044655
N15   N     N_R   0.205730 0.996760 0.553580 -0.041382
N16   N     N_R   0.056800 0.208900 0.502740 -0.040347
Ni1   Ni    Ni4+2 0.869690 0.869690 0.500000 0.213712
Ni2   Ni    Ni4+2 0.130310 0.130310 0.500000 0.211042
Ni3   Ni    Ni4+2 0.129250 0.998840 0.629170 0.213466
Ni4   Ni    Ni4+2 0.870750 0.001160 0.370830 0.217912
O1    O     O_3   0.456132 0.098457 0.287976 -0.686371

loop_
_geom_bond_atom_site_label_1
_geom_bond_atom_site_label_2
_ccdc_geom_bond_type
C25   C31   A    
C66   C68   A    
C63   C65   A    
C28   N3    A    
C59   H35   S    
C6    C45   A    
C27   C29   A    
C41   C42   A    
C6    C58   S    
C27   H10   S    
C35   C36   A    
C56   N9    A    
C3    C6    A    
C83   H54   S    
C39   C41   A    
C82   O1    S    
N8    N14   A    
C74   H43   S    
C26   C27   A    
C37   C38   A    
C21   H8    S    
N6    N16   A    
C36   H18   S    
C18   C24   A    
N13   Ni1   S    
C36   C37   A    
N16   Ni2   S    
C82   H52   S    
N2    N4    A    
C42   C53   S    
C30   C31   A    
C12   C64   A    
C67   H23   S    
C79   H47   S    
C10   C17   A    
C1    C81   A    
C23   C40   A    
N14   Ni4   S    
C39   H20   S    
C18   C19   A    
C77   H46   S    
C14   H5    S    
C9    C85   A    
N15   Ni3   S    
C78   N11   A    
C66   C72   A    
C83   C84   S    
C68   C69   A    
C65   H33   S    
C70   C71   A    
C45   N8    A    
C32   C38   A    
C4    C12   A    
C29   C30   A    
C61   C62   A    
C47   C53   A    
C70   H41   S    
C48   H24   S    
N9    N15   A    
C59   C60   A    
C13   C14   A    
N6    Ni4   S    
C52   H48   S    
C69   C70   A    
N1    N7    A    
C56   H12   S    
C40   H39   S    
C83   H55   S    
C76   H50   S    
C44   C46   A    
N11   Ni4   S    
C57   H31   S    
C77   C79   A    
C25   O1    S    
C22   C34   S    
C64   H49   S    
C10   H2    S    
C74   C75   A    
C33   H17   S    
N1    Ni1   S    
C8    C41   S    
C5    C7    A    
C16   H15   S    
C84   H58   S    
C25   C26   A    
C73   H42   S    
C15   H6    S    
C64   N6    A    
C82   C83   S    
C58   H32   S    
C28   H27   S    
N12   Ni2   S    
C13   C24   S    
C60   C61   A    
C51   C53   A    
C43   H21   S    
C76   C81   A    
C43   C44   A    
C62   C63   A    
N3    N5    A    
C85   H45   S    
C37   H19   S    
C47   C48   A    
C84   H57   S    
C11   H3    S    
C52   N5    A    
C50   C51   A    
C4    N16   A    
C67   N10   A    
N5    Ni1   S    
C75   C77   A    
C16   N2    A    
C39   C46   A    
C61   C72   S    
C48   C49   A    
C3    H60   S    
N10   N13   A    
C47   H22   S    
C26   H9    S    
N11   N12   A    
C22   C24   A    
C42   C43   A    
C73   C74   A    
C62   H37   S    
C4    H4    S    
C1    H1    S    
C15   C17   A    
C54   C55   D    
C45   H51   S    
C5    H61   S    
C17   H62   S    
C32   H16   S    
C34   C52   A    
C51   H28   S    
C2    C8    A    
N2    Ni3   S    
C38   H14   S    
C1    N1    A    
N10   Ni3   S    
C29   H11   S    
C63   H38   S    
C23   C55   S    
N8    Ni1   S    
C16   C23   A    
C30   H13   S    
C7    C19   S    
C66   H40   S    
C18   H7    S    
C32   C33   A    
C19   C20   A    
C78   H34   S    
C9    C68   S    
C71   C72   A    
C12   C44   S    
N4    Ni2   S    
C5    N15   A    
C11   C13   A    
C57   C58   D    
C55   H30   S    
N9    Ni2   S    
N3    Ni4   S    
C54   H29   S    
C76   N7    A    
C50   H26   S    
C33   C35   A    
C73   C80   A    
C82   H53   S    
C7    C56   A    
C9    C78   A    
C60   H36   S    
C10   C11   A    
C3    N14   A    
C28   C34   A    
C79   C80   A    
C20   C21   A    
C40   N4    A    
C8    C67   A    
C2    N13   A    
C49   C50   A    
C2    H56   S    
C84   H59   S    
C14   C15   A    
N7    Ni3   S    
C69   C80   S    
C85   N12   A    
C21   C22   A    
C35   C46   S    
C54   C57   S    
C59   C65   A    
C75   H44   S    
C49   H25   S    
C71   C81   S    
C20   C31   S    
