data_mof_unit_20315.cif
_audit_creation_date              2012-12-10T18:04:41-0500
_audit_creation_method            fapswitch 2.2
_symmetry_space_group_name_H-M    P1
_symmetry_Int_Tables_number       1
_space_group_crystal_system       triclinic
_cell_length_a                    19.497421
_cell_length_b                    17.907485
_cell_length_c                    12.598868
_cell_angle_alpha                 90.000058
_cell_angle_beta                  99.088932
_cell_angle_gamma                 89.999672
_cell_volume                      4343.66092561

loop_
_atom_site_label
_atom_site_type_symbol
_atom_type_description
_atom_site_fract_x
_atom_site_fract_y
_atom_site_fract_z
_atom_type_partial_charge
C1    C     C_R   0.409041 0.100460 0.442443 0.846712
C2    C     C_R   0.701498 0.698949 0.594371 0.034992
C3    C     C_R   0.201497 0.801050 0.594377 0.035008
C4    C     C_R   0.201467 0.198928 0.594316 0.035017
C5    C     C_R   0.228635 0.872436 0.588278 -0.229793
C6    C     C_R   0.228608 0.127543 0.588202 -0.229735
C7    C     C_R   0.728634 0.372436 0.588269 -0.229828
C8    C     C_R   0.728630 0.627560 0.588255 -0.229824
C9    C     C_R   0.277126 0.885758 0.521802 -0.216878
C10   C     C_R   0.277114 0.114236 0.521750 -0.216911
C11   C     C_R   0.777123 0.385757 0.521792 -0.216861
C12   C     C_R   0.409037 0.899544 0.442441 0.846719
C13   C     C_R   0.777121 0.614242 0.521781 -0.216861
C14   C     C_R   0.689490 0.174110 0.529137 -0.264056
C15   C     C_R   0.689492 0.825891 0.529142 -0.264055
C16   C     C_R   0.189487 0.674113 0.529134 -0.264057
C17   C     C_R   0.189488 0.325885 0.529146 -0.264051
C18   C     C_R   0.618939 0.218190 0.657876 -0.268170
C19   C     C_R   0.618934 0.781806 0.657867 -0.268170
C20   C     C_R   0.118933 0.718193 0.657872 -0.268178
C21   C     C_R   0.118893 0.281774 0.657809 -0.268188
C22   C     C_R   0.359227 0.839753 0.408358 -0.117755
C23   C     C_R   0.909038 0.600458 0.442441 0.846718
C24   C     C_R   0.359240 0.160261 0.408366 -0.117738
C25   C     C_R   0.859229 0.339750 0.408359 -0.117752
C26   C     C_R   0.859232 0.660252 0.408360 -0.117752
C27   C     C_R   0.643239 0.999999 0.133152 -0.307731
C28   C     C_R   0.143239 0.500002 0.133152 -0.307744
C29   C     C_R   0.378551 0.000002 0.762160 0.040856
C30   C     C_R   0.878551 0.500000 0.762160 0.040849
C31   C     C_R   0.352565 0.999999 0.858289 -0.273370
C32   C     C_R   0.852565 0.500001 0.858289 -0.273415
C33   C     C_R   0.589893 0.898996 0.556914 0.893217
C34   C     C_R   0.909038 0.399543 0.442441 0.846712
C35   C     C_R   0.589894 0.101003 0.556914 0.893209
C36   C     C_R   0.089891 0.398993 0.556912 0.893199
C37   C     C_R   0.089893 0.601004 0.556914 0.893217
C38   C     C_R   0.398710 0.999996 0.954328 -0.190429
C39   C     C_R   0.898710 0.500000 0.954328 -0.190420
C40   C     C_R   0.471346 0.999997 0.953878 0.018563
C41   C     C_R   0.971346 0.500000 0.953878 0.018570
C42   C     C_R   0.494950 0.999998 0.853673 0.230663
C43   C     C_R   0.994950 0.500000 0.853673 0.230671
C44   C     C_R   0.521242 0.999997 0.048131 -0.013703
C45   C     C_R   0.720207 0.243879 0.525535 0.031260
C46   C     C_R   0.021242 0.500000 0.048131 -0.013698
C47   C     C_R   0.593358 0.999997 0.040528 0.195855
C48   C     C_R   0.093358 0.500002 0.040528 0.195851
C49   C     C_R   0.614914 0.999997 0.940676 -0.289598
C50   C     C_R   0.114914 0.500002 0.940676 -0.289643
C51   C     C_R   0.566155 0.999998 0.848413 -0.209212
C52   C     C_R   0.066155 0.500001 0.848413 -0.209236
C53   C     C_R   0.502608 0.999998 0.150540 -0.053490
C54   C     C_R   0.002608 0.499999 0.150540 -0.053491
C55   C     C_R   0.621212 1.000000 0.232148 0.016004
C56   C     C_R   0.720207 0.756121 0.525535 0.031262
C57   C     C_R   0.121212 0.500001 0.232148 0.016010
C58   C     C_R   0.653870 0.286242 0.665383 0.514579
C59   C     C_R   0.653864 0.713752 0.665371 0.514586
C60   C     C_R   0.153862 0.786246 0.665375 0.514504
C61   C     C_R   0.153809 0.213713 0.665282 0.514352
C62   C     C_R   0.635515 0.163550 0.586981 -0.134035
C63   C     C_R   0.635514 0.836448 0.586980 -0.134035
C64   C     C_R   0.135512 0.663552 0.586979 -0.134014
C65   C     C_R   0.135500 0.336435 0.586969 -0.133964
C66   C     C_R   0.374511 0.787495 0.332630 -0.187163
C67   C     C_R   0.220202 0.743883 0.525532 0.031255
C68   C     C_R   0.374545 0.212534 0.332674 -0.187158
C69   C     C_R   0.874518 0.287490 0.332636 -0.187161
C70   C     C_R   0.874525 0.712515 0.332645 -0.187159
C71   C     C_R   0.335806 0.722383 0.314931 -0.152443
C72   C     C_R   0.335848 0.277654 0.314992 -0.152434
C73   C     C_R   0.835816 0.222376 0.314941 -0.152437
C74   C     C_R   0.835824 0.777632 0.314953 -0.152437
C75   C     C_R   0.284307 0.706822 0.376671 -0.185538
C76   C     C_R   0.284336 0.293204 0.376714 -0.185544
C77   C     C_R   0.784316 0.206815 0.376680 -0.185532
C78   C     C_R   0.220196 0.256112 0.525518 0.031256
C79   C     C_R   0.784322 0.793191 0.376690 -0.185532
C80   C     C_R   0.268383 0.758528 0.454700 0.121410
C81   C     C_R   0.268392 0.241481 0.454706 0.121408
C82   C     C_R   0.768388 0.258524 0.454703 0.121411
C83   C     C_R   0.768391 0.741479 0.454705 0.121412
C84   C     C_R   0.301775 0.828430 0.461715 0.100418
C85   C     C_R   0.301778 0.171576 0.461702 0.100412
C86   C     C_R   0.801777 0.328427 0.461713 0.100417
C87   C     C_R   0.801778 0.671574 0.461710 0.100414
C88   C     C_3   0.684561 0.343935 0.827971 0.078858
C89   C     C_R   0.701501 0.301048 0.594379 0.034994
C90   C     C_3   0.665564 0.290093 0.912617 -0.851165
C91   C     C_3   0.684548 0.656055 0.827957 0.078855
C92   C     C_3   0.665557 0.709908 0.912595 -0.851188
C93   C     C_3   0.184537 0.843924 0.827977 0.078899
C94   C     C_3   0.165438 0.790173 0.912658 -0.851029
C95   C     C_3   0.184407 0.156007 0.827876 0.079002
C96   C     C_3   0.165113 0.209573 0.912646 -0.850692
H1    H     H_    0.576983 0.209592 0.703634 0.187602
H2    H     H_    0.949694 0.499998 0.165021 0.125813
H3    H     H_    0.343225 0.000006 0.687090 0.122372
H4    H     H_    0.843225 0.500001 0.687090 0.122372
H5    H     H_    0.375900 0.999994 0.026789 0.135761
H6    H     H_    0.875900 0.500001 0.026789 0.135758
H7    H     H_    0.297036 0.999999 0.858371 0.127447
H8    H     H_    0.797036 0.500001 0.858371 0.127461
H9    H     H_    0.585585 0.999999 0.773838 0.213910
H10   H     H_    0.085584 0.500000 0.773838 0.213918
H11   H     H_    0.212712 0.918349 0.634841 0.170791
H12   H     H_    0.576975 0.790402 0.703621 0.187603
H13   H     H_    0.212674 0.081622 0.634737 0.170816
H14   H     H_    0.712707 0.418349 0.634826 0.170787
H15   H     H_    0.712700 0.581645 0.634806 0.170790
H16   H     H_    0.703733 0.127586 0.482963 0.152872
H17   H     H_    0.703738 0.872417 0.482975 0.152868
H18   H     H_    0.203732 0.627590 0.482962 0.152870
H19   H     H_    0.203748 0.372420 0.483010 0.152849
H20   H     H_    0.417878 0.795736 0.289712 0.163402
H21   H     H_    0.417920 0.204299 0.289775 0.163398
H22   H     H_    0.917885 0.295732 0.289721 0.163402
H23   H     H_    0.076976 0.709595 0.703627 0.187588
H24   H     H_    0.917894 0.704275 0.289733 0.163402
H25   H     H_    0.757257 0.154684 0.359631 0.127029
H26   H     H_    0.757265 0.845324 0.359645 0.127029
H27   H     H_    0.257244 0.654693 0.359617 0.127031
H28   H     H_    0.257280 0.345339 0.359677 0.127031
H29   H     H_    0.347553 0.682330 0.255975 0.143651
H30   H     H_    0.347610 0.317719 0.256064 0.143654
H31   H     H_    0.847566 0.182322 0.255990 0.143649
H32   H     H_    0.847577 0.817689 0.256008 0.143651
H33   H     H_    0.295009 0.941747 0.516917 0.142751
H34   H     H_    0.076920 0.290361 0.703537 0.187551
H35   H     H_    0.294999 0.058248 0.516847 0.142737
H36   H     H_    0.795004 0.441747 0.516898 0.142742
H37   H     H_    0.795001 0.558252 0.516882 0.142738
H38   H     H_    0.658676 0.000001 0.305324 0.120473
H39   H     H_    0.158676 0.500002 0.305324 0.120474
H40   H     H_    0.684078 0.401492 0.860663 0.166466
H41   H     H_    0.738881 0.333316 0.814173 0.129636
H42   H     H_    0.670007 0.231441 0.886011 0.245117
H43   H     H_    0.701493 0.298219 0.989378 0.219063
H44   H     H_    0.611553 0.300650 0.926461 0.269055
H45   H     H_    0.669654 0.999998 0.933801 0.155224
H46   H     H_    0.738871 0.666667 0.814163 0.129644
H47   H     H_    0.684056 0.598501 0.860656 0.166476
H48   H     H_    0.611541 0.699367 0.926430 0.269060
H49   H     H_    0.701480 0.701778 0.989363 0.219070
H50   H     H_    0.670015 0.768556 0.885987 0.245115
H51   H     H_    0.184123 0.901505 0.860604 0.166412
H52   H     H_    0.238853 0.833200 0.814234 0.129596
H53   H     H_    0.169774 0.731496 0.886095 0.245134
H54   H     H_    0.201377 0.798262 0.989418 0.219033
H55   H     H_    0.111444 0.800861 0.926486 0.269034
H56   H     H_    0.169654 0.500003 0.933801 0.155239
H57   H     H_    0.238724 0.166919 0.814266 0.129502
H58   H     H_    0.184098 0.098370 0.860347 0.166313
H59   H     H_    0.111135 0.198663 0.926402 0.268970
H60   H     H_    0.201049 0.201508 0.989416 0.218965
H61   H     H_    0.169288 0.268308 0.886210 0.245141
H62   H     H_    0.698339 0.999999 0.128958 0.139093
H63   H     H_    0.198339 0.500003 0.128958 0.139094
H64   H     H_    0.449694 0.999999 0.165021 0.125815
N1    N     N_R   0.552340 0.000000 0.237260 -0.102646
N2    N     N_R   0.052340 0.500000 0.237260 -0.102645
N3    N     N_R   0.448170 1.000000 0.762060 -0.130284
N4    N     N_R   0.948170 0.500000 0.762060 -0.130279
O1    O     O_R   0.448200 0.076800 0.373930 -0.614888
O2    O     O_R   0.585240 0.076800 0.457600 -0.613891
O3    O     O_R   0.085240 0.423200 0.457600 -0.613880
O4    O     O_R   0.085240 0.576800 0.457600 -0.613889
O5    O     O_R   0.551780 0.923190 0.626070 -0.637671
O6    O     O_R   0.551780 0.076810 0.626070 -0.637673
O7    O     O_R   0.051780 0.423190 0.626070 -0.637674
O8    O     O_R   0.051780 0.576810 0.626070 -0.637672
O9    O     O_3   0.634874 0.340725 0.733064 -0.620886
O10   O     O_3   0.634865 0.659267 0.733046 -0.620887
O11   O     O_3   0.134865 0.840733 0.733050 -0.620861
O12   O     O_R   0.448200 0.923200 0.373930 -0.614886
O13   O     O_3   0.134785 0.159201 0.732893 -0.620832
O14   O     O_R   0.948200 0.576800 0.373930 -0.614889
O15   O     O_R   0.948200 0.423200 0.373930 -0.614889
O16   O     O_R   0.414750 0.076790 0.542400 -0.614890
O17   O     O_R   0.414750 0.923210 0.542400 -0.614894
O18   O     O_R   0.914750 0.576790 0.542400 -0.614890
O19   O     O_R   0.914750 0.423210 0.542400 -0.614895
O20   O     O_R   0.585240 0.923200 0.457600 -0.613884
Zn1   Zn    Zn3+2 0.522330 0.000000 0.387520 0.939019
Zn2   Zn    Zn3+2 0.022330 0.500000 0.387520 0.939020
Zn3   Zn    Zn3+2 0.477660 0.000000 0.612480 0.930102
Zn4   Zn    Zn3+2 0.977660 0.500000 0.612480 0.930098

loop_
_geom_bond_atom_site_label_1
_geom_bond_atom_site_label_2
_ccdc_geom_bond_type
C17   C78   A    
C83   C87   A    
C10   C85   A    
C61   O13   S    
C8    C13   A    
C30   H4    S    
O2    Zn1   S    
C29   N3    A    
O14   Zn2   S    
C95   C96   S    
C30   N4    A    
C80   C84   A    
C59   O10   S    
C33   O5    A    
C11   H36   S    
C55   N1    A    
C37   O8    A    
C90   H43   S    
O17   Zn3   S    
O12   Zn1   S    
C39   C41   A    
O15   Zn2   S    
C28   C57   A    
C27   H62   S    
C14   H16   S    
C93   C94   S    
C66   H20   S    
O7    Zn4   S    
C39   H6    S    
C75   H27   S    
C38   H5    S    
C1    O16   A    
C27   C55   A    
C43   C52   A    
C32   C39   A    
C96   H59   S    
C11   C86   A    
C14   C62   A    
C12   C22   S    
C69   H22   S    
C35   O2    A    
O20   Zn1   S    
C93   H52   S    
N3    Zn3   S    
C4    C78   A    
C23   C26   S    
C10   H35   S    
C22   C66   A    
C23   O14   A    
N1    Zn1   S    
C44   C53   A    
C95   O13   S    
C74   H32   S    
C57   N2    A    
C45   C82   A    
C19   C63   A    
C26   C87   A    
C49   C51   A    
C49   H45   S    
O6    Zn3   S    
C70   C74   A    
C50   C52   A    
C41   C46   A    
C15   H17   S    
C69   C73   A    
C18   H1    S    
C20   C60   A    
C45   C89   A    
C24   C85   A    
C21   C61   A    
C44   C47   A    
C33   C63   S    
C42   C51   A    
C12   O12   A    
C91   H46   S    
C43   N4    A    
C40   C42   A    
C96   H61   S    
C52   H10   S    
C12   O17   A    
C41   C43   A    
C13   C87   A    
C34   O15   A    
C90   H42   S    
C18   C58   A    
C14   C45   A    
C91   H47   S    
C37   O4    A    
C21   H34   S    
C79   H26   S    
C3    C67   A    
C71   C75   A    
O4    Zn2   S    
C29   H3    S    
C92   H50   S    
C76   H28   S    
O5    Zn3   S    
C23   O18   A    
C47   C49   A    
C8    H15   S    
C70   H24   S    
C91   C92   S    
N2    Zn2   S    
C2    C59   A    
C18   C62   A    
C3    C5    A    
C94   H55   S    
C73   H31   S    
O3    Zn2   S    
C4    C61   A    
C93   O11   S    
C28   H63   S    
O1    Zn1   S    
C88   O9    S    
C91   O10   S    
C72   H30   S    
C94   H53   S    
C22   C84   A    
C20   C64   A    
C7    C11   A    
C5    C9    A    
O16   Zn3   S    
C68   H21   S    
C66   C71   A    
C1    O1    A    
C68   C72   A    
C46   C54   A    
C33   O20   A    
C32   H8    S    
C34   O19   A    
C16   C67   A    
O18   Zn4   S    
C54   N2    A    
C88   H40   S    
C51   H9    S    
C4    C6    A    
C88   C90   S    
C74   C79   A    
C71   H29   S    
C26   C70   A    
C6    H13   S    
C58   O9    S    
C25   C69   A    
C37   C64   S    
C17   H19   S    
C56   C83   A    
C5    H11   S    
C27   C47   A    
C35   O6    A    
C28   C48   A    
C53   H64   S    
C73   C77   A    
C21   C65   A    
C92   H49   S    
C42   N3    A    
C13   H37   S    
C57   H39   S    
C67   C80   A    
N4    Zn4   S    
C16   H18   S    
C76   C81   A    
C6    C10   A    
C90   H44   S    
C7    H14   S    
C9    H33   S    
C94   H54   S    
C55   H38   S    
C25   C34   S    
C17   C65   A    
C31   C38   A    
C95   H58   S    
C19   C59   A    
C15   C56   A    
C36   C65   S    
C29   C31   A    
C82   C86   A    
O19   Zn4   S    
C19   H12   S    
C38   C40   A    
C36   O7    A    
C78   C81   A    
C53   N1    A    
C96   H60   S    
C77   C82   A    
O8    Zn4   S    
C72   C76   A    
C48   C50   A    
C25   C86   A    
C93   H51   S    
C35   C62   S    
C30   C32   A    
C36   O3    A    
C92   H48   S    
C58   C89   A    
C88   H41   S    
C77   H25   S    
C24   C68   A    
C9    C84   A    
C79   C83   A    
C46   C48   A    
C50   H56   S    
C40   C44   A    
C75   C80   A    
C1    C24   S    
C2    C8    A    
C60   O11   S    
C15   C63   A    
C54   H2    S    
C2    C56   A    
C16   C64   A    
C95   H57   S    
C3    C60   A    
C20   H23   S    
C81   C85   A    
C31   H7    S    
C7    C89   A    
