data_mof_unit_17192.cif
_audit_creation_date              2012-12-10T20:36:34-0500
_audit_creation_method            fapswitch 2.2
_symmetry_space_group_name_H-M    P1
_symmetry_Int_Tables_number       1
_space_group_crystal_system       triclinic
_cell_length_a                    10.512447
_cell_length_b                    10.70636
_cell_length_c                    9.890468
_cell_angle_alpha                 90.039425
_cell_angle_beta                  90.708999
_cell_angle_gamma                 90.715117
_cell_volume                      1113.0002714

loop_
_atom_site_label
_atom_site_type_symbol
_atom_type_description
_atom_site_fract_x
_atom_site_fract_y
_atom_site_fract_z
_atom_type_partial_charge
C1    C     C_R   0.496801 0.260138 0.500103 0.882153
C2    C     C_3   0.953584 0.624694 0.493524 -0.257176
C3    C     C_3   0.036164 0.561724 0.386424 0.040391
C4    C     C_3   0.122788 0.512241 0.498517 -0.077381
C5    C     C_R   0.500009 0.063664 0.622577 0.006059
C6    C     C_R   0.481276 0.128326 0.501690 -0.132320
C7    C     C_R   0.442966 0.064068 0.384107 -0.166690
C8    C     C_R   0.442510 0.934705 0.383776 -0.216411
C9    C     C_R   0.480829 0.871243 0.500962 -0.085162
C10   C     C_R   0.499858 0.935980 0.621339 0.105789
C11   C     C_3   0.607631 0.927752 0.720515 -0.561104
C12   C     C_R   0.257827 0.507277 0.499318 0.885247
C13   C     C_3   0.607618 0.069760 0.724380 -0.032229
C14   C     C_R   0.426449 0.416070 0.069903 0.140443
C15   C     C_R   0.585326 0.570091 0.073934 -0.146052
C16   C     C_R   0.587098 0.568617 0.930194 0.017707
C17   C     C_R   0.425363 0.417359 0.927849 0.212060
C18   C     C_3   0.284556 0.401841 0.919583 -0.570821
C19   C     C_3   0.285455 0.399928 0.073828 -0.234830
C20   C     C_R   0.496941 0.739833 0.499925 0.866970
C21   C     C_R   0.742436 0.498865 0.500797 0.900704
C22   C     C_3   0.044337 0.390712 0.507559 -0.148832
C23   C     C_3   0.956856 0.440378 0.392996 -0.125654
C24   C     C_3   0.877080 0.502475 0.502170 -0.035625
C25   C     C_3   0.961744 0.452795 0.616719 -0.163542
C26   C     C_3   0.041147 0.573700 0.605719 0.011631
H1    H     H_    0.918515 0.385731 0.305809 0.175264
H2    H     H_    0.693700 0.887267 0.674022 0.197749
H3    H     H_    0.652682 0.627848 0.130264 0.153876
H4    H     H_    0.237337 0.485299 0.876957 0.232865
H5    H     H_    0.256020 0.312008 0.870680 0.202028
H6    H     H_    0.237771 0.480929 0.119620 0.209972
H7    H     H_    0.084979 0.295587 0.513222 0.175556
H8    H     H_    0.928208 0.409970 0.712153 0.206333
H9    H     H_    0.912082 0.719521 0.488443 0.145381
H10   H     H_    0.420526 0.113000 0.291290 0.173001
H11   H     H_    0.419361 0.885327 0.290860 0.177225
H12   H     H_    0.577395 0.881590 0.815837 0.212387
N1    N     N_R   0.499140 0.499140 0.142800 -0.116893
N2    N     N_R   0.499140 0.499180 0.857150 -0.121705
O1    O     O_R   0.500020 0.316790 0.614690 -0.610499
O2    O     O_R   0.500000 0.316760 0.385350 -0.615590
O3    O     O_R   0.313960 0.499990 0.614650 -0.628498
O4    O     O_R   0.313940 0.499950 0.385310 -0.606400
O5    O     O_R   0.500000 0.683240 0.614650 -0.614340
O6    O     O_R   0.499980 0.683210 0.385310 -0.630304
O7    O     O_R   0.686060 0.500050 0.614690 -0.601606
O8    O     O_R   0.686040 0.500010 0.385350 -0.631681
Zn1   Zn    Zn3+2 0.500010 0.500020 0.653130 0.981094
Zn2   Zn    Zn3+2 0.499990 0.499980 0.346870 0.963465
C27   C     C_1   0.567587 0.117821 0.856856 0.300742
N3    N     N_1   0.536885 0.153851 0.961638 -0.254531
C28   C     C_2   0.728828 0.128514 0.671714 0.412985
H13   H     H_    0.762964 0.102891 0.572440 0.053852
O9    O     O_2   0.789719 0.204369 0.739194 -0.584239
C29   C     C_1   0.686479 0.636907 0.863378 0.231157
N4    N     N_1   0.768372 0.690819 0.811299 -0.218639
C30   C     C_2   0.246901 0.275944 0.132308 0.477454
H14   H     H_    0.286821 0.190187 0.093588 0.062504
O10   O     O_2   0.170252 0.270753 0.223806 -0.591081
C31   C     C_1   0.087854 0.649862 0.719753 0.184227
N5    N     N_1   0.124531 0.710326 0.809428 -0.187533
C32   C     C_1   0.074754 0.627500 0.263252 0.169155
N6    N     N_1   0.104377 0.680596 0.166527 -0.200056

loop_
_geom_bond_atom_site_label_1
_geom_bond_atom_site_label_2
_ccdc_geom_bond_type
C2    H9    S    
C8    C9    A    
C11   H12   S    
C4    C26   S    
C23   C24   S    
C16   C29   S    
C6    C7    A    
C18   H4    S    
C3    C32   S    
C8    H11   S    
C4    C12   S    
C4    C22   S    
C9    C10   A    
O6    Zn2   S    
C9    C20   S    
C5    C13   S    
C20   O5    A    
O5    Zn1   S    
C25   H8    S    
C21   O8    A    
O8    Zn2   S    
C17   C18   S    
C25   C26   S    
C7    C8    A    
O7    Zn1   S    
C28   H13   S    
C24   C25   S    
C11   C13   S    
C14   C17   A    
C15   N1    A    
C5    C6    A    
C11   H2    S    
O2    Zn2   S    
C19   H6    S    
C1    O1    A    
C26   C31   S    
C16   N2    A    
C15   H3    S    
C12   O3    A    
C13   C28   S    
C23   H1    S    
C28   O9    D    
C19   C30   S    
C2    C24   S    
C31   N5    T    
C30   H14   S    
C10   C11   S    
C32   N6    T    
C30   O10   D    
N2    Zn1   S    
C1    O2    A    
C5    C10   A    
N1    Zn2   S    
C29   N4    T    
O4    Zn2   S    
C12   O4    A    
C18   C19   S    
C7    H10   S    
C21   C24   S    
O1    Zn1   S    
C1    C6    S    
C22   H7    S    
C22   C23   S    
O3    Zn1   S    
C2    C3    S    
C18   H5    S    
C14   N1    A    
C13   C27   S    
C3    C23   S    
C14   C19   S    
C22   C25   S    
C15   C16   A    
C20   O6    A    
C3    C4    S    
C27   N3    T    
C2    C26   S    
C21   O7    A    
C17   N2    A    
