data_mof_unit_15403.cif
_audit_creation_date              2012-12-10T17:50:47-0500
_audit_creation_method            fapswitch 2.2
_symmetry_space_group_name_H-M    P1
_symmetry_Int_Tables_number       1
_space_group_crystal_system       triclinic
_cell_length_a                    14.729643
_cell_length_b                    14.48255
_cell_length_c                    15.891591
_cell_angle_alpha                 76.498395
_cell_angle_beta                  102.507156
_cell_angle_gamma                 114.329841
_cell_volume                      2975.74722646

loop_
_atom_site_label
_atom_site_type_symbol
_atom_type_description
_atom_site_fract_x
_atom_site_fract_y
_atom_site_fract_z
_atom_type_partial_charge
C1    C     C_R   0.880821 0.310624 0.515541 0.827343
C2    C     C_R   0.359908 0.925618 0.485854 0.085200
C3    C     C_R   0.675837 0.993924 0.531135 0.044991
C4    C     C_R   0.324163 0.006076 0.468864 0.044993
C5    C     C_R   0.534513 0.051460 0.501586 0.090792
C6    C     C_R   0.465487 0.948539 0.498423 0.090792
C7    C     C_R   0.504244 0.872093 0.506057 -0.206037
C8    C     C_R   0.495755 0.127906 0.493951 -0.206037
C9    C     C_R   0.606461 0.893789 0.524321 -0.150872
C10   C     C_R   0.393538 0.106210 0.475681 -0.150866
C11   C     C_R   0.703333 0.649897 0.340158 -0.266294
C12   C     C_R   0.119179 0.689375 0.484458 0.827343
C13   C     C_R   0.296665 0.350101 0.659841 -0.266301
C14   C     C_R   0.788285 0.625664 0.367680 0.133698
C15   C     C_R   0.211713 0.374333 0.632318 0.133696
C16   C     C_R   0.999560 0.500111 0.659871 0.817624
C17   C     C_R   0.000440 0.499889 0.340128 0.817625
C18   C     C_R   0.718694 0.515322 0.493099 0.022607
C19   C     C_R   0.281307 0.484680 0.506902 0.022610
C20   C     C_R   0.628525 0.534865 0.467553 -0.021899
C21   C     C_R   0.371476 0.465135 0.532448 -0.021898
C22   C     C_R   0.623274 0.604850 0.389607 0.149129
C23   C     C_R   0.780343 0.015424 0.551241 -0.055674
C24   C     C_R   0.376725 0.395149 0.610392 0.149130
C25   C     C_R   0.543883 0.487571 0.515454 0.082545
C26   C     C_R   0.456117 0.512430 0.484547 0.082543
C27   C     C_R   0.456215 0.583992 0.407126 -0.228213
C28   C     C_R   0.543785 0.416008 0.592874 -0.228213
C29   C     C_R   0.537971 0.628821 0.360826 -0.171341
C30   C     C_R   0.462028 0.371178 0.639174 -0.171342
C31   C     C_3   0.944614 0.405433 0.036855 -0.120162
C32   C     C_3   0.055386 0.594567 0.963145 -0.120161
C33   C     C_3   0.905246 0.472390 0.959264 -0.117561
C34   C     C_R   0.219658 0.984577 0.448748 -0.055681
C35   C     C_3   0.094754 0.527609 0.040736 -0.117561
C36   C     C_1   0.998851 0.500530 0.748984 -0.066877
C37   C     C_1   0.001149 0.499470 0.251016 -0.066875
C38   C     C_3   0.038823 0.433498 0.993239 -0.122609
C39   C     C_3   0.961177 0.566502 0.006761 -0.122609
C40   C     C_3   0.999445 0.500459 0.915925 -0.006706
C41   C     C_3   0.000555 0.499541 0.084075 -0.006706
C42   C     C_1   0.998900 0.500658 0.824276 0.175688
C43   C     C_1   0.001100 0.499342 0.175724 0.175688
C44   C     C_R   0.814463 0.199538 0.524987 -0.124334
C45   C     C_R   0.849820 0.118012 0.550714 0.123842
C46   C     C_R   0.185537 0.800461 0.475012 -0.124334
C47   C     C_2   0.798378 0.441427 0.915433 0.920685
C48   C     C_2   0.201622 0.558573 0.084567 0.920684
C49   C     C_2   0.882221 0.298723 0.076219 0.923794
C50   C     C_2   0.117779 0.701276 0.923781 0.923794
C51   C     C_2   0.917280 0.641539 0.012112 0.925094
C52   C     C_2   0.082720 0.358461 0.987887 0.925094
C53   C     C_2   0.817094 0.930233 0.574863 0.869466
C54   C     C_2   0.182907 0.069768 0.425112 0.869469
C55   C     C_R   0.150181 0.881988 0.449274 0.123844
C56   C     C_R   0.710766 0.175781 0.506918 -0.265938
C57   C     C_R   0.289234 0.824218 0.493090 -0.265940
C58   C     C_R   0.640092 0.074381 0.514152 0.085203
Cu1   Cu    Cu3+1 0.081740 0.475690 0.522610 0.988255
Cu2   Cu    Cu3+1 0.918260 0.524310 0.477390 0.988254
H1    H     H_    0.270645 0.536681 0.448707 0.130977
H2    H     H_    0.369580 0.169087 0.469499 0.169515
H3    H     H_    0.313831 0.761292 0.515848 0.169929
H4    H     H_    0.686169 0.238707 0.484169 0.169926
H5    H     H_    0.457775 0.794169 0.496882 0.142159
H6    H     H_    0.542223 0.205830 0.503127 0.142158
H7    H     H_    0.534135 0.682806 0.301362 0.158304
H8    H     H_    0.465864 0.317193 0.698637 0.158304
H9    H     H_    0.701705 0.414667 0.804422 0.334972
H10   H     H_    0.298295 0.585332 0.195578 0.334972
H11   H     H_    0.826724 0.202041 0.183139 0.349407
H12   H     H_    0.729357 0.463322 0.551295 0.130977
H13   H     H_    0.173276 0.797958 0.816861 0.349405
H14   H     H_    0.877890 0.708641 0.088275 0.347363
H15   H     H_    0.122110 0.291359 0.911725 0.347362
H16   H     H_    0.816500 0.800660 0.656753 0.354520
H17   H     H_    0.183518 0.199343 0.343215 0.354525
H18   H     H_    0.151120 0.341319 0.671755 0.152905
H19   H     H_    0.848878 0.658676 0.328242 0.152908
H20   H     H_    0.699789 0.702736 0.279889 0.160549
H21   H     H_    0.300208 0.297260 0.720109 0.160548
H22   H     H_    0.393763 0.607156 0.380096 0.142209
H23   H     H_    0.606237 0.392844 0.619904 0.142208
H24   H     H_    0.630418 0.830912 0.530501 0.169514
I1    I     I_    0.994855 0.857963 0.404891 -0.206993
I2    I     I_    0.005149 0.142036 0.595076 -0.206992
N1    N     N_R   0.795440 0.560790 0.443380 -0.183857
N2    N     N_R   0.204560 0.439210 0.556620 -0.183856
O1    O     O_R   0.977900 0.338120 0.529810 -0.553952
O2    O     O_R   0.776316 0.436244 0.826209 -0.759690
O3    O     O_2   0.269012 0.579048 0.041704 -0.560383
O4    O     O_R   0.223684 0.563755 0.173791 -0.759690
O5    O     O_2   0.842040 0.231499 0.030577 -0.557882
O6    O     O_R   0.870341 0.276587 0.164485 -0.748681
O7    O     O_2   0.157959 0.768500 0.969423 -0.557882
O8    O     O_R   0.129659 0.723412 0.835515 -0.748683
O9    O     O_2   0.889158 0.689554 0.944960 -0.550605
O10   O     O_R   0.908667 0.656203 0.093399 -0.753039
O11   O     O_2   0.110842 0.310446 0.055040 -0.550607
O12   O     O_R   0.022100 0.661880 0.470190 -0.553951
O13   O     O_R   0.091333 0.343797 0.906601 -0.753039
O14   O     O_2   0.872119 0.925168 0.530021 -0.518255
O15   O     O_R   0.787327 0.855157 0.647723 -0.732671
O16   O     O_2   0.127866 0.074833 0.469936 -0.518249
O17   O     O_R   0.212694 0.144846 0.352256 -0.732674
O18   O     O_R   0.839850 0.379180 0.491620 -0.593648
O19   O     O_R   0.160150 0.620820 0.508380 -0.593649
O20   O     O_R   0.069010 0.479460 0.640020 -0.577533
O21   O     O_R   0.930990 0.520540 0.359980 -0.577534
O22   O     O_R   0.930960 0.520530 0.601820 -0.571858
O23   O     O_R   0.069040 0.479470 0.398180 -0.571855
O24   O     O_2   0.730988 0.420951 0.958296 -0.560383

loop_
_geom_bond_atom_site_label_1
_geom_bond_atom_site_label_2
_ccdc_geom_bond_type
C51   O9    D    
C39   C51   S    
C21   C26   A    
C8    H6    S    
C23   C45   A    
C22   C29   A    
C27   C29   A    
C36   C42   T    
C2    C57   A    
C16   O22   A    
H14   O10   S    
H11   O6    S    
C2    C6    A    
C25   C28   A    
C26   C27   A    
C33   C39   S    
C5    C58   A    
C54   O16   D    
C19   C21   A    
C19   H1    S    
C14   N1    A    
C5    C6    A    
C11   C14   A    
C50   O7    D    
C15   H18   S    
C38   C52   S    
C20   C25   A    
C47   O24   D    
C13   H21   S    
Cu1   O1    S    
C32   C39   S    
Cu1   N2    S    
Cu2   O21   S    
C29   H7    S    
C3    C23   A    
C48   O3    D    
C46   C55   A    
Cu1   O23   S    
C56   H4    S    
C57   H3    S    
C49   O6    S    
C1    O18   A    
H16   O15   S    
C40   C42   S    
Cu1   Cu2   S    
C53   O15   S    
C28   H23   S    
C41   C43   S    
C10   H2    S    
C31   C49   S    
C35   C48   S    
C17   O23   A    
Cu2   N1    S    
C23   C53   S    
C18   H12   S    
C4    C34   A    
C52   O13   S    
C33   C40   S    
C32   C35   S    
C35   C38   S    
C12   C46   S    
C19   N2    A    
C25   C26   A    
Cu1   O19   S    
C13   C24   A    
C55   I1    S    
C2    C4    A    
C3    C9    A    
C7    H5    S    
C44   C56   A    
C1    C44   S    
C53   O14   D    
C31   C33   S    
C17   C37   S    
C14   H19   S    
C32   C50   S    
C20   C22   A    
C34   C54   S    
C13   C15   A    
C46   C57   A    
C33   C47   S    
C47   O2    S    
C37   C43   T    
C5    C8    A    
C4    C10   A    
H9    O2    S    
Cu2   O18   S    
C44   C45   A    
C7    C9    A    
C1    O1    A    
C31   C41   S    
C54   O17   S    
C27   H22   S    
H10   O4    S    
C18   N1    A    
Cu2   O12   S    
C17   O21   A    
C12   O19   A    
C6    C7    A    
C52   O11   D    
Cu1   O20   S    
C31   C38   S    
H17   O17   S    
C45   I2    S    
C16   C36   S    
C38   C40   S    
C50   O8    S    
C51   O10   S    
C28   C30   A    
C56   C58   A    
C18   C20   A    
C32   C40   S    
C35   C41   S    
C24   C30   A    
C12   O12   A    
Cu2   O22   S    
C11   H20   S    
C16   O20   A    
C9    H24   S    
C3    C58   A    
C34   C55   A    
C39   C41   S    
C11   C22   A    
C8    C10   A    
C48   O4    S    
C21   C24   A    
H15   O13   S    
H13   O8    S    
C49   O5    D    
C30   H8    S    
C15   N2    A    
