data_mof_unit_14965.cif
_audit_creation_date              2012-12-11T14:43:39-0500
_audit_creation_method            fapswitch 2.2
_symmetry_space_group_name_H-M    P1
_symmetry_Int_Tables_number       1
_space_group_crystal_system       triclinic
_cell_length_a                    20.872524
_cell_length_b                    7.114071
_cell_length_c                    16.390743
_cell_angle_alpha                 89.999628
_cell_angle_beta                  93.014703
_cell_angle_gamma                 90.001367
_cell_volume                      2430.47051169

loop_
_atom_site_label
_atom_site_type_symbol
_atom_type_description
_atom_site_fract_x
_atom_site_fract_y
_atom_site_fract_z
_atom_type_partial_charge
O1    O     O_R   0.564840 0.505290 0.579830 -0.534187
O2    O     O_R   0.435160 0.005290 0.420170 -0.534193
O3    O     O_R   0.556720 0.179930 0.409350 -0.537043
O4    O     O_R   0.443280 0.679930 0.590650 -0.537042
C1    C     C_R   0.570425 0.344281 0.381446 0.710898
C2    C     C_R   0.429573 0.844280 0.618552 0.710902
O5    O     O_R   0.572280 0.175810 0.578530 -0.542606
O6    O     O_R   0.427720 0.675810 0.421470 -0.542613
O7    O     O_R   0.450830 0.001920 0.590540 -0.536663
O8    O     O_R   0.549170 0.501920 0.409460 -0.536663
C3    C     C_R   0.589780 0.343332 0.605195 0.693087
C4    C     C_R   0.410221 0.843328 0.394803 0.693088
O9    O     O_3   0.460130 0.338030 0.503750 -0.373451
O10   O     O_3   0.539870 0.838030 0.496250 -0.373446
V1    V     V_3+5 0.507400 0.064560 0.499310 1.429805
V2    V     V_3+5 0.492600 0.564560 0.500690 1.429804
C5    C     C_R   0.143885 0.917716 0.167809 -0.028490
C6    C     C_R   0.856122 0.417700 0.832181 -0.028491
C7    C     C_R   0.357175 0.844975 0.330898 -0.062414
C8    C     C_R   0.642826 0.344989 0.669100 -0.062405
C9    C     C_R   0.305735 0.703767 0.208321 -0.155187
C10   C     C_R   0.694251 0.203846 0.791702 -0.155165
C11   C     C_R   0.357523 0.715386 0.266037 -0.139601
C12   C     C_R   0.642463 0.215459 0.733983 -0.139600
C13   C     C_R   0.303703 0.962655 0.337497 -0.236992
C14   C     C_R   0.696313 0.462615 0.662481 -0.236986
C15   C     C_R   0.250538 0.947541 0.281155 0.151183
C16   C     C_R   0.749476 0.447505 0.718825 0.151172
C17   C     C_R   0.251593 0.818025 0.215545 0.137326
C18   C     C_R   0.748405 0.318051 0.784457 0.137324
C19   C     C_R   0.198389 0.804695 0.158815 -0.211153
C20   C     C_R   0.801606 0.304731 0.841191 -0.211130
C21   C     C_R   0.142615 0.038200 0.235348 -0.158348
C22   C     C_R   0.857411 0.538109 0.764617 -0.158374
C23   C     C_R   0.195462 0.055804 0.290690 -0.196204
C24   C     C_R   0.804566 0.555707 0.709270 -0.196185
H1    H     H_    0.199769 0.709589 0.107258 0.137585
H2    H     H_    0.800214 0.209682 0.892768 0.137577
H3    H     H_    0.099810 0.115734 0.246335 0.114377
H4    H     H_    0.900228 0.615583 0.753617 0.114383
H5    H     H_    0.307595 0.603128 0.158880 0.146799
H6    H     H_    0.692377 0.103259 0.841163 0.146802
H7    H     H_    0.192767 0.151898 0.341691 0.120075
H8    H     H_    0.807276 0.651739 0.658246 0.120077
H9    H     H_    0.398126 0.622380 0.260143 0.131133
H10   H     H_    0.601850 0.122495 0.739893 0.131129
H11   H     H_    0.302427 0.060134 0.388241 0.114025
H12   H     H_    0.697600 0.560042 0.611717 0.114005
C25   C     C_R   0.386189 0.853441 0.837950 0.191972
C26   C     C_R   0.613808 0.353395 0.162047 0.191975
H13   H     H_    0.473350 0.840909 0.774343 0.134388
H14   H     H_    0.526647 0.340867 0.225654 0.134390
H15   H     H_    0.308597 0.933274 0.957114 0.184233
H16   H     H_    0.691401 0.433202 0.042879 0.184226
C27   C     C_R   0.390638 0.849321 0.690755 -0.078721
C28   C     C_R   0.609359 0.349318 0.309242 -0.078720
C29   C     C_R   0.081976 0.921852 0.731702 -0.000513
C30   C     C_R   0.918017 0.421898 0.268298 -0.000513
C31   C     C_R   0.116554 0.869231 0.664568 -0.162310
C32   C     C_R   0.883440 0.369291 0.335434 -0.162316
C33   C     C_R   0.181803 0.832888 0.672458 -0.166506
C34   C     C_R   0.818192 0.332923 0.327543 -0.166514
C35   C     C_R   0.216783 0.861895 0.747165 0.079262
C36   C     C_R   0.783213 0.361898 0.252834 0.079266
C37   C     C_R   0.181957 0.905288 0.818050 0.024950
C38   C     C_R   0.818039 0.405275 0.181947 0.024960
C39   C     C_R   0.285660 0.854976 0.752530 0.057217
C40   C     C_R   0.714337 0.354968 0.247468 0.057215
C41   C     C_R   0.318424 0.865528 0.830565 0.048441
C42   C     C_R   0.681573 0.365493 0.169432 0.048446
C43   C     C_R   0.283713 0.905915 0.898849 -0.157724
C44   C     C_R   0.716285 0.405863 0.101146 -0.157731
C45   C     C_R   0.218452 0.946041 0.891410 0.073233
C46   C     C_R   0.781546 0.446002 0.108584 0.073226
C47   C     C_R   0.323365 0.848595 0.682697 -0.210339
C48   C     C_R   0.676632 0.348604 0.317301 -0.210335
C49   C     C_R   0.421430 0.846338 0.768180 -0.173991
C50   C     C_R   0.578567 0.346307 0.231817 -0.173992
C51   C     C_R   0.112897 0.916347 0.811040 -0.102767
C52   C     C_R   0.887100 0.416352 0.188958 -0.102779
H17   H     H_    0.302110 0.851102 0.621300 0.095694
H18   H     H_    0.697886 0.351132 0.378697 0.095692
H19   H     H_    0.204055 0.787847 0.617900 0.112016
H20   H     H_    0.795940 0.287894 0.382103 0.112014
H21   H     H_    0.092753 0.859797 0.604299 0.116836
H22   H     H_    0.907240 0.359890 0.395704 0.116833
O11   O     O_R   0.950790 0.256670 0.090520 -0.542489
O12   O     O_R   0.049210 0.756670 0.909480 -0.542495
O13   O     O_R   0.927720 0.590370 0.921470 -0.532197
O14   O     O_R   0.072280 0.090370 0.078530 -0.532198
C53   C     C_R   0.910260 0.421745 0.894739 0.717798
C54   C     C_R   0.089743 0.921748 0.105257 0.717810
O15   O     O_R   0.943270 0.586180 0.090640 -0.520703
O16   O     O_R   0.056730 0.086180 0.909360 -0.520706
O17   O     O_R   0.064850 0.759970 0.079840 -0.535751
O18   O     O_R   0.935150 0.259970 0.920160 -0.535750
C55   C     C_R   0.927425 0.418689 0.116371 0.710104
C56   C     C_R   0.072574 0.918690 0.883629 0.710096
O19   O     O_3   0.039850 0.428050 0.996240 -0.362326
O20   O     O_3   0.960150 0.928050 0.003760 -0.362327
V3    V     V_3+5 0.992610 0.701540 0.000700 1.487899
V4    V     V_3+5 0.007390 0.201540 0.999300 1.487903
C57   C     C_R   0.016317 0.001097 0.713955 0.076681
C58   C     C_R   0.962540 0.940661 0.754851 -0.131047
C59   C     C_R   0.901322 0.009469 0.732596 -0.123176
C60   C     C_R   0.892902 0.138547 0.668905 -0.094470
C61   C     C_R   0.945910 0.204112 0.629091 -0.130207
C62   C     C_R   0.007193 0.136555 0.651516 -0.125167
H23   H     H_    0.967044 0.836302 0.802221 0.114540
H24   H     H_    0.860173 0.960568 0.764067 0.129812
H25   H     H_    0.845332 0.188391 0.650691 0.119943
H26   H     H_    0.939497 0.306275 0.580398 0.107287
H27   H     H_    0.047611 0.188931 0.619453 0.112336
C63   C     C_R   0.983671 0.501173 0.286042 0.076705
C64   C     C_R   0.037451 0.440708 0.245164 -0.131024
C65   C     C_R   0.098667 0.509539 0.267419 -0.123203
C66   C     C_R   0.107079 0.638673 0.331090 -0.094465
C67   C     C_R   0.054067 0.704265 0.370886 -0.130217
C68   C     C_R   0.992787 0.636682 0.348463 -0.125169
H28   H     H_    0.032947 0.336318 0.197806 0.114500
H29   H     H_    0.139819 0.460618 0.235961 0.129784
H30   H     H_    0.154648 0.688541 0.349303 0.119945
H31   H     H_    0.060474 0.806471 0.419564 0.107292
H32   H     H_    0.952365 0.689076 0.380511 0.112342
I1    I     I_    0.194211 0.151375 0.978127 -0.399649
I2    I     I_    0.805785 0.651334 0.021866 -0.399664
I3    I     I_    0.440384 0.851276 0.951751 -0.318500
I4    I     I_    0.559614 0.351200 0.048245 -0.318512

loop_
_geom_bond_atom_site_label_1
_geom_bond_atom_site_label_2
_ccdc_geom_bond_type
C59   H24   S    
C35   C37   A    
C28   C48   A    
O18   V4    S    
C52   C55   S    
C15   C17   A    
C61   H26   S    
C29   C51   A    
C1    C28   S    
O1    C3    A    
C2    C27   S    
O2    C4    A    
C2    O7    A    
H13   C49   S    
O12   V3    S    
C37   C45   A    
C37   C51   A    
C10   H6    S    
C68   H32   S    
O5    C3    A    
C21   H3    S    
C6    C20   A    
C11   H9    S    
C6    C53   S    
C36   C40   A    
C58   H23   S    
C27   C49   A    
H14   C50   S    
C29   C31   A    
C60   C61   A    
O16   C56   A    
C30   C32   A    
C64   C65   A    
C38   C46   A    
C28   C50   A    
C65   C66   A    
C32   C34   A    
C41   C43   A    
C67   C68   A    
O14   V4    S    
C34   C36   A    
C51   C56   S    
C53   O18   A    
C8    C12   A    
C61   C62   A    
C57   C62   A    
C20   H2    S    
O13   C53   A    
C23   H7    S    
C13   H11   S    
C22   C24   A    
C63   C68   A    
C14   H12   S    
C27   C47   A    
O5    V1    S    
O6    V2    S    
C25   C41   A    
C5    C54   S    
C5    C21   A    
C25   I3    S    
C26   C50   A    
O20   V4    S    
C58   C59   A    
C63   C64   A    
C60   H25   S    
C29   C57   S    
C35   C39   A    
C3    C8    S    
C31   C33   A    
C65   H29   S    
C44   C46   A    
C33   H19   S    
C48   H18   S    
C43   C45   A    
C32   H22   S    
C47   H17   S    
C15   C23   A    
C9    C17   A    
C54   O17   A    
C19   H1    S    
C39   C41   A    
C36   C38   A    
C62   H27   S    
O4    V2    S    
C7    C11   A    
C66   H30   S    
C31   H21   S    
O11   V4    S    
O14   C54   A    
O6    C4    A    
C33   C35   A    
H16   C44   S    
O1    V2    S    
O2    V1    S    
C6    C22   A    
O16   V4    S    
C9    H5    S    
O4    C2    A    
O19   V3    S    
C9    C11   A    
C13   C15   A    
C5    C19   A    
C22   H4    S    
C24   H8    S    
C39   C47   A    
O15   V3    S    
H15   C43   S    
O15   C55   A    
O3    V1    S    
C34   H20   S    
C10   C18   A    
O13   V3    S    
O3    C1    A    
C30   C52   A    
C40   C48   A    
C38   C52   A    
C59   C60   A    
C14   C16   A    
C12   H10   S    
C16   C18   A    
C26   C42   A    
C1    O8    A    
C17   C19   A    
O8    V2    S    
C66   C67   A    
C18   C20   A    
C46   I2    S    
C8    C14   A    
C45   I1    S    
C4    C7    S    
O20   V3    S    
C21   C23   A    
C25   C49   A    
C10   C12   A    
C67   H31   S    
O7    V1    S    
C7    C13   A    
O19   V4    S    
C26   I4    S    
C16   C24   A    
C40   C42   A    
C64   H28   S    
O9    V2    S    
C57   C58   A    
C30   C63   S    
O10   V1    S    
C42   C44   A    
O12   C56   A    
O17   V3    S    
O11   C55   A    
