data_mof_unit_32050.cif
_audit_creation_date              2012-12-10T20:39:11-0500
_audit_creation_method            fapswitch 2.2
_symmetry_space_group_name_H-M    P1
_symmetry_Int_Tables_number       1
_space_group_crystal_system       triclinic
_cell_length_a                    18.976849
_cell_length_b                    10.788774
_cell_length_c                    9.840008
_cell_angle_alpha                 88.8375
_cell_angle_beta                  89.765214
_cell_angle_gamma                 90.366204
_cell_volume                      2014.13927699

loop_
_atom_site_label
_atom_site_type_symbol
_atom_type_description
_atom_site_fract_x
_atom_site_fract_y
_atom_site_fract_z
_atom_type_partial_charge
C1    C     C_R   0.499136 0.260095 0.501055 0.895360
C2    C     C_R   0.854341 0.588674 0.485963 -0.007349
C3    C     C_R   0.486214 0.059167 0.619637 0.114990
C4    C     C_R   0.365275 0.503047 0.499894 0.847105
C5    C     C_R   0.493094 0.128607 0.500088 -0.135384
C6    C     C_R   0.493515 0.070207 0.374627 -0.257094
C7    C     C_R   0.497604 0.942566 0.367024 0.083113
C8    C     C_R   0.496590 0.872504 0.491549 -0.139379
C9    C     C_R   0.487428 0.932424 0.614730 0.110513
C10   C     C_3   0.530994 0.920995 0.740469 -0.473371
C11   C     C_3   0.530400 0.060871 0.745205 -0.477886
C12   C     C_R   0.290149 0.526159 0.497000 -0.027114
C13   C     C_R   0.442341 0.458938 0.073196 0.187229
C14   C     C_R   0.555264 0.547206 0.070431 -0.136725
C15   C     C_R   0.555208 0.547542 0.926463 -0.111101
C16   C     C_R   0.501026 0.740253 0.497596 0.870997
C17   C     C_R   0.441407 0.461265 0.929887 0.184804
C18   C     C_3   0.409364 0.333797 0.928909 -0.151378
C19   C     C_3   0.412685 0.331060 0.083237 -0.516459
C20   C     C_R   0.635101 0.503289 0.499552 0.900867
C21   C     C_R   0.259899 0.602990 0.593886 -0.196469
C22   C     C_R   0.189048 0.633398 0.585132 -0.170487
C23   C     C_R   0.930420 0.609361 0.479590 0.325531
C24   C     C_R   0.148379 0.589174 0.477635 0.089481
C25   C     C_R   0.179470 0.515387 0.378321 -0.159867
C26   C     C_R   0.250006 0.483862 0.388179 -0.206024
C27   C     C_3   0.513688 0.892740 0.226362 -0.372631
C28   C     C_3   0.592856 0.865831 0.211238 -0.320352
C29   C     C_3   0.615089 0.861704 0.062185 -0.905949
C30   C     C_3   0.334128 0.324141 0.870462 -0.352909
C31   C     C_3   0.283585 0.428295 0.911281 -0.332182
C32   C     C_3   0.209617 0.404687 0.856726 -0.864666
C33   C     C_R   0.072603 0.610125 0.475009 0.280676
C34   C     C_R   0.820840 0.568766 0.611893 -0.240140
C35   C     C_R   0.749853 0.536615 0.617721 0.616967
C36   C     C_R   0.711248 0.525132 0.496810 -0.176688
C37   C     C_R   0.745004 0.545644 0.371032 -0.278505
C38   C     C_R   0.815875 0.577180 0.365680 -0.154760
F1    F     F_    0.719515 0.516981 0.741503 -0.683617
H1    H     H_    0.291329 0.641520 0.674460 0.145321
H2    H     H_    0.166139 0.691233 0.662181 0.149254
H3    H     H_    0.451726 0.263439 0.122763 0.189905
H4    H     H_    0.149001 0.479372 0.294902 0.151090
H5    H     H_    0.273224 0.426532 0.310951 0.136635
H6    H     H_    0.849809 0.575321 0.706099 0.177871
H7    H     H_    0.716583 0.538789 0.276222 0.185754
H8    H     H_    0.840572 0.591750 0.267175 0.169515
H9    H     H_    0.497507 0.124528 0.281336 0.169047
H10   H     H_    0.581070 0.796619 0.006206 0.258724
H11   H     H_    0.610915 0.955400 0.014084 0.273228
H12   H     H_    0.501174 0.875623 0.825510 0.205339
H13   H     H_    0.670611 0.830639 0.054717 0.260667
H14   H     H_    0.624393 0.939617 0.260375 0.227162
H15   H     H_    0.605885 0.776253 0.262242 0.230921
H16   H     H_    0.480490 0.811739 0.200775 0.217347
H17   H     H_    0.498958 0.962882 0.147086 0.182248
H18   H     H_    0.211063 0.391870 0.745089 0.275264
H19   H     H_    0.186525 0.320228 0.906127 0.258208
H20   H     H_    0.175365 0.484865 0.879136 0.255846
H21   H     H_    0.279778 0.435095 0.023365 0.213705
H22   H     H_    0.303414 0.518500 0.870373 0.219776
H23   H     H_    0.584220 0.882248 0.721274 0.211718
H24   H     H_    0.338137 0.322750 0.757881 0.212377
H25   H     H_    0.311479 0.233219 0.904029 0.199111
H26   H     H_    0.501536 0.093974 0.835332 0.189507
H27   H     H_    0.583146 0.104002 0.727783 0.217198
H28   H     H_    0.600465 0.583217 0.123559 0.159812
H29   H     H_    0.600115 0.584797 0.871052 0.206230
H30   H     H_    0.445506 0.266373 0.882719 0.162625
H31   H     H_    0.361276 0.326886 0.137228 0.193255
N1    N     N_R   0.035691 0.591101 0.359657 -0.178753
N2    N     N_R   0.965807 0.591000 0.361868 -0.174021
N3    N     N_R   0.967361 0.632852 0.593985 -0.174586
N4    N     N_R   0.037316 0.633421 0.591689 -0.176584
N5    N     N_R   0.499530 0.499140 0.142800 -0.107461
N6    N     N_R   0.499530 0.499180 0.857150 -0.124917
O1    O     O_R   0.500010 0.316790 0.614690 -0.619089
O2    O     O_R   0.500000 0.316760 0.385350 -0.621693
O3    O     O_R   0.398140 0.500000 0.614710 -0.626728
O4    O     O_R   0.398130 0.499970 0.385370 -0.613348
O5    O     O_R   0.500000 0.683240 0.614650 -0.617915
O6    O     O_R   0.499990 0.683210 0.385310 -0.630545
O7    O     O_R   0.601870 0.500030 0.614630 -0.557242
O8    O     O_R   0.601860 0.500000 0.385290 -0.635840
Zn1   Zn    Zn3+2 0.500000 0.500020 0.653130 0.959981
Zn2   Zn    Zn3+2 0.500000 0.499980 0.346870 0.934932

loop_
_geom_bond_atom_site_label_1
_geom_bond_atom_site_label_2
_ccdc_geom_bond_type
C30   H25   S    
C1    O1    A    
N3    N4    A    
C31   H22   S    
C35   C36   A    
C32   H19   S    
C25   H4    S    
C26   H5    S    
C7    C8    A    
C29   H10   S    
C6    H9    S    
C1    C5    S    
C36   C37   A    
O8    Zn2   S    
C4    O4    A    
C30   C31   S    
C27   H16   S    
C22   H2    S    
C7    C27   S    
C34   C35   A    
O4    Zn2   S    
C13   N5    A    
C8    C9    A    
C17   N6    A    
C14   H28   S    
C18   C30   S    
C4    C12   S    
C9    C10   S    
C19   H3    S    
C2    C34   A    
C18   H30   S    
C15   N6    A    
O1    Zn1   S    
C8    C16   S    
C30   H24   S    
C1    O2    A    
C10   H23   S    
C32   H18   S    
C23   N3    A    
C10   H12   S    
C29   H11   S    
C13   C19   S    
C24   C25   A    
C4    O3    A    
C28   H15   S    
C27   H17   S    
C18   C19   S    
C25   C26   A    
O6    Zn2   S    
C12   C21   A    
C12   C26   A    
C31   H21   S    
C35   F1    S    
C37   C38   A    
C3    C9    A    
C2    C38   A    
N5    Zn2   S    
C31   C32   S    
C16   O6    A    
C17   C18   S    
C34   H6    S    
C38   H8    S    
O7    Zn1   S    
C20   O8    A    
C22   C24   A    
O3    Zn1   S    
C28   C29   S    
C23   N2    A    
C3    C5    A    
C28   H14   S    
C11   H27   S    
C6    C7    A    
C24   C33   S    
C13   C17   A    
C14   N5    A    
N1    N2    A    
O2    Zn2   S    
C5    C6    A    
C21   H1    S    
C15   H29   S    
C16   O5    A    
C3    C11   S    
C10   C11   S    
C33   N1    A    
C20   C36   S    
C33   N4    A    
C20   O7    A    
C2    C23   S    
C14   C15   A    
C19   H31   S    
C32   H20   S    
C37   H7    S    
C21   C22   A    
N6    Zn1   S    
O5    Zn1   S    
C11   H26   S    
C27   C28   S    
C29   H13   S    
