data_mof_unit_64246.cif
_audit_creation_date              2012-12-10T18:18:04-0500
_audit_creation_method            fapswitch 2.2
_symmetry_space_group_name_H-M    P1
_symmetry_Int_Tables_number       1
_space_group_crystal_system       triclinic
_cell_length_a                    19.344651
_cell_length_b                    14.677042
_cell_length_c                    15.922704
_cell_angle_alpha                 89.864433
_cell_angle_beta                  89.989374
_cell_angle_gamma                 90.157938
_cell_volume                      4520.78011504

loop_
_atom_site_label
_atom_site_type_symbol
_atom_type_description
_atom_site_fract_x
_atom_site_fract_y
_atom_site_fract_z
_atom_type_partial_charge
C1    C     C_R   0.500168 0.500090 0.339887 0.806226
C2    C     C_R   0.929591 0.501943 0.502334 0.507979
C3    C     C_R   0.182355 0.566880 0.548081 0.080487
C4    C     C_R   0.180674 0.436275 0.453606 0.142264
C5    C     C_R   0.255260 0.565721 0.547871 0.085284
C6    C     C_R   0.253189 0.434997 0.452750 0.055625
C7    C     C_R   0.290886 0.499774 0.500213 -0.105050
C8    C     C_R   0.145329 0.501885 0.501244 0.000913
C9    C     C_3   0.482157 0.596089 0.048024 -0.103458
C10   C     C_3   0.452899 0.423016 0.049958 -0.121195
C11   C     C_3   0.455760 0.416133 0.950995 0.377170
C12   C     C_3   0.469200 0.592341 0.950970 0.380672
C13   C     C_1   0.500460 0.499698 0.749157 -0.025924
C14   C     C_3   0.503948 0.499420 0.083107 -0.014563
C15   C     C_3   0.501781 0.498996 0.916311 -0.184109
C16   C     C_R   0.632774 0.500133 0.500071 0.885041
C17   C     C_3   0.580359 0.488258 0.950054 0.411600
C18   C     C_3   0.580459 0.477026 0.050329 0.153923
C19   C     C_1   0.500963 0.499431 0.824391 0.199411
C20   C     C_1   0.502356 0.500079 0.175382 0.079277
C21   C     C_1   0.501148 0.500242 0.250632 -0.130213
C22   C     C_3   0.467479 0.053117 0.584969 0.080936
C23   C     C_3   0.477262 0.946916 0.588639 0.087865
C24   C     C_3   0.572160 0.054376 0.489737 -0.129423
C25   C     C_3   0.569958 0.947257 0.476575 -0.129047
C26   C     C_3   0.496260 0.092415 0.499712 -0.133104
C27   C     C_3   0.496497 0.907648 0.499737 -0.140665
C28   C     C_3   0.444171 0.945383 0.431156 0.366589
C29   C     C_3   0.451905 0.054454 0.423182 0.368586
C30   C     C_1   0.497760 0.804621 0.501021 0.376336
C31   C     C_1   0.497634 0.195356 0.501005 0.344661
C32   C     C_R   0.500091 0.499912 0.659955 0.826395
C33   C     C_R   0.367157 0.499842 0.499650 0.835870
C34   C     C_R   0.744459 0.558630 0.555949 0.047867
C35   C     C_R   0.745216 0.442974 0.445936 0.047460
C36   C     C_R   0.817104 0.558921 0.556750 0.220443
C37   C     C_R   0.817861 0.443742 0.446152 0.219926
C38   C     C_R   0.853807 0.501580 0.501725 -0.122133
C39   C     C_R   0.708666 0.500542 0.500674 -0.093862
C40   C     C_R   0.069354 0.502152 0.502190 0.487338
Cu1   Cu    Cu3+1 0.500090 0.589920 0.499910 1.070801
Cu2   Cu    Cu3+1 0.500090 0.410080 0.499910 1.049155
H1    H     H_    0.522017 0.934620 0.630534 0.129949
H2    H     H_    0.498270 0.082877 0.637074 0.156643
H3    H     H_    0.595509 0.084579 0.432277 0.212326
H4    H     H_    0.577733 0.935819 0.408229 0.223937
H5    H     H_    0.470888 0.357386 0.076758 0.188918
H6    H     H_    0.526252 0.642498 0.056401 0.188905
N1    N     N_R   0.964982 0.423923 0.517133 -0.158248
N2    N     N_R   0.965169 0.580135 0.487651 -0.164126
N3    N     N_R   0.033722 0.423995 0.516899 -0.171725
N4    N     N_R   0.033932 0.580272 0.487730 -0.170540
N5    N     N_1   0.498600 0.724970 0.501390 -0.131696
N6    N     N_1   0.498600 0.275030 0.501390 -0.137585
O1    O     O_R   0.500080 0.575970 0.379360 -0.560742
O2    O     O_R   0.500080 0.424030 0.379360 -0.567413
O3    O     O_R   0.599930 0.575960 0.499920 -0.565128
O4    O     O_R   0.599930 0.424040 0.499920 -0.558719
O5    O     O_R   0.500070 0.575900 0.620490 -0.550526
O6    O     O_R   0.500070 0.424100 0.620490 -0.558536
O7    O     O_R   0.400220 0.575910 0.499940 -0.534535
O8    O     O_R   0.400220 0.424090 0.499940 -0.588402
N7    N     N_3   0.706327 0.615115 0.612900 -0.536328
H7    H     H_    0.719862 0.597532 0.674388 0.282990
H8    H     H_    0.720146 0.683074 0.602211 0.269267
N8    N     N_3   0.707862 0.385946 0.388481 -0.555134
H9    H     H_    0.721903 0.403740 0.327183 0.258563
H10   H     H_    0.721881 0.318195 0.399348 0.271544
Br1   Br    Br    0.641721 0.587416 0.912146 -0.346320
Br2   Br    Br    0.633212 0.391620 0.893157 -0.314173
N9    N     N_3   0.616933 0.084459 0.559190 -0.560552
H11   H     H_    0.608214 0.046818 0.613779 0.237559
H12   H     H_    0.668671 0.075416 0.542202 0.251448
N10   N     N_3   0.626692 0.897514 0.517521 -0.566308
H13   H     H_    0.625059 0.902963 0.582723 0.240936
H14   H     H_    0.673957 0.923657 0.496458 0.253611
Br3   Br    Br    0.362978 0.117765 0.410622 -0.304241
Br4   Br    Br    0.349424 0.906070 0.457605 -0.276033
Br5   Br    Br    0.495985 0.093479 0.317049 -0.400877
Br6   Br    Br    0.458865 0.881995 0.323553 -0.357966
Br7   Br    Br    0.374966 0.095719 0.615453 -0.271640
Br8   Br    Br    0.406684 0.879107 0.652015 -0.297864
Br9   Br    Br    0.865320 0.634826 0.636633 -0.390856
Br10  Br    Br    0.867125 0.368596 0.366846 -0.409071
N11   N     N_3   0.145316 0.632244 0.597563 -0.529877
H15   H     H_    0.159061 0.624084 0.660591 0.252290
H16   H     H_    0.159377 0.697729 0.577981 0.258602
N12   N     N_3   0.142357 0.372007 0.404091 -0.518903
H17   H     H_    0.155996 0.306284 0.423265 0.278658
H18   H     H_    0.156716 0.380064 0.341194 0.264781
N13   N     N_3   0.293584 0.629765 0.597742 -0.523637
H19   H     H_    0.280941 0.695799 0.578570 0.269201
H20   H     H_    0.279813 0.621510 0.660770 0.253547
N14   N     N_3   0.287128 0.368959 0.400819 -0.544928
H21   H     H_    0.313534 0.322942 0.439199 0.289768
H22   H     H_    0.322168 0.402312 0.361210 0.233273
Br11  Br    Br    0.372032 0.613522 0.921026 -0.381551
Br12  Br    Br    0.365024 0.401456 0.895905 -0.346981
N15   N     N_3   0.427280 0.640455 0.097163 -0.508066
H23   H     H_    0.380136 0.606810 0.093497 0.279269
H24   H     H_    0.420093 0.706765 0.074607 0.294220
N16   N     N_3   0.382726 0.433800 0.084000 -0.534972
H25   H     H_    0.352975 0.476780 0.046795 0.285973
H26   H     H_    0.357877 0.370383 0.083367 0.279760
Br13  Br    Br    0.487928 0.294529 0.919032 -0.357194
Br14  Br    Br    0.505672 0.703898 0.898718 -0.333503
N17   N     N_3   0.633146 0.536997 0.089261 -0.467269
H27   H     H_    0.636090 0.525150 0.153952 0.226570
H28   H     H_    0.625229 0.606441 0.081153 0.243149
N18   N     N_3   0.601432 0.383826 0.074721 -0.480057
H29   H     H_    0.575928 0.332588 0.042372 0.268441
H30   H     H_    0.593379 0.372851 0.138887 0.224769

loop_
_geom_bond_atom_site_label_1
_geom_bond_atom_site_label_2
_ccdc_geom_bond_type
N8    H10   S    
N7    H8    S    
C1    C21   S    
C23   Br8   S    
C3    N11   S    
C7    C33   S    
Cu1   Cu2   S    
C14   C18   S    
C13   C32   S    
Cu1   O7    S    
C4    C8    A    
Cu2   O4    S    
N11   H15   S    
C15   C19   S    
N10   H14   S    
C11   Br12  S    
C24   H3    S    
C28   C29   S    
C35   C37   A    
C1    O2    A    
C24   C26   S    
N16   H26   S    
C36   Br9   S    
C23   H1    S    
C25   N10   S    
N18   H29   S    
Cu1   O1    S    
C2    N2    A    
Cu2   O2    S    
C18   N17   S    
C11   C15   S    
C22   H2    S    
C33   O8    A    
N1    N3    A    
C11   Br13  S    
N2    N4    A    
N17   H27   S    
C37   Br10  S    
C23   C27   S    
C28   Br4   S    
Cu2   O8    S    
N8    H9    S    
C26   C31   S    
C9    N15   S    
C27   C30   S    
N17   H28   S    
N14   H21   S    
N11   H16   S    
C30   N5    T    
N10   H13   S    
C13   C19   T    
C34   C39   A    
C22   Br7   S    
C14   C20   S    
C10   N16   S    
C24   C25   S    
Cu1   O5    S    
C4    C6    A    
C3    C8    A    
C10   C14   S    
Cu2   O6    S    
N13   H19   S    
C5    C7    A    
C35   N8    S    
C6    N14   S    
C40   N4    A    
C35   C39   A    
C9    C14   S    
C37   C38   A    
C2    N1    A    
N13   H20   S    
C2    C38   S    
N15   H23   S    
C29   Br5   S    
C12   C15   S    
C17   C18   S    
C16   O4    A    
C20   C21   T    
N14   H22   S    
Cu1   N5    S    
C12   Br11  S    
C5    N13   S    
C26   C29   S    
N15   H24   S    
N12   H18   S    
C32   O6    A    
C10   H5    S    
N9    H12   S    
C15   C17   S    
C17   Br1   S    
C18   N18   S    
C3    C5    A    
C6    C7    A    
C4    N12   S    
C25   C27   S    
C40   N3    A    
C36   C38   A    
C1    O1    A    
Cu1   O3    S    
N9    H11   S    
Cu2   N6    S    
C12   Br14  S    
C34   N7    S    
C34   C36   A    
C16   O3    A    
C31   N6    T    
N16   H25   S    
C28   Br6   S    
C9    C12   S    
N18   H30   S    
C10   C11   S    
C16   C39   S    
N7    H7    S    
C17   Br2   S    
C29   Br3   S    
N12   H17   S    
C9    H6    S    
C33   O7    A    
C22   C26   S    
C27   C28   S    
C22   C23   S    
C8    C40   S    
C32   O5    A    
C25   H4    S    
C24   N9    S    
