data_mof_unit_48901.cif
_audit_creation_date              2012-10-26T20:02:34-0400
_audit_creation_method            fapswitch 2.2
_symmetry_space_group_name_H-M    P1
_symmetry_Int_Tables_number       1
_space_group_crystal_system       triclinic
_cell_length_a                    19.056108
_cell_length_b                    18.461349
_cell_length_c                    12.351522
_cell_angle_alpha                 90.024179
_cell_angle_beta                  129.173245
_cell_angle_gamma                 89.985413
_cell_volume                      3368.63525688

loop_
_atom_site_label
_atom_site_type_symbol
_atom_type_description
_atom_site_fract_x
_atom_site_fract_y
_atom_site_fract_z
_atom_type_partial_charge
C1    C     C_R   0.612252 0.898245 0.652962 0.534542
C2    C     C_R   0.660558 0.721650 0.015198 0.056921
C3    C     C_R   0.160100 0.779122 0.014021 0.051767
C4    C     C_R   0.160561 0.221644 0.015189 0.056939
C5    C     C_R   0.583262 0.245802 0.897276 -0.133914
C6    C     C_R   0.583683 0.754808 0.898264 -0.129761
C7    C     C_R   0.083233 0.746011 0.896925 -0.133853
C8    C     C_R   0.083681 0.254793 0.898242 -0.129743
C9    C     C_R   0.587381 0.209945 0.802862 -0.116367
C10   C     C_R   0.587675 0.790385 0.803550 -0.116022
C11   C     C_R   0.087435 0.710060 0.802674 -0.116338
C12   C     C_R   0.612243 0.101758 0.652961 0.534860
C13   C     C_R   0.087675 0.290375 0.803535 -0.116026
C14   C     C_R   0.317170 0.814440 0.151185 -0.130565
C15   C     C_R   0.317373 0.185729 0.151510 -0.123290
C16   C     C_R   0.817073 0.314550 0.150980 -0.130621
C17   C     C_R   0.817363 0.685714 0.151487 -0.123295
C18   C     C_R   0.230501 0.850337 0.224161 -0.131010
C19   C     C_R   0.230963 0.150394 0.225190 -0.128913
C20   C     C_R   0.730626 0.350143 0.224479 -0.131048
C21   C     C_R   0.730979 0.650419 0.225225 -0.128909
C22   C     C_R   0.677805 0.159457 0.740361 -0.002958
C23   C     C_R   0.112253 0.398245 0.652963 0.534522
C24   C     C_R   0.677893 0.840616 0.740517 -0.002046
C25   C     C_R   0.177969 0.659323 0.740576 -0.002944
C26   C     C_R   0.177900 0.340620 0.740525 -0.002047
C27   C     C_R   0.686418 0.992995 0.290374 0.035997
C28   C     C_R   0.186414 0.492994 0.290368 0.036061
C29   C     C_R   0.343809 0.000519 0.627861 0.047564
C30   C     C_R   0.843809 0.500516 0.627860 0.047538
C31   C     C_R   0.309974 0.000448 0.700166 -0.156171
C32   C     C_R   0.809973 0.500437 0.700165 -0.156192
C33   C     C_R   0.384299 0.098742 0.342531 0.544656
C34   C     C_R   0.112281 0.601728 0.653008 0.534801
C35   C     C_R   0.384238 0.901323 0.342422 0.544051
C36   C     C_R   0.884301 0.598744 0.342534 0.544668
C37   C     C_R   0.884240 0.401318 0.342425 0.544068
C38   C     C_R   0.369028 0.999770 0.845864 -0.133509
C39   C     C_R   0.869027 0.499758 0.845863 -0.133545
C40   C     C_R   0.463571 0.999170 0.922139 -0.002188
C41   C     C_R   0.963570 0.499163 0.922138 -0.002195
C42   C     C_R   0.494957 0.999322 0.842963 0.178888
C43   C     C_R   0.994956 0.499319 0.842963 0.178919
C44   C     C_R   0.527851 0.998265 0.073226 -0.033660
C45   C     C_R   0.241816 0.779594 0.033032 0.031023
C46   C     C_R   0.027849 0.498259 0.073225 -0.033666
C47   C     C_R   0.622189 0.995662 0.141981 0.011108
C48   C     C_R   0.122186 0.495657 0.141978 0.011113
C49   C     C_R   0.650400 0.998006 0.061387 -0.148358
C50   C     C_R   0.150399 0.497998 0.061387 -0.148357
C51   C     C_R   0.588763 0.999315 0.916849 -0.099402
C52   C     C_R   0.088763 0.499312 0.916849 -0.099375
C53   C     C_R   0.502627 0.000240 0.159746 0.027500
C54   C     C_R   0.002626 0.500236 0.159746 0.027476
C55   C     C_R   0.655730 0.996789 0.367215 0.042796
C56   C     C_R   0.242104 0.220827 0.033697 0.036635
C57   C     C_R   0.155729 0.496791 0.367213 0.042854
C58   C     C_R   0.655708 0.313142 0.111300 -0.125983
C59   C     C_R   0.656169 0.687607 0.112317 -0.121638
C60   C     C_R   0.155578 0.813390 0.110880 -0.125974
C61   C     C_R   0.156157 0.187582 0.112283 -0.121628
C62   C     C_R   0.310720 0.852264 0.242182 0.000017
C63   C     C_R   0.310969 0.148026 0.242631 0.002548
C64   C     C_R   0.810732 0.352243 0.242202 -0.000026
C65   C     C_R   0.810972 0.648029 0.242635 0.002526
C66   C     C_R   0.754800 0.164931 0.749412 -0.125893
C67   C     C_R   0.741712 0.279661 0.032921 0.031009
C68   C     C_R   0.754876 0.835120 0.749534 -0.126628
C69   C     C_R   0.255121 0.664568 0.749980 -0.125826
C70   C     C_R   0.254891 0.335132 0.749554 -0.126614
C71   C     C_R   0.325368 0.710664 0.846286 -0.136463
C72   C     C_R   0.325185 0.289110 0.845956 -0.136164
C73   C     C_R   0.824913 0.211186 0.845454 -0.136496
C74   C     C_R   0.825157 0.789089 0.845918 -0.136167
C75   C     C_R   0.321922 0.749498 0.939188 -0.119574
C76   C     C_R   0.321939 0.250562 0.939267 -0.117232
C77   C     C_R   0.821526 0.249934 0.938491 -0.119613
C78   C     C_R   0.742090 0.720816 0.033679 0.036641
C79   C     C_R   0.821908 0.750539 0.939225 -0.117220
C80   C     C_R   0.745410 0.244986 0.933903 0.034920
C81   C     C_R   0.745752 0.755425 0.934585 0.037980
C82   C     C_R   0.245623 0.744800 0.934208 0.034925
C83   C     C_R   0.245771 0.255440 0.934611 0.037987
C84   C     C_R   0.669540 0.204220 0.825038 0.023711
C85   C     C_R   0.669785 0.796047 0.825548 0.025135
C86   C     C_R   0.169685 0.704158 0.825148 0.023675
C87   C     C_R   0.169795 0.296051 0.825557 0.025144
C88   C     C_2   0.785367 0.984079 0.370164 0.538594
C89   C     C_R   0.660118 0.278995 0.014240 0.051783
C90   C     C_2   0.285356 0.484082 0.370145 0.538550
Cu1   Cu    Cu3+1 0.526340 1.000000 0.421010 0.930741
Cu2   Cu    Cu3+1 0.026340 0.500000 0.421010 0.930753
Cu3   Cu    Cu3+1 0.473640 0.000000 0.578990 0.910120
Cu4   Cu    Cu3+1 0.973640 0.500000 0.578990 0.910147
H1    H     H_    0.224553 0.879783 0.293903 0.123157
H2    H     H_    0.838777 0.499367 0.895784 0.104011
H3    H     H_    0.237553 0.000807 0.642962 0.111555
H4    H     H_    0.737552 0.500792 0.642960 0.111555
H5    H     H_    0.618427 0.000538 0.867256 0.187787
H6    H     H_    0.118428 0.500537 0.867257 0.187767
H7    H     H_    0.593544 0.312974 0.097337 0.108075
H8    H     H_    0.594061 0.687944 0.098530 0.106364
H9    H     H_    0.093321 0.813370 0.096666 0.108067
H10   H     H_    0.094036 0.187898 0.098468 0.106451
H11   H     H_    0.382029 0.813975 0.174663 0.119228
H12   H     H_    0.225055 0.121093 0.295071 0.121513
H13   H     H_    0.382097 0.185843 0.174559 0.119868
H14   H     H_    0.881859 0.314192 0.174224 0.119304
H15   H     H_    0.882086 0.685821 0.174522 0.119880
H16   H     H_    0.761981 0.132003 0.684294 0.144817
H17   H     H_    0.761950 0.867902 0.684188 0.135698
H18   H     H_    0.262330 0.631561 0.684971 0.144762
H19   H     H_    0.261961 0.367912 0.684203 0.135694
H20   H     H_    0.379296 0.783818 0.011327 0.104069
H21   H     H_    0.379380 0.216325 0.011472 0.102963
H22   H     H_    0.878776 0.284400 0.010403 0.104087
H23   H     H_    0.724758 0.379479 0.294401 0.123226
H24   H     H_    0.879341 0.716299 0.011421 0.103006
H25   H     H_    0.384265 0.714634 0.851937 0.113060
H26   H     H_    0.383979 0.284983 0.851359 0.111225
H27   H     H_    0.883662 0.215357 0.850784 0.113129
H28   H     H_    0.883943 0.784957 0.851312 0.111211
H29   H     H_    0.703255 0.994971 0.480227 0.150393
H30   H     H_    0.203256 0.494977 0.480225 0.150333
H31   H     H_    0.911451 0.010901 0.541487 0.342545
H32   H     H_    0.411424 0.510937 0.541402 0.342549
H33   H     H_    0.432753 0.002221 0.116229 0.126382
H34   H     H_    0.725086 0.621140 0.295135 0.121535
H35   H     H_    0.932752 0.502216 0.116229 0.126359
H36   H     H_    0.519573 0.247452 0.878591 0.102487
H37   H     H_    0.520030 0.753249 0.879718 0.102827
H38   H     H_    0.019465 0.747807 0.877999 0.102500
H39   H     H_    0.020018 0.253216 0.879671 0.102763
H40   H     H_    0.524502 0.188438 0.710675 0.155587
H41   H     H_    0.524721 0.811720 0.711265 0.153829
H42   H     H_    0.024561 0.688608 0.710382 0.155480
H43   H     H_    0.024714 0.311696 0.711231 0.153779
H44   H     H_    0.721212 0.000339 0.108857 0.166302
H45   H     H_    0.221213 0.500327 0.108864 0.166283
H46   H     H_    0.297326 0.000959 0.514899 0.121106
H47   H     H_    0.797326 0.500957 0.514899 0.121113
H48   H     H_    0.338779 0.999386 0.895785 0.104029
N1    N     N_R   0.566260 0.000000 0.302220 -0.255210
N2    N     N_R   0.066260 0.500000 0.302220 -0.255197
N3    N     N_R   0.434410 0.000000 0.697680 -0.236547
N4    N     N_R   0.934410 0.500000 0.697680 -0.236529
O1    O     O_R   0.608610 0.924520 0.551740 -0.503075
O2    O     O_R   0.435880 0.924530 0.314850 -0.504537
O3    O     O_R   0.935880 0.575470 0.314850 -0.505364
O4    O     O_R   0.935880 0.424530 0.314850 -0.504568
O5    O     O_R   0.391380 0.075460 0.448260 -0.510270
O6    O     O_R   0.391380 0.924540 0.448260 -0.510285
O7    O     O_R   0.891380 0.575460 0.448260 -0.510243
O8    O     O_R   0.891380 0.424540 0.448260 -0.510314
O9    O     O_2   0.814133 0.941140 0.331097 -0.525733
O10   O     O_R   0.845883 0.022256 0.494933 -0.719696
O11   O     O_2   0.314122 0.441112 0.331114 -0.525723
O12   O     O_R   0.608610 0.075480 0.551740 -0.497592
O13   O     O_R   0.345862 0.522301 0.494851 -0.719696
O14   O     O_R   0.108610 0.424520 0.551740 -0.503090
O15   O     O_R   0.108610 0.575480 0.551740 -0.497565
O16   O     O_R   0.564110 0.924510 0.685150 -0.524116
O17   O     O_R   0.564110 0.075490 0.685150 -0.526832
O18   O     O_R   0.064110 0.424510 0.685150 -0.524123
O19   O     O_R   0.064110 0.575490 0.685150 -0.526767
O20   O     O_R   0.435880 0.075470 0.314850 -0.505383

loop_
_geom_bond_atom_site_label_1
_geom_bond_atom_site_label_2
_ccdc_geom_bond_type
Cu2   O15   S    
Cu4   N4    S    
C83   C87   A    
C13   C87   A    
C10   C85   A    
C8    C13   A    
C41   C43   A    
Cu1   O20   S    
C54   N2    A    
C33   O20   A    
C78   C81   A    
C37   O4    A    
C80   C84   A    
C34   O15   A    
Cu1   O1    S    
C39   C41   A    
C28   C57   A    
C7    C11   A    
C30   H47   S    
C88   O10   S    
C38   C40   A    
C21   C59   A    
C3    C7    A    
C29   N3    A    
C69   H18   S    
C27   C55   A    
C36   O3    A    
C32   C39   A    
Cu3   O17   S    
C11   C86   A    
C68   C74   A    
C14   C62   A    
C79   H24   S    
C12   C22   S    
C67   C89   A    
C76   H21   S    
C76   C83   A    
C23   C26   S    
C15   H13   S    
C90   O13   S    
C69   C71   A    
Cu1   O2    S    
Cu1   O12   S    
C53   H33   S    
C44   C53   A    
C14   H11   S    
C22   C66   A    
C45   C82   A    
C19   C63   A    
C26   C87   A    
C49   C51   A    
C50   C52   A    
C41   C46   A    
Cu3   N3    S    
C77   H22   S    
C24   C85   A    
H31   O10   S    
C4    C8    A    
C42   C51   A    
C3    C60   A    
C40   C42   A    
C49   H44   S    
C4    C56   A    
C18   H1    S    
C38   H48   S    
C46   C54   A    
C2    C6    A    
Cu2   N2    S    
Cu4   O19   S    
C20   H23   S    
C36   O7    A    
C30   N4    A    
C14   C45   A    
Cu1   N1    S    
C70   H19   S    
C51   H5    S    
C46   C48   A    
C71   C75   A    
C55   N1    A    
C88   O9    D    
C61   H10   S    
C10   H41   S    
C47   C49   A    
C33   O5    A    
C75   H20   S    
C24   C68   A    
C2    C59   A    
C18   C62   A    
H32   O13   S    
C66   C73   A    
C4    C61   A    
C3    C45   A    
C53   N1    A    
C68   H17   S    
C22   C84   A    
C20   C64   A    
C5    C9    A    
C2    C78   A    
Cu1   Cu3   S    
C33   C63   S    
C23   O14   A    
C72   H26   S    
Cu2   Cu4   S    
C7    H38   S    
C72   C76   A    
C16   C67   A    
C66   H16   S    
C21   H34   S    
C58   H7    S    
C18   C60   A    
C5    H36   S    
C74   H28   S    
C1    O16   A    
C73   H27   S    
C74   C79   A    
Cu2   O4    S    
C26   C70   A    
C25   C86   A    
C1    O1    A    
C25   C69   A    
C35   O6    A    
C20   C58   A    
C34   O19   A    
C55   H29   S    
Cu4   O18   S    
C37   C64   S    
C56   C83   A    
C79   C81   A    
C23   O18   A    
C77   C80   A    
C27   C47   A    
C29   H46   S    
C28   C48   A    
C73   C77   A    
C57   N2    A    
C21   C65   A    
C8    H39   S    
C50   H45   S    
C59   H8    S    
C37   O8    A    
C54   H35   S    
C67   C80   A    
C6    H37   S    
C17   H15   S    
C6    C10   A    
C28   C90   S    
C44   C47   A    
C75   C82   A    
C25   C34   S    
C17   C65   A    
C31   C38   A    
C71   H25   S    
Cu2   O14   S    
C15   C56   A    
C36   C65   S    
C90   O11   D    
C29   C31   A    
C43   N4    A    
C82   C86   A    
C11   H42   S    
C9    H40   S    
C12   O17   A    
C30   C32   A    
Cu4   O8    S    
C60   H9    S    
Cu3   O16   S    
C19   C61   A    
Cu4   O7    S    
C48   C50   A    
C17   C78   A    
C32   H4    S    
C35   C62   S    
C35   O2    A    
C31   H3    S    
C27   C88   S    
C43   C52   A    
C58   C89   A    
C5    C89   A    
C39   H2    S    
Cu3   O5    S    
C16   H14   S    
C9    C84   A    
C19   H12   S    
C40   C44   A    
C1    C24   S    
Cu2   O3    S    
C52   H6    S    
C15   C63   A    
Cu3   O6    S    
C70   C72   A    
C16   C64   A    
C12   O12   A    
C42   N3    A    
C81   C85   A    
C13   H43   S    
C57   H30   S    
