data_mof_unit_17422.cif
_audit_creation_date              2012-12-10T19:05:55-0500
_audit_creation_method            fapswitch 2.2
_symmetry_space_group_name_H-M    P1
_symmetry_Int_Tables_number       1
_space_group_crystal_system       triclinic
_cell_length_a                    19.369225
_cell_length_b                    10.843386
_cell_length_c                    9.546302
_cell_angle_alpha                 89.690407
_cell_angle_beta                  90.140149
_cell_angle_gamma                 90.146364
_cell_volume                      2004.94881377

loop_
_atom_site_label
_atom_site_type_symbol
_atom_type_description
_atom_site_fract_x
_atom_site_fract_y
_atom_site_fract_z
_atom_type_partial_charge
C1    C     C_R   0.501919 0.262269 0.500069 0.811466
C2    C     C_R   0.290347 0.484890 0.498749 -0.297591
C3    C     C_R   0.928861 0.508898 0.502234 0.416870
C4    C     C_R   0.068715 0.502654 0.497720 0.505104
C5    C     C_R   0.816023 0.438200 0.599931 -0.172631
C6    C     C_R   0.744181 0.437660 0.598376 -0.213070
C7    C     C_R   0.707842 0.510048 0.501193 -0.122578
C8    C     C_R   0.744662 0.587827 0.407494 0.398465
C9    C     C_R   0.816636 0.584310 0.407120 -0.143798
C10   C     C_R   0.852872 0.510318 0.503146 -0.032388
C11   C     C_R   0.501573 0.062665 0.624791 0.066866
C12   C     C_R   0.367157 0.494320 0.499817 0.826049
C13   C     C_R   0.509360 0.128961 0.499844 -0.135609
C14   C     C_R   0.526513 0.064367 0.376148 0.401767
C15   C     C_R   0.524517 0.934949 0.377877 -0.317320
C16   C     C_R   0.507428 0.870531 0.500615 -0.137373
C17   C     C_R   0.500729 0.935730 0.625098 0.095866
C18   C     C_3   0.444981 0.929420 0.732681 -0.425325
C19   C     C_3   0.446214 0.069304 0.733319 -0.473111
C20   C     C_R   0.517319 0.603971 0.073163 0.174789
C21   C     C_R   0.476453 0.401283 0.074767 -0.012529
C22   C     C_R   0.477116 0.400915 0.926158 -0.079997
C23   C     C_R   0.500926 0.737595 0.499903 0.806983
C24   C     C_R   0.516354 0.604761 0.925995 0.206409
C25   C     C_3   0.581362 0.679232 0.918941 0.250199
C26   C     C_3   0.584360 0.671435 0.077855 -0.537876
C27   C     C_R   0.632269 0.502963 0.500140 0.766640
C28   C     C_R   0.252454 0.492597 0.625331 0.425745
C29   C     C_R   0.180778 0.501525 0.621283 -0.329416
C30   C     C_R   0.144637 0.496828 0.494809 -0.123243
C31   C     C_R   0.180641 0.482136 0.368292 0.420065
C32   C     C_R   0.253345 0.471237 0.370490 0.250639
Cu1   Cu    Cu3+1 0.500000 0.499980 0.640670 0.983475
Cu2   Cu    Cu3+1 0.500000 0.500020 0.359330 0.985622
H1    H     H_    0.533397 0.885522 0.282096 0.152443
H2    H     H_    0.396021 0.890176 0.690935 0.205193
H3    H     H_    0.463110 0.887963 0.832866 0.182535
H4    H     H_    0.397778 0.111748 0.693207 0.183246
H5    H     H_    0.465662 0.107111 0.833884 0.195864
H6    H     H_    0.457776 0.320742 0.130138 0.156606
H7    H     H_    0.459160 0.320279 0.871334 0.120961
H8    H     H_    0.570920 0.773186 0.876819 0.065809
H9    H     H_    0.626864 0.612311 0.118049 0.262486
H10   H     H_    0.153127 0.512702 0.718947 0.198863
H11   H     H_    0.580640 0.763125 0.127092 0.152237
H12   H     H_    0.842635 0.380444 0.675437 0.173161
H13   H     H_    0.716839 0.379128 0.672128 0.176618
H14   H     H_    0.844200 0.643201 0.334134 0.176911
N1    N     N_R   0.032950 0.554920 0.390584 -0.152527
N2    N     N_R   0.964344 0.558069 0.392868 -0.235206
N3    N     N_R   0.964686 0.457424 0.609887 -0.234035
N4    N     N_R   0.033315 0.454660 0.607841 -0.247114
N5    N     N_R   0.500440 0.500930 0.147930 -0.167104
N6    N     N_R   0.500440 0.500890 0.852020 -0.158921
O1    O     O_R   0.500000 0.319640 0.618810 -0.604214
O2    O     O_R   0.500010 0.319680 0.381230 -0.537943
O3    O     O_R   0.400140 0.499970 0.618830 -0.552536
O4    O     O_R   0.400150 0.500010 0.381250 -0.557814
O5    O     O_R   0.499990 0.680320 0.618770 -0.584963
O6    O     O_R   0.500000 0.680360 0.381190 -0.583970
O7    O     O_R   0.599850 0.499990 0.618750 -0.522627
O8    O     O_R   0.599860 0.500030 0.381170 -0.566190
O9    O     O_3   0.284425 0.499781 0.754775 -0.574486
C33   C     C_3   0.298399 0.379446 0.805934 0.110153
H15   H     H_    0.338584 0.388934 0.887926 0.177644
H16   H     H_    0.320020 0.317663 0.723965 0.100627
C34   C     C_3   0.234663 0.320152 0.873851 -0.371944
H17   H     H_    0.210460 0.386783 0.946487 0.249027
H18   H     H_    0.196413 0.295323 0.791800 0.215664
C35   C     C_3   0.253967 0.203489 0.954960 -0.867627
H19   H     H_    0.206813 0.161817 0.001427 0.272181
H20   H     H_    0.278072 0.135289 0.883841 0.248378
H21   H     H_    0.290645 0.225742 0.040889 0.256472
O10   O     O_3   0.635770 0.615194 0.853736 -0.552469
C36   C     C_3   0.695070 0.691402 0.844003 0.093188
H22   H     H_    0.740028 0.629567 0.828660 0.182345
H23   H     H_    0.705276 0.743043 0.942625 0.145714
C37   C     C_3   0.690307 0.781038 0.718885 -0.382577
H24   H     H_    0.668737 0.732992 0.626385 0.224128
H25   H     H_    0.655350 0.858732 0.744246 0.200423
C38   C     C_3   0.760923 0.834176 0.681373 -0.859363
H26   H     H_    0.782660 0.885674 0.771641 0.256608
H27   H     H_    0.755631 0.898338 0.590953 0.265427
H28   H     H_    0.796986 0.759215 0.652000 0.261548
O11   O     O_3   0.143181 0.472205 0.245266 -0.703339
H29   H     H_    0.174683 0.473551 0.163948 0.364790
O12   O     O_3   0.286399 0.443619 0.246912 -0.725280
H30   H     H_    0.318023 0.373911 0.266900 0.324700
O13   O     O_3   0.713123 0.671651 0.319083 -0.751646
H31   H     H_    0.666892 0.691796 0.356289 0.313489
O14   O     O_3   0.542528 0.127984 0.254551 -0.723056
H32   H     H_    0.552939 0.068429 0.179035 0.312352

loop_
_geom_bond_atom_site_label_1
_geom_bond_atom_site_label_2
_ccdc_geom_bond_type
Cu1   O1    S    
O12   H30   S    
Cu2   O2    S    
C31   O11   S    
C2    C12   S    
C38   H26   S    
C7    C8    A    
C22   N6    A    
O11   H29   S    
C23   O5    A    
C11   C19   S    
C4    N4    A    
C28   C29   A    
C19   H4    S    
C1    O2    A    
C25   O10   S    
C30   C31   A    
C37   H25   S    
C22   H7    S    
C24   N6    A    
C15   C16   A    
Cu2   O8    S    
C7    C27   S    
C2    C32   A    
C18   C19   S    
C27   O7    A    
C26   H11   S    
C20   C24   A    
C8    C9    A    
C35   H19   S    
C9    C10   A    
C12   O4    A    
Cu1   O5    S    
C13   C14   A    
Cu2   O6    S    
C15   H1    S    
C38   H27   S    
C3    N2    A    
C26   H9    S    
Cu1   Cu2   S    
C23   O6    A    
O10   C36   S    
N3    N4    A    
C33   C34   S    
C24   C25   S    
C6    H13   S    
O14   H32   S    
C3    N3    A    
C37   H24   S    
C16   C17   A    
C25   C26   S    
C32   O12   S    
C34   H17   S    
C34   H18   S    
C33   H16   S    
C36   H22   S    
C29   C30   A    
C27   O8    A    
C31   C32   A    
C35   H21   S    
C17   C18   S    
C36   H23   S    
C19   H5    S    
C9    H14   S    
C12   O3    A    
C16   C23   S    
C29   H10   S    
C1    C13   S    
C38   H28   S    
Cu1   N6    S    
C11   C17   A    
Cu1   O3    S    
C18   H3    S    
C20   N5    A    
C25   H8    S    
C35   H20   S    
C6    C7    A    
C5    H12   S    
C4    N1    A    
C34   C35   S    
C33   H15   S    
C1    O1    A    
C5    C10   A    
C3    C10   S    
C21   N5    A    
C11   C13   A    
C37   C38   S    
C5    C6    A    
C21   H6    S    
C20   C26   S    
C36   C37   S    
C14   O14   S    
O9    C33   S    
C28   O9    S    
Cu2   N5    S    
Cu1   O7    S    
N1    N2    A    
Cu2   O4    S    
C14   C15   A    
C2    C28   A    
C8    O13   S    
O13   H31   S    
C21   C22   A    
C18   H2    S    
C4    C30   S    
