data_mof_unit_32417.cif
_audit_creation_date              2012-12-11T16:44:26-0500
_audit_creation_method            fapswitch 2.2
_symmetry_space_group_name_H-M    P1
_symmetry_Int_Tables_number       1
_space_group_crystal_system       triclinic
_cell_length_a                    27.175445
_cell_length_b                    7.195598
_cell_length_c                    22.804901
_cell_angle_alpha                 90.086095
_cell_angle_beta                  101.725115
_cell_angle_gamma                 89.972538
_cell_volume                      4366.29732275

loop_
_atom_site_label
_atom_site_type_symbol
_atom_type_description
_atom_site_fract_x
_atom_site_fract_y
_atom_site_fract_z
_atom_type_partial_charge
O1    O     O_R   0.707300 0.594030 0.176840 -0.535538
O2    O     O_R   0.292700 0.405970 0.823160 -0.543725
O3    O     O_R   0.792700 0.094030 0.323160 -0.535810
O4    O     O_R   0.207300 0.905970 0.676840 -0.535239
O5    O     O_R   0.697330 0.262360 0.295660 -0.540897
O6    O     O_R   0.302670 0.737640 0.704340 -0.540058
O7    O     O_R   0.802670 0.762360 0.204340 -0.538203
O8    O     O_R   0.197330 0.237640 0.795660 -0.537421
C1    C     C_R   0.685124 0.432787 0.312260 0.715244
C2    C     C_R   0.314970 0.567200 0.687872 0.723375
C3    C     C_R   0.815620 0.932656 0.188775 0.714393
C4    C     C_R   0.184374 0.067340 0.811218 0.713844
O9    O     O_R   0.701410 0.264250 0.175600 -0.538712
O10   O     O_R   0.298590 0.735750 0.824400 -0.537412
O11   O     O_R   0.798590 0.764250 0.324400 -0.530137
O12   O     O_R   0.201410 0.235750 0.675600 -0.529240
O13   O     O_R   0.796800 0.094950 0.202240 -0.502646
O14   O     O_R   0.203200 0.905050 0.797760 -0.502659
O15   O     O_R   0.703200 0.594950 0.297760 -0.495842
O16   O     O_R   0.296800 0.405050 0.702240 -0.497602
C5    C     C_R   0.689394 0.432679 0.153478 0.675994
C6    C     C_R   0.310500 0.567815 0.846651 0.681625
C7    C     C_R   0.810154 0.932581 0.346672 0.718125
C8    C     C_R   0.189844 0.067418 0.653328 0.720732
O17   O     O_3   0.781290 0.427390 0.258880 -0.358457
O18   O     O_3   0.218710 0.572610 0.741120 -0.356743
O19   O     O_3   0.718710 0.927390 0.241120 -0.364776
O20   O     O_3   0.281290 0.072610 0.758880 -0.370895
V1    V     V_3+5 0.744190 0.152150 0.248350 1.553852
V2    V     V_3+5 0.255810 0.847850 0.751650 1.544983
V3    V     V_3+5 0.755810 0.652150 0.251650 1.570761
V4    V     V_3+5 0.244190 0.347850 0.748350 1.558588
C9    C     C_R   0.154843 0.061888 0.594847 -0.061203
C10   C     C_R   0.845153 0.938111 0.405154 -0.060842
C11   C     C_R   0.345805 0.568138 0.905373 -0.053031
C12   C     C_R   0.654715 0.441174 0.094482 -0.043076
C13   C     C_R   0.140007 0.097653 0.487423 -0.139577
C14   C     C_R   0.859987 0.902347 0.512578 -0.139174
C15   C     C_R   0.364384 0.683516 0.007157 -0.144090
C16   C     C_R   0.641850 0.422504 0.986567 -0.136289
C17   C     C_R   0.172425 0.105620 0.543149 -0.156067
C18   C     C_R   0.827570 0.894383 0.456852 -0.155526
C19   C     C_R   0.330119 0.649914 0.954026 -0.160326
C20   C     C_R   0.673541 0.410863 0.042732 -0.163447
C21   C     C_R   0.103650 0.021190 0.590586 -0.160753
C22   C     C_R   0.896347 0.978802 0.409417 -0.160998
C23   C     C_R   0.396829 0.519726 0.910820 -0.169665
C24   C     C_R   0.603381 0.483295 0.089312 -0.148075
C25   C     C_R   0.068765 0.035615 0.535247 0.099693
C26   C     C_R   0.931231 0.964373 0.464757 0.099738
C27   C     C_R   0.433523 0.572534 0.962121 0.099875
C28   C     C_R   0.571260 0.511542 0.032447 0.100047
C29   C     C_R   0.088789 0.057780 0.483029 0.094912
C30   C     C_R   0.911207 0.942211 0.516974 0.094550
C31   C     C_R   0.415738 0.646987 0.011502 0.096783
C32   C     C_R   0.591009 0.470871 0.981041 0.093470
C33   C     C_R   0.015396 0.016158 0.529294 -0.015090
C34   C     C_R   0.984600 0.983826 0.470710 -0.014911
C35   C     C_R   0.486869 0.551275 0.966920 -0.013679
C36   C     C_R   0.519845 0.570669 0.024777 -0.011269
C37   C     C_R   0.008849 0.969470 0.421031 0.152678
C38   C     C_R   0.991147 0.030510 0.578974 0.152629
C39   C     C_R   0.500677 0.662137 0.070801 0.148956
C40   C     C_R   0.509568 0.527329 0.916290 0.154173
C41   C     C_R   0.058746 0.023953 0.426942 -0.185575
C42   C     C_R   0.941250 0.976032 0.573062 -0.185264
C43   C     C_R   0.449351 0.694464 0.064006 -0.195605
C44   C     C_R   0.560525 0.484647 0.924186 -0.187129
H1    H     H_    0.075677 0.021647 0.387806 0.155304
H2    H     H_    0.924318 0.978337 0.612197 0.155596
H3    H     H_    0.435663 0.764535 0.099654 0.153857
H4    H     H_    0.576951 0.466771 0.885027 0.156145
H5    H     H_    0.907730 0.028776 0.369733 0.149884
H6    H     H_    0.092268 0.971213 0.630270 0.149977
H7    H     H_    0.588830 0.485871 0.129863 0.141355
H8    H     H_    0.406981 0.441461 0.874825 0.147992
H9    H     H_    0.788275 0.861546 0.454246 0.143170
H10   H     H_    0.211719 0.138462 0.545753 0.142872
H11   H     H_    0.712850 0.377162 0.045862 0.110734
H12   H     H_    0.291208 0.690269 0.950529 0.110687
H13   H     H_    0.155177 0.119560 0.447551 0.125588
H14   H     H_    0.844817 0.880441 0.552450 0.126259
H15   H     H_    0.350907 0.745056 0.044346 0.119869
H16   H     H_    0.657295 0.395373 0.947174 0.121789
C45   C     C_R   0.880142 0.113181 0.145933 0.626423
C46   C     C_R   0.119851 0.886767 0.854045 0.626385
C47   C     C_R   0.639252 0.613336 0.380219 0.622978
C48   C     C_R   0.361122 0.386924 0.620161 0.619068
C49   C     C_R   0.915585 0.124424 0.109344 -0.210531
C50   C     C_R   0.084389 0.875512 0.890611 -0.210607
C51   C     C_R   0.603413 0.624288 0.416220 -0.214087
C52   C     C_R   0.397270 0.375918 0.584575 -0.213313
H17   H     H_    0.934338 0.255845 0.106443 0.138369
H18   H     H_    0.065650 0.744064 0.893517 0.138533
H19   H     H_    0.599177 0.754561 0.438514 0.134302
H20   H     H_    0.401504 0.245925 0.562123 0.133389
C53   C     C_R   0.927303 0.968588 0.077601 0.006474
C54   C     C_R   0.072638 0.031362 0.922324 0.006437
C55   C     C_R   0.574240 0.469341 0.424568 0.005537
C56   C     C_R   0.426729 0.530584 0.576777 0.005307
C57   C     C_R   0.903175 0.799146 0.084353 -0.134016
C58   C     C_R   0.096747 0.200834 0.915558 -0.134459
C59   C     C_R   0.582150 0.301327 0.396136 -0.134445
C60   C     C_R   0.418878 0.698255 0.605420 -0.123938
H21   H     H_    0.910932 0.676384 0.060254 0.122372
H22   H     H_    0.088965 0.323614 0.939633 0.122284
H23   H     H_    0.560048 0.179382 0.401128 0.127713
H24   H     H_    0.441216 0.819918 0.600844 0.128342
C61   C     C_R   0.867636 0.787058 0.121022 -0.202939
C62   C     C_R   0.132300 0.212937 0.878909 -0.203546
C63   C     C_R   0.618068 0.289419 0.359939 -0.204620
C64   C     C_R   0.382677 0.710172 0.641234 -0.186209
H25   H     H_    0.849266 0.655038 0.124247 0.187635
H26   H     H_    0.150651 0.344988 0.875670 0.188051
H27   H     H_    0.622769 0.158140 0.338462 0.197138
H28   H     H_    0.378033 0.841144 0.662916 0.194950
C65   C     C_R   0.855101 0.944143 0.151856 -0.167661
C66   C     C_R   0.144875 0.055835 0.848113 -0.168303
C67   C     C_R   0.647040 0.445240 0.351107 -0.172316
C68   C     C_R   0.353338 0.554733 0.649418 -0.169155
C69   C     C_R   0.998274 0.838847 0.033689 -0.140002
C70   C     C_R   0.001654 0.161079 0.966222 -0.139839
C71   C     C_R   0.528732 0.337253 0.501114 -0.149838
C72   C     C_R   0.472405 0.662936 0.500482 -0.150279
H29   H     H_    0.998326 0.713971 0.060127 0.119034
H30   H     H_    0.001600 0.285955 0.939783 0.119248
H31   H     H_    0.550708 0.211062 0.502992 0.115068
H32   H     H_    0.450417 0.789103 0.498608 0.113331
C73   C     C_R   0.033335 0.854622 0.996630 -0.156417
C74   C     C_R   0.966594 0.145306 0.003282 -0.156069
C75   C     C_R   0.493692 0.353068 0.538184 -0.145658
C76   C     C_R   0.507424 0.647093 0.463393 -0.148943
H33   H     H_    0.059335 0.741169 0.995627 0.109661
H34   H     H_    0.940596 0.258763 0.004290 0.109953
H35   H     H_    0.489593 0.238160 0.567411 0.116313
H36   H     H_    0.511466 0.761960 0.434129 0.113964
C77   C     C_R   0.035506 0.015891 0.962300 0.117762
C78   C     C_R   0.964424 0.984040 0.037613 0.117796
C79   C     C_R   0.464980 0.516028 0.538322 0.118899
C80   C     C_R   0.536131 0.484108 0.463229 0.117888
I1    I     I_    0.981763 0.818164 0.340011 -0.390788
I2    I     I_    0.018234 0.181802 0.659996 -0.389400
I3    I     I_    0.544299 0.819396 0.142731 -0.439595
I4    I     I_    0.478197 0.613174 0.826642 -0.439587
F1    F     F_    0.871126 0.268385 0.175997 -0.681389
F2    F     F_    0.128898 0.731540 0.824012 -0.680947
F3    F     F_    0.666753 0.767816 0.375196 -0.698771
F4    F     F_    0.333306 0.232845 0.624621 -0.700366

loop_
_geom_bond_atom_site_label_1
_geom_bond_atom_site_label_2
_ccdc_geom_bond_type
O17   V3    S    
C55   C59   A    
O1    C5    A    
C47   C51   A    
O19   V1    S    
C9    C21   A    
C16   H16   S    
C72   C79   A    
O3    C7    A    
C10   C18   A    
O1    V3    S    
O15   V3    S    
C62   C66   A    
C61   C65   A    
C33   C38   A    
C5    C12   S    
C69   H29   S    
C6    C11   S    
C35   C40   A    
C26   C30   A    
C47   F3    S    
C36   C39   A    
C40   C44   A    
O2    V4    S    
O9    V1    S    
C38   I2    S    
C23   H8    S    
C14   C18   A    
C75   H35   S    
O4    C8    A    
C25   C29   A    
C44   H4    S    
C57   C61   A    
C60   H24   S    
C52   H20   S    
O13   V1    S    
C31   C43   A    
C72   C76   A    
C59   C63   A    
O3    V1    S    
C28   C36   A    
C1    O15   A    
C56   C60   A    
C15   C31   A    
C76   C80   A    
C48   C52   A    
C2    O16   A    
C16   C32   A    
O2    C6    A    
C58   H22   S    
C10   C22   A    
C48   C68   A    
C11   C19   A    
C62   H26   S    
C16   C20   A    
C43   H3    S    
C12   C20   A    
C76   H36   S    
C72   H32   S    
C13   C29   A    
C34   C37   A    
O11   C7    A    
C11   C23   A    
C35   C36   A    
O12   C8    A    
C14   H14   S    
C49   H17   S    
C24   H7    S    
C13   H13   S    
C74   H34   S    
O10   V2    S    
C46   F2    S    
C50   H18   S    
O5    V1    S    
C57   H21   S    
C39   C43   A    
O7    V3    S    
C38   C42   A    
C54   C77   S    
O8    V4    S    
C2    C68   S    
C46   C50   A    
C17   H10   S    
C64   C68   A    
C45   C49   A    
O18   V4    S    
C15   C19   A    
C40   I4    S    
C19   H12   S    
C54   C58   A    
C71   C80   A    
C49   C53   A    
C21   H6    S    
C26   C34   A    
C69   C78   A    
C70   H30   S    
O7    C3    A    
C47   C67   A    
C56   C79   S    
C63   H27   S    
C71   H31   S    
C14   C30   A    
C21   C25   A    
O8    C4    A    
C7    C10   S    
C48   F4    S    
O9    C5    A    
C46   C66   A    
C45   C65   A    
C4    C66   S    
C63   C67   A    
C37   I1    S    
O6    V2    S    
O14   V2    S    
C1    C67   S    
C73   H33   S    
C55   C80   S    
C58   C62   A    
C27   C35   A    
C3    C65   S    
C53   C78   S    
C64   H28   S    
C29   C41   A    
C52   C56   A    
C60   C64   A    
O16   V4    S    
C3    O13   A    
C71   C75   A    
C20   H11   S    
C70   C77   A    
C69   C73   A    
O6    C2    A    
C25   C33   A    
C23   C27   A    
O11   V3    S    
C30   C42   A    
C61   H25   S    
O12   V4    S    
C22   C26   A    
C8    C9    S    
C9    C17   A    
O10   C6    A    
O20   V2    S    
C15   H15   S    
C32   C44   A    
C33   C34   A    
C42   H2    S    
C41   H1    S    
C45   F1    S    
C70   C74   A    
C12   C24   A    
C27   C31   A    
C13   C17   A    
O4    V2    S    
C75   C79   A    
C51   H19   S    
C37   C41   A    
C24   C28   A    
C73   C77   A    
C18   H9    S    
C4    O14   A    
C39   I3    S    
C59   H23   S    
O5    C1    A    
C51   C55   A    
C50   C54   A    
C22   H5    S    
C53   C57   A    
C28   C32   A    
C74   C78   A    
