data_mof_unit_50969.cif
_audit_creation_date              2012-12-11T14:10:59-0500
_audit_creation_method            fapswitch 2.2
_symmetry_space_group_name_H-M    P1
_symmetry_Int_Tables_number       1
_space_group_crystal_system       monoclinic
_cell_length_a                    20.09264
_cell_length_b                    17.284683
_cell_length_c                    15.575562
_cell_angle_alpha                 90.0
_cell_angle_beta                  51.715676
_cell_angle_gamma                 90.0
_cell_volume                      4246.01847595

loop_
_atom_site_label
_atom_site_type_symbol
_atom_type_description
_atom_site_fract_x
_atom_site_fract_y
_atom_site_fract_z
_atom_type_partial_charge
C1    C     C_R   0.349104 0.183472 0.031764 0.678369
C2    C     C_3   0.688130 0.747892 0.442801 -0.031270
C3    C     C_3   0.785429 0.196862 0.417488 -0.030499
C4    C     C_3   0.214571 0.803137 0.582511 -0.030499
C5    C     C_3   0.714572 0.696863 0.582511 -0.030500
C6    C     C_3   0.285428 0.303137 0.417488 -0.030500
C7    C     C_3   0.188130 0.752108 0.442800 -0.031269
C8    C     C_3   0.811870 0.247892 0.557200 -0.031269
C9    C     C_2   0.246176 0.716339 0.009317 0.091887
C10   C     C_2   0.753824 0.283661 0.990683 0.091887
C11   C     C_2   0.809163 0.745816 0.917936 0.099529
C12   C     C_R   0.650896 0.816528 0.968236 0.678369
C13   C     C_2   0.190837 0.254184 0.082064 0.099529
C14   C     C_2   0.690837 0.245816 0.082064 0.099529
C15   C     C_2   0.309163 0.754184 0.917936 0.099529
C16   C     C_2   0.253824 0.216339 0.990683 0.091887
C17   C     C_2   0.746176 0.783661 0.009317 0.091887
C18   C     C_R   0.349222 0.828299 0.222199 0.677444
C19   C     C_R   0.650778 0.171701 0.777801 0.677443
C20   C     C_R   0.606793 0.802261 0.787602 0.732413
C21   C     C_R   0.393207 0.197739 0.212398 0.732413
C22   C     C_R   0.893207 0.302261 0.212398 0.732414
C23   C     C_R   0.618999 0.197737 0.011423 0.743878
C24   C     C_R   0.106793 0.697739 0.787602 0.732414
C25   C     C_R   0.150778 0.328299 0.777801 0.677444
C26   C     C_R   0.849222 0.671701 0.222199 0.677444
C27   C     C_R   0.368015 0.888325 0.896026 0.792981
C28   C     C_R   0.631985 0.111674 0.103974 0.792981
C29   C     C_R   0.659927 0.903717 0.065116 0.753530
C30   C     C_R   0.340073 0.096283 0.934884 0.753530
C31   C     C_R   0.840073 0.403717 0.934884 0.753530
C32   C     C_R   0.159927 0.596283 0.065116 0.753530
C33   C     C_R   0.131985 0.388325 0.103974 0.792981
C34   C     C_R   0.381001 0.802263 0.988577 0.743877
C35   C     C_R   0.868015 0.611675 0.896026 0.792981
C36   C     C_R   0.402557 0.108272 0.306462 0.766403
C37   C     C_R   0.597443 0.891728 0.693538 0.766402
C38   C     C_R   0.644213 0.080249 0.682921 0.679673
C39   C     C_R   0.355787 0.919751 0.317079 0.679673
C40   C     C_R   0.855787 0.580249 0.317079 0.679674
C41   C     C_R   0.144213 0.419751 0.682921 0.679673
C42   C     C_R   0.097443 0.608272 0.693538 0.766404
C43   C     C_R   0.902557 0.391728 0.306462 0.766404
C44   C     C_R   0.303985 0.162420 0.996461 -0.472148
C45   C     C_R   0.881001 0.697737 0.988577 0.743877
C46   C     C_R   0.696015 0.837580 0.003539 -0.472149
C47   C     C_R   0.646899 0.187240 0.070632 -0.489876
C48   C     C_R   0.353101 0.812759 0.929368 -0.489876
C49   C     C_R   0.853101 0.687241 0.929368 -0.489876
C50   C     C_R   0.146899 0.312759 0.070632 -0.489876
C51   C     C_R   0.196015 0.662420 0.003539 -0.472148
C52   C     C_R   0.803985 0.337580 0.996461 -0.472149
C53   C     C_R   0.306096 0.861082 0.324378 -0.424891
C54   C     C_R   0.693904 0.138918 0.675622 -0.424891
C55   C     C_R   0.619113 0.816623 0.692445 -0.450410
C56   C     C_R   0.118999 0.302263 0.011423 0.743877
C57   C     C_R   0.380886 0.183377 0.307555 -0.450410
C58   C     C_R   0.880886 0.316623 0.307555 -0.450410
C59   C     C_R   0.119114 0.683377 0.692445 -0.450411
C60   C     C_R   0.193904 0.361082 0.675622 -0.424890
C61   C     C_R   0.806096 0.638918 0.324378 -0.424891
C62   C     C_3   0.273729 0.203848 0.514029 -0.098237
C63   C     C_3   0.726270 0.796151 0.485971 -0.098236
C64   C     C_3   0.823417 0.148091 0.460829 -0.101385
C65   C     C_3   0.176583 0.851909 0.539171 -0.101384
C66   C     C_3   0.676583 0.648091 0.539171 -0.101383
C67   C     C_R   0.150896 0.683472 0.968236 0.678369
C68   C     C_3   0.323417 0.351909 0.460829 -0.101383
C69   C     C_3   0.226271 0.703848 0.485971 -0.098238
C70   C     C_3   0.773729 0.296151 0.514029 -0.098238
C71   C     C_3   0.618302 0.716741 0.559568 -0.178262
C72   C     C_3   0.381698 0.283259 0.440432 -0.178262
C73   C     C_3   0.283311 0.771391 0.467330 -0.191176
C74   C     C_3   0.716689 0.228608 0.532670 -0.191177
C75   C     C_3   0.216689 0.271391 0.532671 -0.191177
C76   C     C_3   0.783311 0.728609 0.467329 -0.191177
C77   C     C_3   0.881698 0.216742 0.440433 -0.178261
C78   C     C_R   0.849104 0.316528 0.031764 0.678368
C79   C     C_3   0.118302 0.783258 0.559567 -0.178262
C80   C     C_3   0.657653 0.764314 0.600750 0.204101
C81   C     C_3   0.342347 0.235686 0.399250 0.204101
C82   C     C_3   0.245106 0.819433 0.424803 0.217940
C83   C     C_3   0.754894 0.180567 0.575197 0.217940
C84   C     C_3   0.254894 0.319433 0.575197 0.217940
C85   C     C_3   0.745106 0.680567 0.424803 0.217940
C86   C     C_3   0.842347 0.264314 0.399250 0.204101
C87   C     C_3   0.157653 0.735686 0.600750 0.204101
C88   C     C_1   0.211894 0.740039 0.119462 0.281075
C89   C     C_3   0.311870 0.252108 0.557199 -0.031270
C90   C     C_1   0.788106 0.259961 0.880538 0.281075
C91   C     C_1   0.837307 0.764127 0.809076 0.269049
C92   C     C_1   0.162693 0.235873 0.190924 0.269049
C93   C     C_1   0.662693 0.264127 0.190924 0.269049
C94   C     C_1   0.337307 0.735873 0.809076 0.269049
C95   C     C_1   0.288106 0.240039 0.880538 0.281075
C96   C     C_1   0.711894 0.759961 0.119462 0.281075
F1    F     F_    0.349820 0.254869 0.066696 -0.598254
F2    F     F_    0.668503 0.240972 0.799575 -0.632860
F3    F     F_    0.595246 0.730669 0.830039 -0.567412
F4    F     F_    0.404754 0.269330 0.169960 -0.567412
F5    F     F_    0.904754 0.230669 0.169960 -0.567413
F6    F     F_    0.095246 0.769330 0.830039 -0.567412
F7    F     F_    0.168503 0.259028 0.799575 -0.632861
F8    F     F_    0.831497 0.740972 0.200425 -0.632861
F9    F     F_    0.367379 0.918110 0.816118 -0.559431
F10   F     F_    0.632621 0.081890 0.183881 -0.559431
F11   F     F_    0.674306 0.935597 0.131684 -0.580635
F12   F     F_    0.650180 0.745131 0.933304 -0.598254
F13   F     F_    0.325694 0.064403 0.868316 -0.580635
F14   F     F_    0.825694 0.435597 0.868316 -0.580635
F15   F     F_    0.174306 0.564403 0.131684 -0.580635
F16   F     F_    0.132621 0.418110 0.183881 -0.559431
F17   F     F_    0.867379 0.581890 0.816118 -0.559431
F18   F     F_    0.422308 0.079918 0.369313 -0.572848
F19   F     F_    0.577692 0.920082 0.630687 -0.572848
F20   F     F_    0.656934 0.043456 0.597235 -0.629584
F21   F     F_    0.343066 0.956544 0.402765 -0.629584
F22   F     F_    0.843066 0.543456 0.402765 -0.629584
F23   F     F_    0.596509 0.267255 0.996028 -0.555633
F24   F     F_    0.156934 0.456544 0.597235 -0.629584
F25   F     F_    0.077692 0.579918 0.630687 -0.572848
F26   F     F_    0.922308 0.420082 0.369313 -0.572848
F27   F     F_    0.403491 0.732745 0.003972 -0.555633
F28   F     F_    0.903491 0.767254 0.003972 -0.555633
F29   F     F_    0.096509 0.232745 0.996028 -0.555633
F30   F     F_    0.150180 0.754869 0.933304 -0.598254
F31   F     F_    0.849820 0.245131 0.066696 -0.598254
F32   F     F_    0.331497 0.759028 0.200425 -0.632861
H1    H     H_    0.549428 0.713325 0.600529 0.159386
H2    H     H_    0.746440 0.857580 0.465362 0.189232
H3    H     H_    0.842460 0.086355 0.441991 0.167088
H4    H     H_    0.157540 0.913645 0.558009 0.167088
H5    H     H_    0.657541 0.586354 0.558010 0.167088
H6    H     H_    0.342459 0.413645 0.441991 0.167088
H7    H     H_    0.246441 0.642420 0.465362 0.189232
H8    H     H_    0.753559 0.357580 0.534637 0.189232
H9    H     H_    0.322542 0.231738 0.615267 0.192625
H10   H     H_    0.677457 0.768261 0.384733 0.192625
H11   H     H_    0.774338 0.176471 0.359721 0.209541
H12   H     H_    0.450572 0.286675 0.399471 0.159386
H13   H     H_    0.225663 0.823529 0.640279 0.209541
H14   H     H_    0.725663 0.676471 0.640278 0.209540
H15   H     H_    0.274337 0.323529 0.359721 0.209540
H16   H     H_    0.177458 0.731738 0.384733 0.192626
H17   H     H_    0.822542 0.268262 0.615267 0.192626
H18   H     H_    0.351932 0.766980 0.427815 0.166808
H19   H     H_    0.648068 0.233019 0.572184 0.166809
H20   H     H_    0.148068 0.266980 0.572185 0.166808
H21   H     H_    0.851932 0.733020 0.427815 0.166808
H22   H     H_    0.950572 0.213325 0.399472 0.159386
H23   H     H_    0.049428 0.786675 0.600529 0.159386
H24   H     H_    0.253559 0.142420 0.534638 0.189232
N1    N     N_R   0.408680 0.130810 0.995780 -0.157060
N2    N     N_R   0.578590 0.132790 0.846380 -0.144111
N3    N     N_R   0.578590 0.867210 0.846380 -0.184746
N4    N     N_R   0.421410 0.132790 0.153620 -0.184745
N5    N     N_R   0.921410 0.367210 0.153620 -0.184746
N6    N     N_R   0.078590 0.632790 0.846380 -0.184746
N7    N     N_R   0.078590 0.367210 0.846380 -0.144111
N8    N     N_R   0.921410 0.632790 0.153620 -0.144111
N9    N     N_R   0.403840 0.921910 0.935760 -0.193227
N10   N     N_R   0.596160 0.078090 0.064240 -0.193227
N11   N     N_R   0.596160 0.921910 0.064240 -0.167513
N12   N     N_R   0.591320 0.869190 0.004220 -0.157060
N13   N     N_R   0.403840 0.078090 0.935760 -0.167513
N14   N     N_R   0.903840 0.421910 0.935760 -0.167513
N15   N     N_R   0.096160 0.578090 0.064240 -0.167513
N16   N     N_R   0.096160 0.421910 0.064240 -0.193227
N17   N     N_R   0.903840 0.578090 0.935760 -0.193227
N18   N     N_R   0.426250 0.076100 0.213650 -0.189493
N19   N     N_R   0.573750 0.923900 0.786350 -0.189493
N20   N     N_R   0.573750 0.076100 0.786350 -0.150432
N21   N     N_R   0.426250 0.923900 0.213650 -0.150432
N22   N     N_R   0.926250 0.576100 0.213650 -0.150432
N23   N     N_R   0.591320 0.130810 0.004220 -0.191319
N24   N     N_R   0.073750 0.423900 0.786350 -0.150432
N25   N     N_R   0.073750 0.576100 0.786350 -0.189493
N26   N     N_R   0.926250 0.423900 0.213650 -0.189493
N27   N     N_1   0.183695 0.759036 0.207246 -0.055045
N28   N     N_1   0.816305 0.240964 0.792754 -0.055044
N29   N     N_1   0.859736 0.778662 0.722265 -0.080313
N30   N     N_1   0.140264 0.221338 0.277735 -0.080313
N31   N     N_1   0.640264 0.278662 0.277735 -0.080312
N32   N     N_1   0.359736 0.721338 0.722265 -0.080313
N33   N     N_1   0.316305 0.259036 0.792754 -0.055045
N34   N     N_R   0.408680 0.869190 0.995780 -0.191319
N35   N     N_1   0.683695 0.740964 0.207246 -0.055045
N36   N     N_R   0.908680 0.630810 0.995780 -0.191320
N37   N     N_R   0.091320 0.369190 0.004220 -0.191319
N38   N     N_R   0.091320 0.630810 0.004220 -0.157060
N39   N     N_R   0.908680 0.369190 0.995780 -0.157060
N40   N     N_R   0.421410 0.867210 0.153620 -0.144111
Ni1   Ni    Ni4+2 0.500000 0.131570 0.000000 0.308282
Ni2   Ni    Ni4+2 0.500000 0.868430 0.000000 0.308282
Ni3   Ni    Ni4+2 0.000000 0.631570 0.000000 0.308282
Ni4   Ni    Ni4+2 0.000000 0.368430 0.000000 0.308282
Ni5   Ni    Ni4+2 0.488900 0.000000 0.862310 0.296835
Ni6   Ni    Ni4+2 0.511100 0.000000 0.137690 0.296835
Ni7   Ni    Ni4+2 0.988900 0.500000 0.862310 0.296835
Ni8   Ni    Ni4+2 0.011100 0.500000 0.137690 0.296835

loop_
_geom_bond_atom_site_label_1
_geom_bond_atom_site_label_2
_ccdc_geom_bond_type
C27   C48   A    
C40   F22   S    
C28   C47   A    
C34   F27   S    
C65   C79   S    
C32   F15   S    
C36   N18   A    
N5    Ni4   S    
C93   N31   T    
C64   C77   S    
C29   N11   A    
C8    H17   S    
C9    C51   S    
C74   C83   S    
C39   N21   A    
C10   C52   S    
C15   C94   S    
C79   C87   S    
C65   C82   S    
C67   N38   A    
C28   N10   A    
C6    C75   S    
C43   N26   A    
C4    C87   S    
C3    C64   S    
C18   N40   A    
C22   F5    S    
C62   H24   S    
N3    N19   A    
C79   H23   S    
C20   N3    A    
N6    N25   A    
C9    C88   S    
C23   F23   S    
C4    C65   S    
C24   N6    A    
C75   C84   S    
C23   N23   A    
C63   C76   S    
C27   F9    S    
C42   N25   A    
C8    C83   S    
C62   C89   S    
C8    C70   S    
C2    C85   S    
N14   N39   A    
C63   H2    S    
C34   N34   A    
C3    C74   S    
C70   C74   S    
C71   C80   S    
C18   C53   A    
C26   F8    S    
N39   Ni4   S    
N2    Ni1   S    
C31   F14   S    
N11   N12   A    
N36   Ni3   S    
C28   F10   S    
C35   C49   A    
C29   C46   A    
N15   Ni8   S    
C31   N14   A    
C26   N8    A    
C25   C60   A    
C16   C44   S    
C14   C93   S    
C72   C81   S    
C69   C87   S    
N17   Ni7   S    
C18   F32   S    
C6    C68   S    
C36   F18   S    
C69   H7    S    
C6    C81   S    
C3    C86   S    
C70   H8    S    
C96   N35   T    
C30   C44   A    
C94   N32   T    
C15   C48   S    
C66   C85   S    
C20   C55   A    
C52   C78   A    
C78   F31   S    
C58   C86   S    
C54   C83   S    
C19   F2    S    
C63   C80   S    
C45   F28   S    
N7    Ni4   S    
C90   N28   T    
C23   C47   A    
N14   Ni7   S    
C30   F13   S    
C2    H10   S    
C74   H19   S    
C17   C46   S    
C30   N13   A    
C12   C46   A    
C36   C57   A    
C10   C14   D    
C67   F30   S    
C1    F1    S    
C4    H13   S    
C12   F12   S    
C21   F4    S    
C25   N7    A    
C25   F7    S    
N10   N23   A    
C33   C50   A    
C39   F21   S    
C35   F17   S    
C71   H1    S    
C50   C56   A    
N16   N37   A    
C53   C82   S    
C68   C84   S    
C77   H22   S    
C1    N1    A    
C64   C83   S    
C21   C57   A    
N9    N34   A    
C11   C49   S    
N13   Ni5   S    
C12   N12   A    
C66   H5    S    
C38   F20   S    
C1    C44   A    
C66   C71   S    
C38   C54   A    
C64   H3    S    
C45   C49   A    
C68   C72   S    
N2    N20   A    
N20   Ni5   S    
C17   C96   S    
C51   C67   A    
C56   F29   S    
C5    C80   S    
C69   C73   S    
C43   F26   S    
C4    C73   S    
C61   C85   S    
N38   Ni3   S    
N8    Ni3   S    
C19   C54   A    
N17   N36   A    
C62   C81   S    
C77   C86   S    
C89   H9    S    
N7    N24   A    
C91   N29   T    
C13   C92   S    
C8    C77   S    
C35   N17   A    
C57   C81   S    
C62   C75   S    
C32   N15   A    
C33   N16   A    
C34   C48   A    
C84   C89   S    
N24   Ni7   S    
C2    C71   S    
C70   C86   S    
C73   C82   S    
N18   Ni6   S    
C65   H4    S    
C2    C63   S    
C95   N33   T    
C88   N27   T    
C7    C79   S    
C22   C58   A    
C32   C51   A    
C33   F16   S    
N15   N38   A    
N26   Ni8   S    
C56   N37   A    
C11   C17   D    
C16   C95   S    
N16   Ni8   S    
N1    N13   A    
N21   Ni6   S    
N8    N22   A    
N34   Ni2   S    
C78   N39   A    
C41   C60   A    
C5    C66   S    
C42   C59   A    
C37   N19   A    
C45   N36   A    
C38   N20   A    
C14   C47   S    
C37   F19   S    
C22   N5    A    
C75   H20   S    
N10   Ni6   S    
N21   N40   A    
N22   Ni8   S    
N6    Ni3   S    
C31   C52   A    
N9    Ni5   S    
C73   H18   S    
C5    C76   S    
C68   H6    S    
C7    C69   S    
C9    C15   D    
N19   Ni5   S    
N3    Ni2   S    
C92   N30   T    
C7    H16   S    
C27   N9    A    
C40   N22   A    
C55   C80   S    
C60   C84   S    
N37   Ni4   S    
C5    H14   S    
C39   C53   A    
C20   F3    S    
C76   H21   S    
C24   C59   A    
N11   Ni6   S    
N4    N18   A    
C21   N4    A    
N4    Ni1   S    
C24   F6    S    
N5    N26   A    
C41   F24   S    
C59   C87   S    
N1    Ni1   S    
C40   C61   A    
C41   N24   A    
C13   C50   S    
C37   C55   A    
C11   C91   S    
C72   H12   S    
C7    C82   S    
C3    H11   S    
C10   C90   S    
N25   Ni7   S    
C13   C16   D    
C19   N2    A    
C43   C58   A    
C29   F11   S    
C72   C89   S    
C6    H15   S    
N12   Ni2   S    
C76   C85   S    
N23   Ni1   S    
C42   F25   S    
N40   Ni2   S    
C26   C61   A    
