data_mof_unit_65290.cif
_audit_creation_date              2012-12-10T20:57:53-0500
_audit_creation_method            fapswitch 2.2
_symmetry_space_group_name_H-M    P1
_symmetry_Int_Tables_number       1
_space_group_crystal_system       triclinic
_cell_length_a                    15.093321
_cell_length_b                    15.620204
_cell_length_c                    15.85593
_cell_angle_alpha                 89.959554
_cell_angle_beta                  89.987523
_cell_angle_gamma                 67.678402
_cell_volume                      3458.08869867

loop_
_atom_site_label
_atom_site_type_symbol
_atom_type_description
_atom_site_fract_x
_atom_site_fract_y
_atom_site_fract_z
_atom_type_partial_charge
C1    C     C_R   0.499995 0.500004 0.338925 0.903417
C2    C     C_R   0.500005 0.499996 0.661075 0.903419
C3    C     C_R   0.614851 0.898283 0.520424 0.243868
C4    C     C_R   0.385152 0.101716 0.479556 0.243867
C5    C     C_R   0.682542 0.936859 0.504682 -0.214477
C6    C     C_R   0.317460 0.063140 0.495299 -0.214480
C7    C     C_R   0.576255 0.508488 0.955392 -0.237113
C8    C     C_R   0.423745 0.491510 0.044608 -0.237112
C9    C     C_R   0.498994 0.499872 0.913049 0.015348
C10   C     C_R   0.501006 0.500126 0.086951 0.015347
C11   C     C_R   0.422315 0.491336 0.957135 0.302390
C12   C     C_R   0.577685 0.508662 0.042865 0.302390
C13   C     C_1   0.499537 0.499925 0.824203 0.049316
C14   C     C_1   0.500464 0.500073 0.175796 0.049316
C15   C     C_1   0.500086 0.500031 0.250595 -0.120323
C16   C     C_1   0.499914 0.499969 0.749405 -0.120325
C17   C     C_R   0.986901 0.415955 0.506046 0.301984
C18   C     C_R   0.013099 0.584045 0.493954 0.301984
C19   C     C_R   0.905352 0.499102 0.499992 -0.058125
C20   C     C_R   0.094648 0.500898 0.500008 -0.058123
C21   C     C_R   0.919960 0.582694 0.493925 -0.196916
C22   C     C_R   0.080041 0.417305 0.506075 -0.196918
C23   C     C_R   0.559318 0.323793 0.500658 0.881765
C24   C     C_R   0.440682 0.676207 0.499341 0.881765
C25   C     C_1   0.807206 0.499711 0.499972 0.218529
C26   C     C_1   0.192794 0.500289 0.500028 0.218524
C27   C     C_R   0.596212 0.223116 0.499479 -0.085662
C28   C     C_R   0.403788 0.776883 0.500515 -0.085662
C29   C     C_R   0.722121 0.072076 0.485217 -0.140139
C30   C     C_R   0.277881 0.927925 0.514773 -0.140139
C31   C     C_R   0.692903 0.168298 0.485909 -0.163821
C32   C     C_R   0.307098 0.831703 0.514087 -0.163822
C33   C     C_R   0.530092 0.181660 0.509600 -0.163216
C34   C     C_R   0.469909 0.818339 0.490389 -0.163215
C35   C     C_R   0.555010 0.087895 0.495545 0.107920
C36   C     C_R   0.444992 0.912104 0.504439 0.107918
C37   C     C_R   0.653635 0.031544 0.492098 0.099219
C38   C     C_R   0.346367 0.968456 0.507888 0.099219
C39   C     C_R   0.484721 0.048461 0.493671 -0.034989
C40   C     C_R   0.515282 0.951537 0.506311 -0.034989
H1    H     H_    0.758062 0.894450 0.511457 0.198696
H2    H     H_    0.241940 0.105550 0.488524 0.198695
H3    H     H_    0.540825 0.777145 0.467943 0.194613
H4    H     H_    0.459174 0.222853 0.532043 0.194612
H5    H     H_    0.254445 0.800650 0.521340 0.187275
H6    H     H_    0.745556 0.199352 0.478660 0.187275
H7    H     H_    0.141300 0.352566 0.510927 0.205451
H8    H     H_    0.858700 0.647433 0.489073 0.205458
N1    N     N_1   0.270550 0.499970 0.500020 -0.068131
N2    N     N_1   0.729450 0.500030 0.499980 -0.068130
O1    O     O_R   0.573650 0.500000 0.378020 -0.596645
O2    O     O_R   0.426350 0.500000 0.621980 -0.596645
O3    O     O_R   0.426300 0.500040 0.378020 -0.599305
O4    O     O_R   0.573700 0.499960 0.621980 -0.599306
O5    O     O_R   0.615760 0.367720 0.500000 -0.611244
O6    O     O_R   0.384240 0.632280 0.500000 -0.611244
O7    O     O_R   0.468410 0.367760 0.500000 -0.597446
O8    O     O_R   0.531590 0.632240 0.500000 -0.597442
Zn1   Zn    Zn3+2 0.598380 0.499970 0.500000 1.037833
Zn2   Zn    Zn3+2 0.401620 0.500030 0.500000 1.037833
H9    H     H_    0.797776 0.029547 0.480626 0.167044
H10   H     H_    0.202226 0.970455 0.519364 0.167045
Br1   Br    Br    0.664839 0.781822 0.580249 -0.508956
Br2   Br    Br    0.335167 0.218175 0.419729 -0.508945
Br3   Br    Br    0.684815 0.520607 0.099509 -0.429495
Br4   Br    Br    0.315185 0.479391 0.900491 -0.429495
H11   H     H_    0.635153 0.515043 0.920514 0.197380
H12   H     H_    0.364847 0.484955 0.079486 0.197380
Br5   Br    Br    0.974293 0.298622 0.514300 -0.486052
Br6   Br    Br    0.025707 0.701377 0.485699 -0.486049

loop_
_geom_bond_atom_site_label_1
_geom_bond_atom_site_label_2
_ccdc_geom_bond_type
C18   Br6   S    
C35   C39   A    
C6    C38   A    
C23   O5    A    
C1    C15   S    
C3    Br1   S    
C24   O6    A    
C18   C21   A    
C2    C16   S    
C12   Br3   S    
C4    Br2   S    
C18   C20   A    
C17   C22   A    
C4    C39   A    
C28   C32   A    
C3    C5    A    
C21   H8    S    
C36   C38   A    
C22   H7    S    
C28   C34   A    
C35   C37   A    
C29   C31   A    
C27   C33   A    
C30   C32   A    
C1    O1    A    
C5    H1    S    
N1    Zn2   S    
C10   C12   A    
C8    C11   A    
C23   O7    A    
N2    Zn1   S    
C4    C6    A    
C19   C21   A    
O3    Zn2   S    
C20   C22   A    
C3    C40   A    
C8    H12   S    
C34   C36   A    
O4    Zn1   S    
C9    C11   A    
C30   H10   S    
C2    O4    A    
C7    C12   A    
C19   C25   S    
C29   H9    S    
C26   N1    T    
O1    Zn1   S    
C5    C37   A    
C34   H3    S    
C27   C31   A    
C10   C14   S    
C24   O8    A    
O5    Zn1   S    
C36   C40   A    
C30   C38   A    
C7    H11   S    
C8    C10   A    
C32   H5    S    
C13   C16   T    
C29   C37   A    
C39   C40   A    
C7    C9    A    
C1    O3    A    
C17   Br5   S    
C17   C19   A    
O7    Zn2   S    
C9    C13   S    
C2    O2    A    
O2    Zn2   S    
C33   C35   A    
O8    Zn1   S    
C14   C15   T    
C33   H4    S    
C6    H2    S    
C25   N2    T    
C31   H6    S    
C23   C27   S    
O6    Zn2   S    
C24   C28   S    
C20   C26   S    
C11   Br4   S    
