data_mof_unit_42401.cif
_audit_creation_date              2012-12-11T16:05:06-0500
_audit_creation_method            fapswitch 2.2
_symmetry_space_group_name_H-M    P1
_symmetry_Int_Tables_number       1
_space_group_crystal_system       triclinic
_cell_length_a                    10.623663
_cell_length_b                    10.560164
_cell_length_c                    16.855848
_cell_angle_alpha                 98.210341
_cell_angle_beta                  98.597646
_cell_angle_gamma                 62.092189
_cell_volume                      1646.56602919

loop_
_atom_site_label
_atom_site_type_symbol
_atom_type_description
_atom_site_fract_x
_atom_site_fract_y
_atom_site_fract_z
_atom_type_partial_charge
C1    C     C_R   0.350333 0.785738 0.403183 0.541599
C2    C     C_3   0.370681 0.747917 0.254819 -0.117204
C3    C     C_3   0.327306 0.853843 0.329688 0.055072
C4    C     C_R   0.369624 0.346254 0.359169 0.541001
C5    C     C_3   0.389716 0.943202 0.301866 -0.120756
C6    C     C_3   0.240870 0.034797 0.257600 -0.146303
C7    C     C_3   0.179706 0.944188 0.287432 -0.126763
C8    C     C_3   0.222825 0.837829 0.212250 -0.100595
C9    C     C_3   0.284319 0.927161 0.183172 0.050253
C10   C     C_3   0.481537 0.301193 0.798679 -0.121940
C11   C     C_3   0.413872 0.444975 0.758994 -0.151379
C12   C     C_3   0.693548 0.308251 0.237156 -0.106665
C13   C     C_3   0.381205 0.367146 0.680883 0.042982
C14   C     C_3   0.449074 0.224266 0.719568 -0.101845
C15   C     C_3   0.300865 0.262181 0.743796 -0.104844
C16   C     C_R   0.704804 0.416587 0.390494 0.565530
C17   C     C_3   0.232914 0.405559 0.704667 -0.097454
C18   C     C_3   0.264934 0.482462 0.784488 -0.116346
C19   C     C_3   0.333632 0.338938 0.822415 0.052799
C20   C     C_1   0.766961 0.367802 0.715651 -0.046152
C21   C     C_1   0.811864 0.330501 0.782543 -0.047223
C22   C     C_1   0.338045 0.813351 0.709587 -0.048849
C23   C     C_3   0.744223 0.387179 0.308768 0.028438
C24   C     C_1   0.312936 0.839990 0.778426 -0.048196
C25   C     C_R   0.891258 0.310367 0.090557 0.567863
C26   C     C_R   0.318998 0.299215 0.120273 0.538447
C27   C     C_R   0.255766 0.961434 0.099248 0.559852
C28   C     C_R   0.356402 0.772607 0.626996 0.536166
C29   C     C_R   0.877829 0.302710 0.862403 0.550830
C30   C     C_R   0.311003 0.297819 0.894963 0.552880
C31   C     C_R   0.280098 0.884395 0.859061 0.556488
C32   C     C_R   0.409445 0.377843 0.601140 0.546108
C33   C     C_R   0.717258 0.410573 0.635651 0.536569
C34   C     C_3   0.900672 0.294974 0.291749 -0.127463
C35   C     C_1   0.341852 0.335837 0.275401 -0.070219
C36   C     C_1   0.330679 0.325558 0.204038 -0.066502
C37   C     C_3   0.851601 0.216342 0.218705 -0.135501
C38   C     C_3   0.883463 0.410373 0.238821 -0.130482
C39   C     C_3   0.726040 0.503656 0.256608 -0.127825
C40   C     C_3   0.679508 0.422716 0.184620 0.088165
C41   C     C_3   0.833451 0.332512 0.166480 0.090445
C42   C     C_3   0.432172 0.837707 0.225539 -0.120204
Cr1   Cr    Cr6+3 0.608340 0.611040 0.520430 1.014267
Cr2   Cr    Cr6+3 0.287650 0.601120 0.489350 1.020722
Cr3   Cr    Cr6+3 0.604040 0.287870 0.490280 1.015538
Cr4   Cr    Cr6+3 0.054020 0.052700 0.970850 1.021790
Cr5   Cr    Cr6+3 0.059230 0.375120 0.993390 1.023501
Cr6   Cr    Cr6+3 0.374950 0.061200 0.992340 1.028393
H1    H     H_    0.616015 0.266364 0.238378 0.130828
H2    H     H_    0.190004 0.587384 0.813211 0.138355
H3    H     H_    0.902607 0.099311 0.200352 0.123376
H4    H     H_    0.989002 0.246379 0.339407 0.132281
H5    H     H_    0.963340 0.450216 0.238415 0.131159
H6    H     H_    0.679688 0.619119 0.277508 0.118260
H7    H     H_    0.421797 0.630019 0.258364 0.103325
H8    H     H_    0.533015 0.798794 0.197186 0.120323
H9    H     H_    0.457738 0.985760 0.340716 0.140169
H10   H     H_    0.556249 0.583771 0.111414 0.241558
H11   H     H_    0.469798 0.499659 0.138894 0.225017
H12   H     H_    0.189129 0.153146 0.255603 0.101825
H13   H     H_    0.078230 0.984937 0.315461 0.123977
H14   H     H_    0.154897 0.792784 0.175579 0.135985
H15   H     H_    0.461882 0.519325 0.763135 0.098523
H16   H     H_    0.582381 0.259216 0.839140 0.131478
H17   H     H_    0.524481 0.117889 0.692459 0.142389
H18   H     H_    0.253569 0.186876 0.738958 0.120845
H19   H     H_    0.131611 0.447387 0.664576 0.148758
N1    N     N_3   0.565932 0.483657 0.120328 -0.621808
O1    O     O_R   0.751220 0.499230 0.435170 -0.501280
O2    O     O_R   0.412990 0.180750 0.091610 -0.511580
O3    O     O_R   0.366620 0.943130 0.065760 -0.500828
O4    O     O_R   0.477220 0.727600 0.436870 -0.520054
O5    O     O_R   0.160510 0.906330 0.879210 -0.505871
O6    O     O_R   0.930190 0.179050 0.889450 -0.494060
O7    O     O_R   0.909140 0.398170 0.896710 -0.501971
O8    O     O_R   0.186190 0.363460 0.918830 -0.497547
O9    O     O_R   0.401670 0.173200 0.913310 -0.511523
O10   O     O_R   0.356120 0.936130 0.900470 -0.488882
O11   O     O_3   0.162740 0.163010 0.985530 -0.279648
O12   O     O_R   0.297880 0.469080 0.560050 -0.492775
O13   O     O_R   0.258650 0.745120 0.411470 -0.510016
O14   O     O_R   0.297070 0.467240 0.395960 -0.487162
O15   O     O_R   0.488830 0.252610 0.387790 -0.524735
O16   O     O_R   0.724400 0.302390 0.420980 -0.490560
O17   O     O_R   0.752100 0.501210 0.612190 -0.490784
O18   O     O_R   0.478040 0.729440 0.600970 -0.512761
O19   O     O_R   0.259530 0.747110 0.588490 -0.508715
O20   O     O_R   0.489720 0.254590 0.564810 -0.518723
O21   O     O_R   0.725220 0.304230 0.585080 -0.493255
O22   O     O_3   0.500010 0.500010 0.500020 -0.317633
O23   O     O_R   0.171830 0.913880 0.057510 -0.522662
O24   O     O_R   0.940690 0.186050 0.054730 -0.522807
O25   O     O_R   0.920470 0.405720 0.075010 -0.520206
O26   O     O_R   0.196690 0.370460 0.084120 -0.505574

loop_
_geom_bond_atom_site_label_1
_geom_bond_atom_site_label_2
_ccdc_geom_bond_type
C26   O26   A    
C5    C42   S    
C11   C18   S    
C25   O25   A    
Cr1   O4    S    
C34   C37   S    
C13   C32   S    
C35   C36   T    
Cr5   O11   S    
C6    C9    S    
C12   H1    S    
Cr2   O22   S    
C7    C8    S    
C15   C19   S    
C4    O15   A    
C12   C23   S    
C9    C27   S    
C9    C42   S    
C5    C6    S    
Cr6   O11   S    
Cr5   O8    S    
C3    C7    S    
Cr2   O14   S    
C2    H7    S    
Cr4   O11   S    
C37   H3    S    
C31   O5    A    
C39   H6    S    
Cr4   O24   S    
C1    O13   A    
C32   O20   A    
C16   O16   A    
C18   C19   S    
Cr6   O10   S    
C12   C37   S    
C33   O17   A    
C7    H13   S    
C42   H8    S    
C30   O9    A    
Cr5   O26   S    
C8    C9    S    
C27   O23   A    
Cr2   O19   S    
Cr3   O21   S    
C4    C35   S    
Cr1   O1    S    
C22   C28   S    
C13   C14   S    
Cr3   O15   S    
C29   O6    A    
C2    C8    S    
C17   H19   S    
Cr1   O22   S    
C1    O4    A    
C6    H12   S    
Cr2   O12   S    
Cr3   O20   S    
C38   C41   S    
Cr2   O13   S    
C10   C14   S    
C25   C41   S    
C39   C40   S    
Cr4   O23   S    
C15   H18   S    
C21   C29   S    
C1    C3    S    
Cr1   O17   S    
Cr6   O9    S    
C12   C40   S    
C33   O21   A    
H11   N1    S    
C32   O12   A    
C30   O8    A    
C10   C19   S    
C23   C34   S    
C28   O19   A    
C17   C18   S    
Cr5   O25   S    
Cr3   O22   S    
C20   C33   S    
H10   N1    S    
C40   C41   S    
C16   C23   S    
C28   O18   A    
C26   O2    A    
C22   C24   T    
Cr3   O16   S    
Cr6   O3    S    
Cr4   O6    S    
C27   O3    A    
C18   H2    S    
C31   O10   A    
C26   C36   S    
C15   C17   S    
C25   O24   A    
C34   C38   S    
Cr1   O18   S    
C34   H4    S    
C10   H16   S    
C16   O1    A    
Cr6   O2    S    
C3    C5    S    
C6    C7    S    
C29   O7    A    
C5    H9    S    
C11   H15   S    
C13   C17   S    
C2    C3    S    
C24   C31   S    
Cr5   O7    S    
C11   C13   S    
C38   C39   S    
C38   H5    S    
C2    C42   S    
C23   C39   S    
C14   H17   S    
C37   C41   S    
C10   C11   S    
C4    O14   A    
C20   C21   T    
C40   N1    S    
C14   C15   S    
C19   C30   S    
Cr4   O5    S    
C8    H14   S    
