data_mof_unit_65457.cif
_audit_creation_date              2012-12-10T19:51:57-0500
_audit_creation_method            fapswitch 2.2
_symmetry_space_group_name_H-M    P1
_symmetry_Int_Tables_number       1
_space_group_crystal_system       triclinic
_cell_length_a                    25.988101
_cell_length_b                    26.051282
_cell_length_c                    22.204758
_cell_angle_alpha                 90.038065
_cell_angle_beta                  125.883309
_cell_angle_gamma                 89.964376
_cell_volume                      12180.0332839

loop_
_atom_site_label
_atom_site_type_symbol
_atom_type_description
_atom_site_fract_x
_atom_site_fract_y
_atom_site_fract_z
_atom_type_partial_charge
C1    C     C_R   0.650289 0.749985 0.300641 0.822040
C2    C     C_R   0.650292 0.250008 0.300629 0.826166
C3    C     C_R   0.150270 0.250005 0.300642 0.835616
C4    C     C_R   0.150272 0.749985 0.300629 0.837478
C5    C     C_3   0.624730 0.470455 0.409354 -0.432140
C6    C     C_3   0.624735 0.529608 0.409360 -0.431321
C7    C     C_3   0.124715 0.970455 0.409767 -0.432136
C8    C     C_3   0.124719 0.029608 0.409773 -0.431841
C9    C     C_3   0.472796 0.221220 0.024678 -0.270151
C10   C     C_3   0.476588 0.783401 0.024728 -0.269483
C11   C     C_3   0.976627 0.716290 0.024699 -0.263985
C12   C     C_3   0.977156 0.284279 0.024736 -0.264472
C13   C     C_3   0.940587 0.763789 0.974936 -0.203783
C14   C     C_3   0.940362 0.236980 0.974893 -0.204186
C15   C     C_3   0.442906 0.269742 0.974924 -0.202941
C16   C     C_3   0.440803 0.735864 0.974886 -0.204003
C17   C     C_1   0.889383 0.749935 0.778785 -0.098486
C18   C     C_1   0.889404 0.250087 0.778776 -0.098526
C19   C     C_1   0.389460 0.250002 0.778783 -0.100430
C20   C     C_1   0.389467 0.750027 0.778775 -0.098647
C21   C     C_1   0.610543 0.249945 0.221253 -0.067602
C22   C     C_1   0.610527 0.750037 0.221261 -0.066085
C23   C     C_1   0.110476 0.749862 0.221256 -0.071821
C24   C     C_1   0.110455 0.250109 0.221264 -0.068956
C25   C     C_3   0.998723 0.702704 0.975335 0.306781
C26   C     C_3   0.999485 0.297104 0.975413 0.306628
C27   C     C_3   0.492804 0.201816 0.975331 0.305214
C28   C     C_3   0.498641 0.797217 0.975415 0.306160
C29   C     C_3   0.963362 0.749809 0.926685 0.004810
C30   C     C_3   0.963376 0.250198 0.926682 0.005332
C31   C     C_3   0.463536 0.249931 0.926682 0.005795
C32   C     C_3   0.463528 0.750075 0.926680 0.004906
C33   C     C_3   0.556702 0.230176 0.024713 0.259714
C34   C     C_3   0.558774 0.764270 0.024748 0.258952
C35   C     C_3   0.058689 0.735802 0.024701 0.256072
C36   C     C_3   0.058912 0.263419 0.024742 0.256153
C37   C     C_3   0.536696 0.249792 0.073354 -0.012938
C38   C     C_3   0.536696 0.750200 0.073356 -0.012826
C39   C     C_3   0.036568 0.749643 0.073358 -0.012483
C40   C     C_3   0.036555 0.250333 0.073359 -0.012404
C41   C     C_3   0.023280 0.783211 0.975158 -0.270784
C42   C     C_3   0.022751 0.216202 0.975121 -0.270684
C43   C     C_3   0.527422 0.278543 0.975168 -0.273456
C44   C     C_3   0.523615 0.716825 0.975118 -0.272799
C45   C     C_R   0.849671 0.749968 0.699387 0.809594
C46   C     C_R   0.849674 0.250039 0.699374 0.808342
C47   C     C_R   0.349686 0.249983 0.699386 0.807160
C48   C     C_R   0.349685 0.750028 0.699373 0.808100
C49   C     C_3   0.507351 0.297786 0.024496 0.315360
C50   C     C_3   0.501518 0.703175 0.024412 0.315814
C51   C     C_3   0.001140 0.796630 0.024496 0.315391
C52   C     C_3   0.000380 0.203544 0.024418 0.315348
C53   C     C_1   0.922786 0.749894 0.845571 0.052940
C54   C     C_1   0.922810 0.250127 0.845564 0.052621
C55   C     C_1   0.422922 0.249996 0.845568 0.051587
C56   C     C_1   0.422922 0.750030 0.845562 0.051779
C57   C     C_1   0.577156 0.249863 0.154480 0.087832
C58   C     C_1   0.577145 0.750123 0.154486 0.088193
C59   C     C_1   0.077055 0.749734 0.154483 0.089137
C60   C     C_1   0.077032 0.250233 0.154489 0.088957
C61   C     C_R   0.506830 0.713575 0.461079 0.052621
C62   C     C_R   0.506880 0.286514 0.461278 0.051805
C63   C     C_R   0.002670 0.218535 0.452584 0.051610
C64   C     C_R   0.002792 0.781822 0.453053 0.055797
C65   C     C_R   0.551815 0.752745 0.495082 -0.129324
C66   C     C_R   0.551805 0.247274 0.495048 -0.129049
C67   C     C_R   0.051811 0.253496 0.494891 -0.133220
C68   C     C_R   0.051817 0.746650 0.494950 -0.132510
C69   C     C_R   0.537610 0.796629 0.519498 -0.231012
C70   C     C_R   0.537576 0.203356 0.519306 -0.231269
C71   C     C_R   0.041795 0.294691 0.527677 -0.221445
C72   C     C_R   0.041662 0.705292 0.527317 -0.221219
C73   C     C_R   0.483234 0.798180 0.518489 0.279377
C74   C     C_R   0.483230 0.201814 0.518353 0.279393
C75   C     C_R   0.987553 0.296436 0.526865 0.281998
C76   C     C_R   0.987424 0.703513 0.526506 0.281418
C77   C     C_R   0.442784 0.754597 0.493583 -0.185491
C78   C     C_R   0.442829 0.245433 0.493661 -0.184365
C79   C     C_R   0.942547 0.255732 0.493050 -0.187631
C80   C     C_R   0.942576 0.744346 0.493149 -0.189780
C81   C     C_R   0.453310 0.714609 0.460029 0.056706
C82   C     C_R   0.453386 0.285487 0.460285 0.055952
C83   C     C_R   0.948824 0.220067 0.450632 0.047883
C84   C     C_R   0.948996 0.780275 0.451202 0.050238
C85   C     C_3   0.453551 0.657732 0.469305 0.106098
C86   C     C_3   0.453758 0.342343 0.469929 0.106809
C87   C     C_3   0.940611 0.163081 0.443213 0.110537
C88   C     C_3   0.940894 0.837281 0.444464 0.111866
C89   C     C_R   0.889625 0.748928 0.498897 0.832620
C90   C     C_R   0.889627 0.251070 0.498871 0.830332
C91   C     C_R   0.389637 0.249075 0.498976 0.834548
C92   C     C_R   0.389626 0.750926 0.498946 0.839847
C93   C     C_3   0.512956 0.656308 0.470687 -0.148406
C94   C     C_3   0.513122 0.343756 0.471234 -0.150381
C95   C     C_3   0.001220 0.161081 0.447079 -0.145395
C96   C     C_3   0.001456 0.839327 0.448196 -0.158665
C97   C     C_R   0.761671 0.973940 0.458732 -0.066135
C98   C     C_R   0.762295 0.025797 0.459274 -0.098612
C99   C     C_R   0.246649 0.473517 0.446343 -0.034103
C100  C     C_R   0.246889 0.526224 0.446061 -0.096363
C101  C     C_R   0.742933 0.945449 0.495446 -0.073642
C102  C     C_R   0.743430 0.054477 0.495824 -0.068113
C103  C     C_R   0.257003 0.445843 0.506253 -0.084059
C104  C     C_R   0.257007 0.554291 0.505607 -0.055705
C105  C     C_R   0.718347 0.972741 0.528968 0.041798
C106  C     C_R   0.718488 0.027319 0.529046 0.047713
C107  C     C_R   0.277134 0.473344 0.572097 0.033735
C108  C     C_R   0.277115 0.527598 0.571528 0.093132
C109  C     C_3   0.792462 0.029513 0.418986 0.298469
C110  C     C_3   0.791272 0.969496 0.418026 0.343795
C111  C     C_3   0.198523 0.529424 0.363114 0.256938
C112  C     C_3   0.198132 0.469758 0.363660 0.311871
C113  C     C_R   0.609821 0.750023 0.499829 0.822739
C114  C     C_R   0.609815 0.249982 0.499805 0.823073
C115  C     C_R   0.109839 0.250079 0.499838 0.836843
C116  C     C_R   0.109842 0.749967 0.499850 0.833179
C117  C     C_R   0.748462 0.889947 0.498920 0.840472
C118  C     C_R   0.748711 0.110024 0.499092 0.830367
C119  C     C_R   0.251181 0.390085 0.501175 0.851075
C120  C     C_R   0.250879 0.609947 0.500727 0.875094
C121  C     C_R   0.750048 0.609979 0.500063 0.817411
C122  C     C_R   0.750041 0.390022 0.500054 0.817773
C123  C     C_R   0.250049 0.109978 0.500048 0.817450
C124  C     C_R   0.250043 0.890022 0.500039 0.817080
C125  C     C_R   0.695313 0.525910 0.459046 0.118407
C126  C     C_R   0.695308 0.474116 0.459040 0.118597
C127  C     C_R   0.195305 0.025910 0.459126 0.116493
C128  C     C_R   0.195301 0.974115 0.459120 0.116689
C129  C     C_R   0.750874 0.554438 0.500079 -0.086844
C130  C     C_R   0.750865 0.445561 0.500066 -0.087038
C131  C     C_R   0.250878 0.054438 0.499998 -0.086690
C132  C     C_R   0.250869 0.945561 0.499986 -0.086744
C133  C     C_R   0.808701 0.526983 0.542264 -0.173564
C134  C     C_R   0.808697 0.472990 0.542257 -0.173573
C135  C     C_R   0.308716 0.026984 0.541951 -0.173224
C136  C     C_R   0.308712 0.972989 0.541945 -0.173345
H1    H     H_    0.853764 0.546943 0.575215 0.208992
H2    H     H_    0.853758 0.453010 0.575206 0.209032
H3    H     H_    0.353786 0.046944 0.574734 0.209069
H4    H     H_    0.353781 0.953007 0.574725 0.209182
H5    H     H_    0.569385 0.829332 0.540922 0.202675
H6    H     H_    0.569315 0.170615 0.540567 0.202633
H7    H     H_    0.076922 0.324859 0.555972 0.208527
H8    H     H_    0.076661 0.674989 0.555246 0.209750
H9    H     H_    0.461151 0.646571 0.522337 0.127478
H10   H     H_    0.461436 0.353372 0.523061 0.125805
H11   H     H_    0.944206 0.144885 0.490845 0.116697
H12   H     H_    0.944509 0.855246 0.492283 0.129047
H13   H     H_    0.507037 0.635916 0.422956 0.216671
H14   H     H_    0.507198 0.364260 0.423602 0.215749
H15   H     H_    0.994710 0.146839 0.395783 0.218249
H16   H     H_    0.994876 0.853860 0.397005 0.219270
H17   H     H_    0.606907 0.453341 0.354490 0.230748
H18   H     H_    0.606914 0.546687 0.354501 0.231025
H19   H     H_    0.106664 0.953338 0.354834 0.231359
H20   H     H_    0.106670 0.046689 0.354844 0.231310
H21   H     H_    0.605214 0.453447 0.437979 0.210997
H22   H     H_    0.605220 0.546671 0.437989 0.211079
H23   H     H_    0.105418 0.953449 0.438635 0.210353
H24   H     H_    0.105424 0.046668 0.438643 0.210690
H25   H     H_    0.891656 0.775677 0.953714 0.194187
H26   H     H_    0.891240 0.225732 0.953634 0.193658
H27   H     H_    0.395793 0.286385 0.953688 0.193230
H28   H     H_    0.391927 0.723807 0.953623 0.193091
H29   H     H_    0.450888 0.197517 0.045604 0.199439
H30   H     H_    0.457823 0.810875 0.045699 0.199785
H31   H     H_    0.958022 0.688677 0.045650 0.204642
H32   H     H_    0.958986 0.312365 0.045713 0.204267
H33   H     H_    0.042091 0.810733 0.954348 0.197193
H34   H     H_    0.041130 0.188204 0.954286 0.197098
H35   H     H_    0.549513 0.302140 0.954372 0.197693
H36   H     H_    0.542578 0.689442 0.954280 0.197931
O1    O     O_3   0.749980 0.749980 0.500000 -0.513716
O2    O     O_3   0.749980 0.250020 0.500000 -0.510300
O3    O     O_3   0.249980 0.249980 0.500000 -0.509381
O4    O     O_3   0.249980 0.750020 0.500000 -0.509613
O5    O     O_R   0.887330 0.719620 0.543100 -0.597460
O6    O     O_R   0.887330 0.280380 0.543100 -0.595341
O7    O     O_R   0.387330 0.219620 0.543100 -0.599078
O8    O     O_R   0.387330 0.780380 0.543100 -0.597839
O9    O     O_R   0.612630 0.719620 0.456900 -0.642064
O10   O     O_R   0.612630 0.280380 0.456900 -0.642091
O11   O     O_R   0.112630 0.219620 0.456900 -0.644299
O12   O     O_R   0.112630 0.780380 0.456900 -0.644272
O13   O     O_R   0.698160 0.780350 0.335610 -0.593285
O14   O     O_R   0.698160 0.219650 0.335610 -0.591579
O15   O     O_R   0.198160 0.280350 0.335610 -0.599249
O16   O     O_R   0.198160 0.719650 0.335610 -0.613868
O17   O     O_R   0.801810 0.780340 0.664390 -0.636989
O18   O     O_R   0.801810 0.219660 0.664390 -0.637254
O19   O     O_R   0.301810 0.280340 0.664390 -0.644576
O20   O     O_R   0.301810 0.719660 0.664390 -0.636177
O21   O     O_R   0.637440 0.719620 0.335610 -0.632323
O22   O     O_R   0.637440 0.280380 0.335610 -0.632715
O23   O     O_R   0.137440 0.219620 0.335610 -0.629809
O24   O     O_R   0.137440 0.780380 0.335610 -0.627415
O25   O     O_R   0.862520 0.719620 0.664390 -0.615271
O26   O     O_R   0.862520 0.280380 0.664390 -0.615146
O27   O     O_R   0.362520 0.219620 0.664390 -0.616851
O28   O     O_R   0.362520 0.780380 0.664390 -0.617873
O29   O     O_R   0.844240 0.780350 0.456900 -0.613271
O30   O     O_R   0.844240 0.219650 0.456900 -0.626167
O31   O     O_R   0.344240 0.280350 0.456900 -0.614974
O32   O     O_R   0.344240 0.719650 0.456900 -0.616546
O33   O     O_R   0.655730 0.780340 0.543100 -0.639012
O34   O     O_R   0.655730 0.219660 0.543100 -0.638462
O35   O     O_R   0.155730 0.280340 0.543100 -0.638187
O36   O     O_R   0.155730 0.719660 0.543100 -0.638624
O37   O     O_R   0.758800 0.865790 0.456890 -0.606310
O38   O     O_R   0.758800 0.134210 0.456890 -0.632552
O39   O     O_R   0.258800 0.365790 0.456890 -0.603133
O40   O     O_R   0.258800 0.634210 0.456890 -0.643939
O41   O     O_R   0.698070 0.634180 0.456910 -0.646241
O42   O     O_R   0.698070 0.365820 0.456910 -0.646231
O43   O     O_R   0.198070 0.134180 0.456910 -0.648834
O44   O     O_R   0.198070 0.865820 0.456910 -0.648604
O45   O     O_R   0.741170 0.865780 0.543090 -0.625610
O46   O     O_R   0.741170 0.134220 0.543090 -0.620494
O47   O     O_R   0.241170 0.365780 0.543090 -0.658876
O48   O     O_R   0.241170 0.634220 0.543090 -0.616889
O49   O     O_R   0.801880 0.634180 0.543110 -0.624562
O50   O     O_R   0.801880 0.365820 0.543110 -0.624209
O51   O     O_R   0.301880 0.134180 0.543110 -0.623370
O52   O     O_R   0.301880 0.865820 0.543110 -0.623631
Zn1   Zn    Zn3+2 0.824140 0.706600 0.561580 1.030927
Zn2   Zn    Zn3+2 0.824140 0.293400 0.561580 1.030541
Zn3   Zn    Zn3+2 0.324140 0.206600 0.561580 1.027065
Zn4   Zn    Zn3+2 0.324140 0.793400 0.561580 1.029412
Zn5   Zn    Zn3+2 0.762580 0.793360 0.438420 1.054393
Zn6   Zn    Zn3+2 0.762580 0.206640 0.438420 1.034987
Zn7   Zn    Zn3+2 0.262580 0.293360 0.438420 1.052634
Zn8   Zn    Zn3+2 0.262580 0.706640 0.438420 1.026755
Zn9   Zn    Zn3+2 0.737390 0.793360 0.561570 0.986272
Zn10  Zn    Zn3+2 0.737390 0.206640 0.561570 0.986082
Zn11  Zn    Zn3+2 0.237390 0.293360 0.561570 0.980240
Zn12  Zn    Zn3+2 0.237390 0.706640 0.561570 1.002012
Zn13  Zn    Zn3+2 0.675820 0.706600 0.438430 0.986177
Zn14  Zn    Zn3+2 0.675820 0.293400 0.438430 0.987528
Zn15  Zn    Zn3+2 0.175820 0.206600 0.438430 0.993824
Zn16  Zn    Zn3+2 0.175820 0.793400 0.438430 0.992731
Br1   Br    Br    0.468627 0.860801 0.552284 -0.441144
Br2   Br    Br    0.468576 0.139156 0.551916 -0.442062
Br3   Br    Br    0.980528 0.355147 0.574312 -0.417503
Br4   Br    Br    0.980114 0.644562 0.573244 -0.416931
Br5   Br    Br    0.380629 0.625512 0.381417 -0.439792
Br6   Br    Br    0.380873 0.374813 0.382303 -0.423368
Br7   Br    Br    0.865829 0.144490 0.345715 -0.343978
Br8   Br    Br    0.865969 0.856271 0.347322 -0.344185
N1    N     N_3   0.569353 0.639669 0.542805 -0.447171
H37   H     H_    0.608656 0.642996 0.541286 0.196947
H38   H     H_    0.577237 0.663855 0.585137 0.195050
N2    N     N_3   0.569587 0.360220 0.543423 -0.447210
H39   H     H_    0.608854 0.356885 0.541828 0.196883
H40   H     H_    0.577460 0.335940 0.585629 0.194796
N3    N     N_3   0.053492 0.135649 0.514756 -0.453221
H41   H     H_    0.094178 0.138207 0.515890 0.202801
H42   H     H_    0.063220 0.154653 0.561952 0.190861
N4    N     N_3   0.053886 0.864442 0.516098 -0.456554
H43   H     H_    0.094536 0.861778 0.517163 0.203650
H44   H     H_    0.063528 0.845260 0.563111 0.191536
N5    N     N_3   0.692712 0.945335 0.561937 -0.408013
H45   H     H_    0.718046 0.955431 0.618014 0.199524
H46   H     H_    0.645097 0.955593 0.534866 0.195366
N6    N     N_3   0.692818 0.054856 0.561931 -0.407659
H47   H     H_    0.717976 0.044709 0.617961 0.198844
H48   H     H_    0.645135 0.044773 0.534667 0.195292
N7    N     N_3   0.297461 0.447711 0.639883 -0.450728
H49   H     H_    0.332266 0.420666 0.652711 0.194476
H50   H     H_    0.258523 0.429418 0.632870 0.239411
N8    N     N_3   0.296723 0.555434 0.637568 -0.416209
H51   H     H_    0.267489 0.544702 0.653424 0.227181
H52   H     H_    0.343348 0.544810 0.679899 0.204036
Br9   Br    Br    0.737104 0.063734 0.322963 -0.276201
Br10  Br    Br    0.734235 0.936143 0.321839 -0.271131
Br11  Br    Br    0.119656 0.563414 0.333441 -0.405975
Br12  Br    Br    0.119636 0.436293 0.335526 -0.391013
N9    N     N_3   0.856358 0.052036 0.464569 -0.444880
H53   H     H_    0.879012 0.043041 0.520686 0.141120
H54   H     H_    0.851659 0.091930 0.461142 0.237983
N10   N     N_3   0.853530 0.944289 0.462549 -0.420745
H55   H     H_    0.879220 0.955436 0.518307 0.148565
H56   H     H_    0.879193 0.955568 0.442102 0.236546
N11   N     N_3   0.224583 0.551907 0.325596 -0.413261
H57   H     H_    0.273228 0.544264 0.355485 0.207067
H58   H     H_    0.220566 0.591812 0.325812 0.263144
N12   N     N_3   0.223977 0.444873 0.327419 -0.373203
H59   H     H_    0.270652 0.456667 0.351228 0.210929
H60   H     H_    0.196177 0.455571 0.271420 0.242291
Br13  Br    Br    0.517947 0.367424 0.060522 -0.421473
Br14  Br    Br    0.503651 0.634952 0.060316 -0.418509
Br15  Br    Br    0.002941 0.864767 0.060528 -0.418587
Br16  Br    Br    0.001079 0.135674 0.060337 -0.418579
Br17  Br    Br    0.639192 0.201901 0.061423 -0.327427
Br18  Br    Br    0.644234 0.784500 0.061481 -0.335737
Br19  Br    Br    0.144229 0.715878 0.061314 -0.364284
Br20  Br    Br    0.144771 0.282220 0.061415 -0.366215
Br21  Br    Br    0.996194 0.634490 0.938900 -0.358442
Br22  Br    Br    0.998061 0.365061 0.939094 -0.359709
Br23  Br    Br    0.481480 0.132174 0.938884 -0.361521
Br24  Br    Br    0.495785 0.865510 0.939095 -0.354628

loop_
_geom_bond_atom_site_label_1
_geom_bond_atom_site_label_2
_ccdc_geom_bond_type
C35   Br19  S    
N3    H42   S    
C133  H1    S    
C36   C42   S    
C136  H4    S    
C90   O6    A    
C135  H3    S    
C15   H27   S    
C46   O18   A    
C5    C6    S    
O40   Zn8   S    
C46   O26   A    
C7    H23   S    
C10   C28   S    
O4    Zn8   S    
O49   Zn1   S    
C100  C104  A    
C72   H8    S    
C64   C84   A    
C79   C90   S    
C42   H34   S    
C13   C51   S    
C14   C52   S    
C5    C126  S    
C70   C74   A    
C117  O45   A    
C7    C128  S    
O36   Zn12  S    
O15   Zn7   S    
C125  C126  A    
C98   C109  S    
C11   H31   S    
C130  C134  A    
O2    Zn10  S    
C25   C29   S    
N1    H38   S    
C27   C31   S    
C27   Br23  S    
C28   C32   S    
O45   Zn9   S    
C4    C23   S    
C98   C102  A    
C123  O51   A    
C3    O23   A    
C94   N2    S    
C121  O41   A    
C12   C40   S    
C1    O21   A    
C44   H36   S    
C51   Br15  S    
C78   C82   A    
C68   C72   A    
C106  N6    S    
C88   H12   S    
C87   H11   S    
C68   C116  S    
C129  C133  A    
O3    Zn11  S    
N8    H52   S    
O43   Zn15  S    
C71   H7    S    
C44   C50   S    
C4    O24   A    
C65   C113  S    
C84   C88   S    
C6    C125  S    
C86   H10   S    
C3    O15   A    
C22   C58   T    
C87   Br7   S    
O14   Zn6   S    
C1    O13   A    
C94   H14   S    
C10   C38   S    
C4    O16   A    
C9    C15   S    
O1    Zn1   S    
N12   H60   S    
C11   C13   S    
C66   C70   A    
C15   C49   S    
C127  C131  A    
C74   Br2   S    
C61   C65   A    
C36   Br20  S    
C100  C111  S    
C122  O50   A    
C69   H5    S    
C73   C77   A    
C10   C16   S    
C75   C79   A    
O12   Zn16  S    
C37   C57   S    
O26   Zn2   S    
C42   C52   S    
N2    H39   S    
C90   O30   A    
C120  O40   A    
C39   C51   S    
C40   C60   S    
C111  C112  S    
C20   C56   T    
C97   C98   A    
O35   Zn11  S    
C7    C8    S    
C27   C33   S    
C23   C59   T    
C30   C54   S    
N1    H37   S    
C31   C43   S    
C64   C68   A    
O23   Zn15  S    
O42   Zn14  S    
C17   C45   S    
N5    H45   S    
O1    Zn13  S    
C11   C25   S    
C45   O25   A    
C96   H16   S    
C124  C132  S    
C34   Br18  S    
C85   C93   S    
C113  O9    A    
C124  O52   A    
N6    H47   S    
C87   C95   S    
C107  C108  A    
O17   Zn9   S    
C10   H30   S    
O29   Zn5   S    
C1    C22   S    
C110  Br10  S    
N9    H53   S    
C85   Br5   S    
C47   O27   A    
C3    C24   S    
C6    H22   S    
O4    Zn4   S    
C62   C66   A    
O44   Zn16  S    
O47   Zn11  S    
N10   H55   S    
C64   C96   S    
C99   C103  A    
C43   H35   S    
C12   C26   S    
C113  O33   A    
C125  C129  A    
C88   Br8   S    
C132  C136  A    
C7    H19   S    
O22   Zn14  S    
O2    Zn6   S    
C116  O36   A    
C26   C30   S    
O9    Zn13  S    
C29   C41   S    
C111  N11   S    
O52   Zn4   S    
C109  N9    S    
N7    H49   S    
C15   C31   S    
C16   C32   S    
C119  O39   A    
O34   Zn10  S    
C117  O37   A    
N4    H43   S    
C14   C30   S    
C61   C81   A    
O3    Zn15  S    
C116  O12   A    
C41   C51   S    
O7    Zn3   S    
C35   C41   S    
C109  Br9   S    
O5    Zn1   S    
C96   N4    S    
C19   C47   S    
C25   Br21  S    
N11   H57   S    
C28   Br24  S    
C81   C85   S    
C83   C87   S    
C88   C96   S    
C123  O43   A    
C93   H13   S    
C80   C84   A    
C135  C136  A    
O39   Zn7   S    
C48   O28   A    
C13   C29   S    
O31   Zn7   S    
C16   C50   S    
O24   Zn16  S    
C61   C93   S    
C126  C130  A    
O19   Zn11  S    
C63   C95   S    
O3    Zn3   S    
O28   Zn4   S    
C80   C89   S    
C38   C58   S    
C118  O46   A    
C69   C73   A    
C92   O32   A    
C62   C82   A    
C28   C34   S    
C18   C46   S    
O1    Zn9   S    
O20   Zn12  S    
C110  N10   S    
C76   C80   A    
C82   C86   S    
O8    Zn4   S    
C16   H28   S    
C122  O42   A    
C63   C83   A    
C2    O22   A    
C14   H26   S    
C35   C39   S    
C12   H32   S    
C37   C49   S    
C77   C81   A    
C120  O48   A    
C39   C59   S    
C2    C21   S    
O38   Zn6   S    
C6    H18   S    
C25   C35   S    
C26   C36   S    
O4    Zn16  S    
C5    H21   S    
C62   C94   S    
C133  C134  A    
C95   H15   S    
C127  C128  A    
C8    H24   S    
C17   C53   T    
C104  C108  A    
C9    C27   S    
N2    H40   S    
C19   C55   T    
C66   C114  S    
C123  C131  S    
C112  Br12  S    
C121  C129  S    
C115  O11   A    
O13   Zn5   S    
C105  C106  A    
O41   Zn13  S    
C101  C117  S    
C9    H29   S    
O2    Zn2   S    
C114  O10   A    
C109  C110  S    
C79   C83   A    
N7    H50   S    
C41   H33   S    
C65   C69   A    
C85   H9    S    
C108  N8    S    
C67   C71   A    
C47   O19   A    
C33   C37   S    
C48   O20   A    
C73   Br1   S    
N6    H48   S    
C74   C78   A    
C121  O49   A    
N8    H51   S    
C30   C42   S    
C31   C55   S    
O16   Zn8   S    
O27   Zn3   S    
C32   C56   S    
C91   O31   A    
C104  C120  S    
O25   Zn1   S    
C89   O29   A    
C77   C92   S    
O32   Zn8   S    
C115  O35   A    
N11   H58   S    
C49   Br13  S    
C72   C76   A    
C20   C48   S    
C76   Br4   S    
N10   H56   S    
C131  C135  A    
O2    Zn14  S    
N12   H59   S    
C92   O8    A    
O50   Zn2   S    
C26   Br22  S    
C67   C115  S    
C86   C94   S    
O11   Zn15  S    
C91   O7    A    
O18   Zn10  S    
C111  Br11  S    
C50   Br14  S    
C102  C118  S    
O30   Zn6   S    
C86   Br6   S    
C119  O47   A    
C112  N12   S    
C52   Br16  S    
C128  C132  A    
C93   N1    S    
C101  C105  A    
C63   C67   A    
C70   H6    S    
O3    Zn7   S    
C33   C43   S    
C36   C40   S    
C34   C44   S    
O46   Zn10  S    
N5    H46   S    
C43   C49   S    
C40   C52   S    
C114  O34   A    
N4    H44   S    
C2    O14   A    
C21   C57   T    
C8    C127  S    
C99   C100  A    
C24   C60   T    
C9    C37   S    
C32   C44   S    
O51   Zn3   S    
O37   Zn5   S    
C11   C39   S    
O21   Zn13  S    
O1    Zn5   S    
C45   O17   A    
C12   C14   S    
C89   O5    A    
N9    H54   S    
C107  N7    S    
N3    H41   S    
C95   N3    S    
O10   Zn14  S    
C124  O44   A    
C34   C38   S    
O48   Zn12  S    
C103  C119  S    
C134  H2    S    
C13   H25   S    
C38   C50   S    
C78   C91   S    
C118  O38   A    
C103  C107  A    
O33   Zn9   S    
C71   C75   A    
C97   C110  S    
O4    Zn12  S    
C29   C53   S    
C5    H17   S    
C99   C112  S    
C102  C106  A    
C8    H20   S    
C97   C101  A    
O6    Zn2   S    
C75   Br3   S    
C18   C54   T    
C105  N5    S    
C122  C130  S    
C33   Br17  S    
