data_mof_unit_13361.cif
_audit_creation_date              2012-10-26T18:27:55-0400
_audit_creation_method            fapswitch 2.2
_symmetry_space_group_name_H-M    P1
_symmetry_Int_Tables_number       1
_space_group_crystal_system       triclinic
_cell_length_a                    15.913783
_cell_length_b                    11.121875
_cell_length_c                    9.971561
_cell_angle_alpha                 111.45458
_cell_angle_beta                  98.171034
_cell_angle_gamma                 92.241703
_cell_volume                      1617.94107285

loop_
_atom_site_label
_atom_site_type_symbol
_atom_type_description
_atom_site_fract_x
_atom_site_fract_y
_atom_site_fract_z
_atom_type_partial_charge
C1    C     C_R   0.493691 0.255429 0.440511 0.537529
C2    C     C_2   0.522495 0.062678 0.493319 -0.033412
C3    C     C_2   0.513191 0.885554 0.589952 -0.039901
C4    C     C_R   0.340835 0.499676 0.500765 0.553843
C5    C     C_2   0.491304 0.930940 0.481046 -0.054078
C6    C     C_2   0.515530 0.495858 0.076197 0.127069
C7    C     C_2   0.498971 0.478372 0.916114 0.124027
C8    C     C_R   0.504769 0.745656 0.559210 0.540040
C9    C     C_R   0.659149 0.499910 0.499169 0.563250
C10   C     C_3   0.063537 0.516770 0.663296 -0.035445
C11   C     C_3   0.035694 0.363747 0.382845 -0.055323
C12   C     C_3   0.965571 0.542149 0.659671 -0.137062
C13   C     C_3   0.937734 0.354491 0.405897 -0.024885
C14   C     C_1   0.748045 0.499330 0.497389 0.010451
C15   C     C_3   0.084074 0.499586 0.503284 -0.096432
C16   C     C_1   0.921118 0.496259 0.755802 0.284435
C17   C     C_2   0.116998 0.630335 0.789191 0.267006
C18   C     C_2   0.904785 0.563169 0.271979 0.289547
C19   C     C_1   0.432896 0.851547 0.347772 0.275791
C20   C     C_1   0.603629 0.126305 0.584849 0.271577
C21   C     C_1   0.549400 0.970570 0.738274 0.257593
C22   C     C_2   0.447274 0.357268 0.815480 0.284881
C23   C     C_3   0.916150 0.498550 0.496688 -0.108957
C24   C     C_1   0.598756 0.557494 0.156068 0.307008
C25   C     C_2   0.566927 0.686132 0.952062 0.407835
C26   C     C_2   0.088528 0.401420 0.704099 0.334896
C27   C     C_1   0.376885 0.422627 0.076962 0.414562
C28   C     C_1   0.040948 0.358308 0.232607 0.216561
C29   C     C_2   0.080360 0.243737 0.379766 0.293647
C30   C     C_2   0.913145 0.265507 0.484558 0.306341
C31   C     C_1   0.879602 0.293061 0.262802 0.195717
C32   C     C_2   0.088538 0.749348 0.585068 0.291208
C33   C     C_1   0.086254 0.628009 0.334671 0.352231
C34   C     C_3   0.947092 0.603621 0.432715 -0.052427
C35   C     C_2   0.911130 0.733780 0.505019 0.221050
C36   C     C_3   0.050831 0.619709 0.462199 -0.034456
C37   C     C_1   0.823167 0.498968 0.496764 -0.107917
C38   C     C_1   0.176813 0.499457 0.503526 -0.019097
C39   C     C_1   0.251924 0.499513 0.502520 0.058184
C40   C     C_2   0.479831 0.118075 0.408459 -0.096385
Cu1   Cu    Cu3+1 0.514650 0.521810 0.644910 1.009956
Cu2   Cu    Cu3+1 0.485350 0.478190 0.355090 1.047722
H1    H     H_    0.962534 0.648348 0.710024 0.056794
H2    H     H_    0.052416 0.802614 0.668374 0.123223
H3    H     H_    0.872959 0.748030 0.590521 0.117276
H4    H     H_    0.425967 0.066530 0.323861 0.128394
H5    H     H_    0.086440 0.704153 0.866453 0.137839
H6    H     H_    0.845198 0.501614 0.231736 0.142974
H7    H     H_    0.396751 0.358561 0.731434 0.143825
H8    H     H_    0.619184 0.733281 0.924723 0.133295
H9    H     H_    0.142101 0.351120 0.664657 0.114660
H10   H     H_    0.145412 0.251763 0.434001 0.084941
H11   H     H_    0.847805 0.259296 0.503536 0.127611
N1    N     N_2   0.463320 0.445430 0.137380 -0.279346
N2    N     N_1   0.834421 0.244155 0.151770 -0.218162
N3    N     N_1   0.114802 0.635990 0.237304 -0.156976
N4    N     N_2   0.536720 0.554500 0.862620 -0.293186
N5    N     N_1   0.885944 0.461094 0.830746 -0.159872
N6    N     N_1   0.386346 0.788993 0.242385 -0.189325
N7    N     N_1   0.668172 0.177148 0.657126 -0.226855
N8    N     N_1   0.578185 0.037714 0.856916 -0.188706
N9    N     N_1   0.665742 0.608271 0.216946 -0.272257
N10   N     N_1   0.305042 0.403894 0.027346 -0.237438
N11   N     N_1   0.044688 0.351101 0.114777 -0.142873
O1    O     O_R   0.507820 0.332330 0.577400 -0.510429
O2    O     O_2   0.928160 0.614024 0.192024 -0.416744
O3    O     O_2   0.459668 0.254049 0.828307 -0.498328
O4    O     O_2   0.531110 0.749811 0.051845 -0.502330
O5    O     O_2   0.059302 0.375761 0.798331 -0.408218
O6    O     O_2   0.046917 0.134775 0.302194 -0.397135
O7    O     O_2   0.961971 0.199678 0.526057 -0.397219
O8    O     O_2   0.162678 0.792094 0.598989 -0.438782
O9    O     O_2   0.924963 0.824952 0.467796 -0.395614
O10   O     O_R   0.483070 0.295500 0.332660 -0.480204
O11   O     O_R   0.391820 0.518430 0.622420 -0.508699
O12   O     O_R   0.367070 0.481600 0.377680 -0.499114
O13   O     O_R   0.516930 0.704500 0.667340 -0.502882
O14   O     O_R   0.492180 0.667670 0.422600 -0.498416
O15   O     O_R   0.632930 0.518400 0.622320 -0.501323
O16   O     O_R   0.608180 0.481570 0.377580 -0.493516
O17   O     O_2   0.194932 0.637908 0.809995 -0.445061

loop_
_geom_bond_atom_site_label_1
_geom_bond_atom_site_label_2
_ccdc_geom_bond_type
Cu2   O16   S    
Cu1   Cu2   S    
C30   O7    D    
C27   N1    S    
C32   O8    D    
C40   H4    S    
C12   C23   S    
C1    O10   A    
C32   C36   S    
C12   H1    S    
C10   C15   S    
Cu1   O13   S    
C38   C39   T    
C10   C17   S    
C33   C36   S    
C13   C23   S    
C34   C35   S    
C9    O15   A    
C25   H8    S    
C4    O11   A    
C1    C40   S    
C11   C15   S    
C12   C16   S    
C1    O1    A    
C20   N7    T    
C17   O17   D    
C21   N8    T    
C10   C26   S    
C33   N3    T    
C8    O14   A    
C25   O4    D    
C25   N4    S    
C6    N1    D    
C30   H11   S    
Cu2   O10   S    
C2    C20   S    
C13   C30   S    
C3    C8    S    
Cu1   O1    S    
C19   N6    T    
C23   C37   S    
C9    O16   A    
C9    C14   S    
C15   C38   S    
Cu1   O11   S    
C4    C39   S    
C23   C34   S    
C6    C24   S    
C32   H2    S    
C16   N5    T    
C18   C34   S    
C10   C12   S    
C22   H7    S    
C28   N11   T    
Cu2   O14   S    
C8    O13   A    
C3    C21   S    
C2    C5    S    
C35   H3    S    
C15   C36   S    
C29   O6    D    
C35   O9    D    
C24   N9    T    
C13   C31   S    
C17   H5    S    
C3    C5    D    
C18   H6    S    
Cu1   O15   S    
C6    C7    S    
C5    C19   S    
C18   O2    D    
C7    C22   S    
Cu2   O12   S    
Cu1   N4    S    
C26   H9    S    
Cu2   N1    S    
C14   C37   T    
C11   C13   S    
C11   C28   S    
C34   C36   S    
C22   O3    D    
C4    O12   A    
C2    C40   D    
C11   C29   S    
C26   O5    D    
C27   N10   T    
C31   N2    T    
C7    N4    D    
C29   H10   S    
