data_mof_unit_23313.cif
_audit_creation_date              2012-12-10T17:40:30-0500
_audit_creation_method            fapswitch 2.2
_symmetry_space_group_name_H-M    P1
_symmetry_Int_Tables_number       1
_space_group_crystal_system       triclinic
_cell_length_a                    13.799189
_cell_length_b                    15.075429
_cell_length_c                    15.860159
_cell_angle_alpha                 88.928
_cell_angle_beta                  69.200015
_cell_angle_gamma                 90.985343
_cell_volume                      3082.79122575

loop_
_atom_site_label
_atom_site_type_symbol
_atom_type_description
_atom_site_fract_x
_atom_site_fract_y
_atom_site_fract_z
_atom_type_partial_charge
C1    C     C_R   0.500528 0.671383 0.500052 0.817396
C2    C     C_R   0.499104 0.328637 0.500706 0.815815
C3    C     C_R   0.379322 0.538832 0.093944 -0.219601
C4    C     C_R   0.627498 0.509622 0.902099 -0.219782
C5    C     C_R   0.308677 0.544590 0.050045 -0.228473
C6    C     C_R   0.698716 0.507499 0.945691 -0.226602
C7    C     C_R   0.578207 0.186436 0.517581 -0.240248
C8    C     C_R   0.420199 0.813612 0.485140 -0.241381
C9    C     C_R   0.497807 0.231737 0.502103 -0.076153
C10   C     C_R   0.500660 0.768304 0.500572 -0.074347
C11   C     C_R   0.417054 0.184292 0.487649 -0.249467
C12   C     C_R   0.579893 0.815778 0.517336 -0.245966
C13   C     C_R   0.416928 0.091794 0.487407 0.110046
C14   C     C_R   0.579859 0.908242 0.517796 0.111629
C15   C     C_R   0.498175 0.046503 0.502626 0.063267
C16   C     C_R   0.498883 0.953527 0.502150 0.062292
C17   C     C_R   0.578842 0.094095 0.518148 0.106542
C18   C     C_R   0.418615 0.905931 0.486025 0.106693
C19   C     C_R   0.337281 0.043846 0.471812 -0.208903
C20   C     C_R   0.659312 0.956156 0.533722 -0.207916
C21   C     C_R   0.338205 0.951385 0.470984 -0.210720
C22   C     C_R   0.658910 0.048628 0.533733 -0.210330
C23   C     C_R   0.436828 0.500787 0.672513 0.798380
C24   C     C_R   0.563243 0.500652 0.327471 0.800323
C25   C     C_R   0.233296 0.549142 0.436899 -0.016494
C26   C     C_R   0.769675 0.441542 0.554643 -0.021731
C27   C     C_R   0.179057 0.447487 0.562327 0.285209
C28   C     C_R   0.819699 0.556867 0.442138 0.298480
C29   C     C_R   0.077105 0.439674 0.558920 -0.026994
C30   C     C_R   0.925579 0.551851 0.434592 0.021606
C31   C     C_R   0.053408 0.493695 0.495655 0.018561
C32   C     C_R   0.950477 0.494486 0.494521 -0.001552
C33   C     C_R   0.132002 0.548481 0.434616 -0.013009
C34   C     C_R   0.871914 0.439273 0.554720 -0.049501
C35   C     C_R   0.996633 0.381474 0.617290 0.167583
C36   C     C_R   0.007130 0.604051 0.370837 0.177967
C37   C     C_R   0.896579 0.382291 0.613912 -0.192816
C38   C     C_R   0.108450 0.601607 0.371832 -0.281454
C39   C     C_R   0.400067 0.507311 0.771373 -0.054329
C40   C     C_R   0.600760 0.503595 0.228209 -0.057443
C41   C     C_R   0.267042 0.537666 0.914655 -0.191629
C42   C     C_R   0.738575 0.503231 0.082319 -0.189711
C43   C     C_R   0.297202 0.526645 0.821898 -0.194725
C44   C     C_R   0.706476 0.501635 0.176209 -0.193139
C45   C     C_R   0.472238 0.499486 0.814730 -0.244172
C46   C     C_R   0.527960 0.508943 0.185281 -0.247973
C47   C     C_R   0.445312 0.515469 0.907193 0.087810
C48   C     C_R   0.558367 0.513799 0.090845 0.087841
C49   C     C_R   0.340043 0.532311 0.957559 0.165367
C50   C     C_R   0.665491 0.508275 0.039397 0.163848
C51   C     C_R   0.519657 0.514611 0.950891 0.065531
C52   C     C_R   0.485207 0.521770 0.046390 0.067542
Cu1   Cu    Cu3+1 0.402580 0.500010 0.499990 0.928346
Cu2   Cu    Cu3+1 0.597420 0.499990 0.500010 0.929933
H1    H     H_    0.228587 0.558606 0.089049 0.138610
H2    H     H_    0.780573 0.504250 0.905575 0.144066
H3    H     H_    0.293817 0.590229 0.388983 0.130515
H4    H     H_    0.709977 0.397573 0.599592 0.131892
H5    H     H_    0.837075 0.338141 0.659117 0.151234
H6    H     H_    0.168987 0.642284 0.323177 0.134938
H7    H     H_    0.447238 0.506708 0.227160 0.151906
H8    H     H_    0.549216 0.479856 0.774784 0.147506
H9    H     H_    0.764058 0.497744 0.207957 0.156711
H10   H     H_    0.240442 0.534530 0.789894 0.142561
H11   H     H_    0.186795 0.551860 0.952746 0.131249
H12   H     H_    0.820668 0.500077 0.043133 0.132319
H13   H     H_    0.348639 0.551364 0.165102 0.137675
H14   H     H_    0.660279 0.510211 0.829509 0.144899
H15   H     H_    0.640348 0.222940 0.529468 0.153159
H16   H     H_    0.358753 0.777142 0.472141 0.154128
H17   H     H_    0.354936 0.219234 0.475654 0.156398
H18   H     H_    0.640994 0.780996 0.530952 0.145809
H19   H     H_    0.274518 0.077848 0.460030 0.144830
H20   H     H_    0.721850 0.922135 0.545863 0.144995
H21   H     H_    0.276100 0.915427 0.458601 0.143235
H22   H     H_    0.721184 0.084587 0.545852 0.145138
N1    N     N_R   0.256170 0.500070 0.500040 -0.190983
N2    N     N_R   0.743830 0.499930 0.499960 -0.201276
O1    O     O_R   0.417730 0.629750 0.499970 -0.582541
O2    O     O_R   0.582270 0.370250 0.500030 -0.582748
O3    O     O_R   0.582270 0.629730 0.499980 -0.598658
O4    O     O_R   0.417730 0.370270 0.500020 -0.596805
O5    O     O_R   0.371590 0.500020 0.629830 -0.594387
O6    O     O_R   0.628410 0.499980 0.370170 -0.595117
O7    O     O_R   0.536130 0.499990 0.629840 -0.583671
O8    O     O_R   0.463870 0.500010 0.370160 -0.585922
N3    N     N_3   0.196736 0.406354 0.637168 -0.634026
H23   H     H_    0.197892 0.454488 0.683056 0.230026
H24   H     H_    0.262069 0.367675 0.617507 0.263392
N4    N     N_3   0.792676 0.628661 0.395208 -0.560893
H25   H     H_    0.755618 0.677019 0.440687 0.228186
H26   H     H_    0.750619 0.607716 0.356268 0.257649
N5    N     N_3   0.012680 0.318073 0.679217 -0.598717
H27   H     H_    0.074954 0.278223 0.644979 0.239675
H28   H     H_    0.025459 0.351116 0.731782 0.241812
N6    N     N_3   0.989384 0.658147 0.302713 -0.569063
H29   H     H_    0.037569 0.636888 0.239586 0.209467
H30   H     H_    0.011061 0.723618 0.309717 0.219375

loop_
_geom_bond_atom_site_label_1
_geom_bond_atom_site_label_2
_ccdc_geom_bond_type
N3    H23   S    
N5    H27   S    
C27   C29   A    
C34   C37   A    
C22   H22   S    
Cu2   O6    S    
C47   C49   A    
Cu1   Cu2   S    
C40   C46   A    
C26   N2    A    
C25   H3    S    
C25   N1    A    
Cu1   O1    S    
C11   H17   S    
C1    O3    A    
C15   C16   A    
C18   C21   A    
C45   H8    S    
C7    C9    A    
C45   C47   A    
C26   C34   A    
C7    C17   A    
N6    H30   S    
C31   C33   A    
Cu1   O8    S    
C28   N2    A    
C39   C45   A    
C48   C50   A    
C12   H18   S    
N5    H28   S    
C41   C43   A    
C5    C49   A    
C42   C44   A    
C10   C12   A    
C41   C49   A    
C43   H10   S    
Cu2   O2    S    
C35   N5    S    
C44   H9    S    
C39   C43   A    
C46   C48   A    
C13   C19   A    
C46   H7    S    
C51   C52   A    
C14   C20   A    
C19   H19   S    
C4    C6    A    
C6    H2    S    
C4    H14   S    
C41   H11   S    
C4    C51   A    
C27   N1    A    
C8    C18   A    
Cu1   O4    S    
C32   C34   A    
Cu1   N1    S    
C26   H4    S    
C36   N6    S    
N4    H26   S    
C31   C32   A    
C40   C44   A    
N6    H29   S    
C20   H20   S    
C6    C50   A    
C27   N3    S    
C9    C11   A    
C37   H5    S    
C23   O5    A    
C42   C50   A    
C38   H6    S    
C16   C18   A    
C20   C22   A    
C13   C15   A    
C1    O1    A    
C14   C16   A    
C2    O4    A    
C15   C17   A    
C29   C35   A    
C35   C37   A    
C5    H1    S    
C3    H13   S    
C1    C10   S    
C33   C38   A    
C12   C14   A    
C3    C5    A    
C7    H15   S    
Cu2   O7    S    
C47   C51   A    
C3    C52   A    
C21   H21   S    
C8    H16   S    
C17   C22   A    
C30   C36   A    
Cu1   O5    S    
C28   C30   A    
C24   O6    A    
C29   C31   A    
C30   C32   A    
C11   C13   A    
N4    H25   S    
C23   C39   S    
C36   C38   A    
C24   C40   S    
C2    O2    A    
C48   C52   A    
C8    C10   A    
C23   O7    A    
C42   H12   S    
N3    H24   S    
C28   N4    S    
Cu2   N2    S    
C2    C9    S    
C24   O8    A    
Cu2   O3    S    
C25   C33   A    
C19   C21   A    
