data_mof_unit_10704.cif
_audit_creation_date              2012-12-10T17:11:48-0500
_audit_creation_method            fapswitch 2.2
_symmetry_space_group_name_H-M    P1
_symmetry_Int_Tables_number       1
_space_group_crystal_system       triclinic
_cell_length_a                    18.973662
_cell_length_b                    10.721909
_cell_length_c                    10.023477
_cell_angle_alpha                 90.412359
_cell_angle_beta                  90.418874
_cell_angle_gamma                 90.560821
_cell_volume                      2038.90875091

loop_
_atom_site_label
_atom_site_type_symbol
_atom_type_description
_atom_site_fract_x
_atom_site_fract_y
_atom_site_fract_z
_atom_type_partial_charge
C1    C     C_R   0.496563 0.262881 0.499281 0.885945
C2    C     C_R   0.852060 0.405989 0.492221 0.091442
C3    C     C_2   0.495328 0.932693 0.390632 -0.311391
C4    C     C_R   0.365084 0.496325 0.499507 0.844435
C5    C     C_2   0.514300 0.868940 0.499953 0.318392
C6    C     C_2   0.499068 0.066585 0.387291 -0.164648
C7    C     C_2   0.485250 0.132051 0.497133 -0.274255
C8    C     C_2   0.547631 0.559203 0.925003 0.545223
C9    C     C_2   0.536841 0.577233 0.074441 -0.120027
C10   C     C_R   0.502941 0.737398 0.500328 0.833923
C11   C     C_R   0.634806 0.496436 0.500281 0.844060
C12   C     C_R   0.289208 0.472860 0.497906 -0.028513
C13   C     C_R   0.253027 0.456605 0.618115 -0.192845
C14   C     C_R   0.182177 0.423085 0.616432 -0.162757
C15   C     C_R   0.146461 0.405874 0.494498 0.087291
C16   C     C_R   0.182894 0.421161 0.374316 -0.159242
C17   C     C_R   0.253709 0.454611 0.376004 -0.204518
C18   C     C_3   0.617931 0.934089 0.595785 0.098152
C19   C     C_3   0.647446 0.029880 0.695708 -0.318943
C20   C     C_3   0.727174 0.044856 0.682926 -0.970290
C21   C     C_3   0.666705 0.619251 0.933055 0.047271
C22   C     C_3   0.686370 0.753426 0.972159 -0.350908
C23   C     C_R   0.927925 0.383987 0.491265 0.287140
C24   C     C_3   0.754186 0.758724 0.054799 -0.951278
C25   C     C_3   0.416903 0.357243 0.117005 0.177812
C26   C     C_3   0.395283 0.246183 0.028947 -0.403761
C27   C     C_3   0.318438 0.209088 0.051478 -0.963515
C28   C     C_R   0.070258 0.384088 0.492522 0.288527
C29   C     C_R   0.813977 0.393828 0.610925 -0.173790
C30   C     C_R   0.743432 0.426795 0.614633 -0.198218
C31   C     C_R   0.710258 0.472787 0.499909 -0.029053
C32   C     C_R   0.748045 0.483610 0.380932 -0.200307
C33   C     C_R   0.818421 0.450256 0.376999 -0.162695
H1    H     H_    0.279506 0.468530 0.713532 0.153468
H2    H     H_    0.714574 0.413575 0.706303 0.154541
H3    H     H_    0.723129 0.517088 0.290644 0.147991
H4    H     H_    0.846654 0.461521 0.284291 0.149731
H5    H     H_    0.476687 0.885782 0.300400 0.156772
H6    H     H_    0.632511 0.965271 0.493472 0.138846
H7    H     H_    0.642045 0.841629 0.615101 0.147906
H8    H     H_    0.622397 0.121641 0.677800 0.233047
H9    H     H_    0.634587 0.000244 0.798788 0.225903
H10   H     H_    0.753600 0.954545 0.701353 0.265851
H11   H     H_    0.746765 0.114302 0.757454 0.268239
H12   H     H_    0.513685 0.110640 0.294034 0.184124
H13   H     H_    0.740888 0.078419 0.581681 0.273179
H14   H     H_    0.708652 0.583310 0.866881 0.163968
H15   H     H_    0.666917 0.557168 0.021839 0.121689
H16   H     H_    0.693872 0.808959 0.880155 0.233755
H17   H     H_    0.643192 0.796196 0.030366 0.213392
H18   H     H_    0.747210 0.707321 0.149639 0.258850
H19   H     H_    0.767701 0.857385 0.078832 0.269715
H20   H     H_    0.798352 0.717290 0.998021 0.267581
H21   H     H_    0.381673 0.437081 0.093911 0.101981
H22   H     H_    0.409526 0.329865 0.222028 0.193946
H23   H     H_    0.465374 0.089381 0.587445 0.202014
H24   H     H_    0.402429 0.270320 0.922212 0.229755
H25   H     H_    0.429476 0.165462 0.052271 0.234035
H26   H     H_    0.310258 0.182455 0.157202 0.267832
H27   H     H_    0.304379 0.128102 0.986603 0.276535
H28   H     H_    0.283170 0.287752 0.026314 0.260526
H29   H     H_    0.452955 0.481909 0.894921 0.147888
H30   H     H_    0.561469 0.657151 0.123096 0.104245
H31   H     H_    0.155286 0.412644 0.710672 0.149556
H32   H     H_    0.156638 0.408748 0.278784 0.149464
H33   H     H_    0.280688 0.464802 0.281798 0.145712
H34   H     H_    0.838658 0.359390 0.701005 0.148287
N1    N     N_R   0.033909 0.388629 0.375791 -0.178971
N2    N     N_R   0.963994 0.388673 0.375177 -0.179906
N3    N     N_R   0.964197 0.374162 0.607662 -0.177758
N4    N     N_R   0.034156 0.374286 0.608276 -0.178904
N5    N     N_2   0.500750 0.501330 0.852150 -0.201253
N6    N     N_2   0.500770 0.501360 0.147810 0.049247
O1    O     O_R   0.499990 0.319060 0.613040 -0.618921
O2    O     O_3   0.602839 0.618096 0.858910 -0.614421
O3    O     O_3   0.488030 0.388197 0.092405 -0.586847
O4    O     O_R   0.500010 0.319100 0.386900 -0.601816
O5    O     O_R   0.398130 0.499970 0.613110 -0.627464
O6    O     O_R   0.398150 0.500010 0.386970 -0.645746
O7    O     O_R   0.499990 0.680900 0.613100 -0.553214
O8    O     O_R   0.500010 0.680940 0.386960 -0.658903
O9    O     O_R   0.601850 0.499990 0.613030 -0.570497
O10   O     O_R   0.601870 0.500030 0.386890 -0.612835
O11   O     O_3   0.544167 0.925192 0.612273 -0.635280
Zn1   Zn    Zn3+2 0.499990 0.499970 0.650990 0.986282
Zn2   Zn    Zn3+2 0.500010 0.500030 0.349010 0.958223

loop_
_geom_bond_atom_site_label_1
_geom_bond_atom_site_label_2
_ccdc_geom_bond_type
C24   H19   S    
C6    H12   S    
C1    O4    A    
C23   N2    A    
C19   C20   S    
C3    C6    S    
N5    Zn1   S    
C17   H33   S    
C29   C30   A    
C30   H2    S    
C2    C29   A    
C1    O1    A    
C32   H3    S    
C28   N1    A    
C27   H27   S    
C30   C31   A    
C15   C16   A    
C8    C9    S    
C18   C19   S    
C18   H7    S    
C27   H28   S    
C29   H34   S    
C3    H5    S    
C16   C17   A    
C12   C17   A    
C18   O11   S    
N3    N4    A    
C4    C12   S    
O8    Zn2   S    
C19   H9    S    
C22   H17   S    
C21   H15   S    
C24   H18   S    
C11   C31   S    
C1    C7    S    
C13   C14   A    
C23   N3    A    
C9    N6    D    
C7    H23   S    
C20   H11   S    
C11   O9    A    
C8    N5    D    
C25   H21   S    
C4    O6    A    
C5    O11   S    
C10   O7    A    
N1    N2    A    
C11   O10   A    
C24   H20   S    
C8    O2    S    
C33   H4    S    
C18   H6    S    
C4    O5    A    
O7    Zn1   S    
C31   C32   A    
C14   H31   S    
C26   C27   S    
H29   N5    S    
C26   H25   S    
C22   H16   S    
O5    Zn1   S    
O4    Zn2   S    
N6    O3    S    
C22   C24   S    
C28   N4    A    
C20   H10   S    
C2    C33   A    
C9    H30   S    
C25   H22   S    
C3    C5    D    
C6    C7    D    
O9    Zn1   S    
C21   O2    S    
C10   O8    A    
C25   O3    S    
C32   C33   A    
C25   C26   S    
C5    C10   S    
C27   H26   S    
C15   C28   S    
O1    Zn1   S    
C26   H24   S    
N6    Zn2   S    
C13   H1    S    
O10   Zn2   S    
C12   C13   A    
C2    C23   S    
C14   C15   A    
C16   H32   S    
C21   C22   S    
O6    Zn2   S    
C20   H13   S    
C19   H8    S    
C21   H14   S    
