data_mof_unit_13160.cif
_audit_creation_date              2013-03-05T15:54:45-0500
_audit_creation_method            fapswitch 2.2
_symmetry_space_group_name_H-M    P1
_symmetry_Int_Tables_number       1
_space_group_crystal_system       triclinic
_cell_length_a                    12.369472
_cell_length_b                    13.206029
_cell_length_c                    15.047172
_cell_angle_alpha                 74.958613
_cell_angle_beta                  101.298137
_cell_angle_gamma                 117.054226
_cell_volume                      2105.33579784

loop_
_atom_site_label
_atom_site_type_symbol
_atom_site_description
_atom_site_fract_x
_atom_site_fract_y
_atom_site_fract_z
_atom_type_partial_charge
O1    O     O_R   0.972510 0.318130 0.526570 -0.560396
O2    O     O_R   0.806530 0.359650 0.490890 -0.569161
C1    C     C_R   0.854705 0.285703 0.508344 0.894100
O3    O     O_R   0.082980 0.479210 0.647590 -0.537073
O4    O     O_R   0.917000 0.520730 0.611900 -0.530830
C2    C     C_R   0.999080 0.497764 0.671426 0.919575
Cu1   Cu    Cu3+1 0.098270 0.475420 0.521130 1.069518
Cu2   Cu    Cu3+1 0.901730 0.524580 0.478870 1.012887
O5    O     O_R   0.193470 0.640350 0.509110 -0.533294
O6    O     O_R   0.027490 0.681870 0.473430 -0.591676
O7    O     O_R   0.083000 0.479270 0.388100 -0.578687
O8    O     O_R   0.917020 0.520790 0.352410 -0.608430
C3    C     C_R   0.145135 0.714221 0.487230 0.842299
C4    C     C_R   0.000409 0.500826 0.328919 0.779547
C5    C     C_R   0.945725 0.559944 0.163181 -0.157409
C6    C     C_R   0.000401 0.500314 0.232407 -0.097709
C7    C     C_R   0.056749 0.440863 0.210005 -0.095210
C8    C     C_R   0.059563 0.439809 0.118026 -0.004481
C9    C     C_R   0.002924 0.499031 0.047660 0.003682
C10   C     C_R   0.944743 0.559272 0.070256 0.022493
C11   C     C_R   0.120141 0.383106 0.095252 0.299130
C12   C     C_R   0.120204 0.380841 0.002568 0.289779
C13   C     C_R   0.056849 0.433600 0.931737 -0.124132
C14   C     C_R   0.004388 0.498195 0.954792 -0.017016
C15   C     C_R   0.951835 0.561246 0.884843 0.069344
C16   C     C_R   0.897322 0.622558 0.907283 -0.161806
C17   C     C_R   0.890210 0.619913 0.999281 0.317879
C18   C     C_R   0.042247 0.423043 0.838522 0.396187
C19   C     C_R   0.998457 0.493888 0.769174 -0.132378
C20   C     C_R   0.953764 0.562219 0.792733 -0.176925
H1    H     H_    0.907119 0.609060 0.182643 0.194444
H2    H     H_    0.097579 0.394830 0.265365 0.212699
H3    H     H_    0.917977 0.614703 0.738993 0.202406
H4    H     H_    0.856034 0.669557 0.852892 0.217724
C21   C     C_R   0.280091 0.026029 0.366054 -0.123895
H5    H     H_    0.101034 0.886558 0.365476 0.181172
H6    H     H_    0.464358 0.230163 0.312783 0.187788
H7    H     H_    0.251545 0.084749 0.313376 0.204099
C22   C     C_R   0.227994 0.838093 0.467467 -0.115173
C23   C     C_R   0.811368 0.073937 0.557302 0.205878
C24   C     C_R   0.734351 0.956741 0.557000 0.225096
C25   C     C_R   0.612343 0.923757 0.520433 0.252752
C26   C     C_R   0.566383 0.008919 0.487429 -0.033312
C27   C     C_R   0.650793 0.126408 0.466698 0.003274
C28   C     C_R   0.439850 0.980131 0.465279 0.071629
C29   C     C_R   0.403255 0.059114 0.398755 0.086813
C30   C     C_R   0.490436 0.169355 0.365010 -0.166987
C31   C     C_R   0.611990 0.203569 0.399816 -0.124888
C32   C     C_R   0.348260 0.876601 0.508491 0.365096
C33   C     C_R   0.193792 0.914202 0.397295 -0.199153
C34   C     C_R   0.772070 0.160964 0.509735 -0.256106
H8    H     H_    0.675283 0.288759 0.368933 0.171448
C35   C     C_R   0.310633 0.288870 0.616870 0.334215
H9    H     H_    0.151331 0.290951 0.649834 0.227139
H10   H     H_    0.484557 0.226353 0.622266 0.245647
N1    N     N_R   0.246280 0.438190 0.553160 -0.255714
C36   C     C_R   0.764954 0.652457 0.377133 0.068653
C37   C     C_R   0.664428 0.674630 0.338587 -0.186199
C38   C     C_R   0.551491 0.606515 0.374101 0.440926
C39   C     C_R   0.540373 0.519699 0.455014 -0.083068
C40   C     C_R   0.643110 0.491556 0.487779 0.153631
C41   C     C_R   0.431348 0.457423 0.504018 -0.033058
C42   C     C_R   0.412633 0.350349 0.564585 -0.051256
C43   C     C_R   0.500710 0.310263 0.578286 -0.185790
C44   C     C_R   0.618382 0.385452 0.556344 0.374217
C45   C     C_R   0.342447 0.498675 0.500001 0.164646
C46   C     C_R   0.230264 0.336752 0.611062 0.128938
N2    N     N_R   0.754320 0.561190 0.447410 -0.198270
H11   H     H_    0.348749 0.579329 0.456756 0.223677
H12   H     H_    0.850398 0.703588 0.346218 0.144224
H13   H     H_    0.673067 0.741408 0.277183 0.202170
Cl1   Cl    Cl    0.376157 0.807393 0.622726 -0.482201
N3    N     N_R   0.932343 0.103354 0.601037 0.157479
O9    O     O_R   0.952552 0.106406 0.688626 -0.226452
O10   O     O_R   0.013627 0.100364 0.559706 -0.311930
N4    N     N_R   0.541351 0.808109 0.503574 0.146065
O11   O     O_R   0.541768 0.718843 0.565636 -0.285742
O12   O     O_R   0.481042 0.792701 0.423378 -0.365239
N5    N     N_R   0.782510 0.871885 0.590200 0.192544
O13   O     O_R   0.827654 0.856206 0.675614 -0.244480
O14   O     O_R   0.789278 0.816076 0.533357 -0.321129
Cl2   Cl    Cl    0.281307 0.154475 0.693239 -0.427886
Cl3   Cl    Cl    0.424839 0.616040 0.300760 -0.532039
Cl4   Cl    Cl    0.713268 0.340360 0.643779 -0.551469
Cl5   Cl    Cl    0.203976 0.320230 0.181731 -0.529016
N6    N     N_R   0.196334 0.336420 0.980947 0.201558
O15   O     O_R   0.176268 0.228306 0.011903 -0.217613
O16   O     O_R   0.289996 0.405790 0.934257 -0.245083
Cl6   Cl    Cl    0.052938 0.306187 0.809363 -0.432759
N7    N     N_R   0.825628 0.677534 0.018878 0.126810
O17   O     O_R   0.737884 0.620783 0.073063 -0.317929
O18   O     O_R   0.837941 0.778266 0.969337 -0.250830

loop_
_geom_bond_atom_site_label_1
_geom_bond_atom_site_label_2
_geom_bond_distance
_ccdc_geom_bond_type
C8    C11   1.408502 A    
C24   C25   1.403970 A    
C9    C10   1.422498 A    
N7    O17   1.301566 A    
Cu1   Cu2   2.711415 S    
C28   C29   1.415941 A    
Cu1   O7    1.962887 S    
C16   C17   1.394662 A    
C41   C42   1.414087 A    
C18   C19   1.410803 A    
C38   Cl3   1.765732 S    
O4    C2    1.306845 A    
O7    C4    1.301634 A    
N6    O16   1.301710 A    
C37   H13   1.082984 S    
C45   H11   1.071722 S    
C5    C6    1.394717 A    
C23   N3    1.428726 S    
C17   N7    1.437312 S    
C39   C41   1.450773 A    
C8    C9    1.414750 A    
N3    O9    1.300174 A    
O5    C3    1.305479 A    
C16   H4    1.084804 S    
C6    C7    1.393919 A    
C32   Cl1   1.774295 S    
C13   C14   1.419318 A    
C18   Cl6   1.775176 S    
C36   H12   1.081573 S    
H6    C30   1.084097 S    
C38   C39   1.418932 A    
C11   C12   1.402859 A    
N3    O10   1.301189 A    
Cu1   N1    2.043515 S    
O3    Cu1   1.964238 S    
C5    C10   1.398229 A    
C11   Cl5   1.775351 S    
C41   C45   1.418272 A    
C21   H7    1.083833 S    
C14   C15   1.411780 A    
O3    C2    1.299421 A    
N5    O14   1.301208 A    
C1    C34   1.489172 S    
N6    O15   1.301853 A    
C44   Cl4   1.757042 S    
H9    C46   1.078115 S    
C15   C16   1.397155 A    
C42   C43   1.374659 A    
C39   C40   1.444010 A    
O1    C1    1.310996 A    
C26   C27   1.413354 A    
C19   C20   1.393623 A    
N7    O18   1.301539 A    
C30   C31   1.391191 A    
C28   C32   1.412003 A    
Cu2   O8    1.964238 S    
H10   C43   1.084241 S    
C22   C33   1.401797 A    
C21   C33   1.394155 A    
C7    C8    1.395068 A    
C13   C18   1.413778 A    
N4    O11   1.301554 A    
C26   C28   1.423164 A    
C27   C34   1.424082 A    
C23   C24   1.401304 A    
C22   C32   1.402728 A    
O8    C4    1.302684 A    
Cu2   N2    2.031622 S    
C4    C6    1.453992 S    
C25   C26   1.419776 A    
C36   N2    1.355355 A    
C23   C34   1.419277 A    
H5    C33   1.083244 S    
C15   C20   1.387506 A    
Cu1   O5    1.925932 S    
C29   C30   1.393907 A    
C20   H3    1.085445 S    
O1    Cu1   1.939978 S    
O2    Cu2   1.925933 S    
N4    O12   1.300283 A    
O6    C3    1.305898 A    
C24   N5    1.435362 S    
O4    Cu2   1.962889 S    
C5    H1    1.081512 S    
C10   C17   1.414966 A    
N1    C46   1.346585 A    
C25   N4    1.435897 S    
C43   C44   1.384542 A    
C9    C14   1.404022 A    
C37   C38   1.395054 A    
C35   C42   1.412643 A    
C40   N2    1.411980 A    
C36   C37   1.388804 A    
N1    C45   1.367374 A    
O2    C1    1.308676 A    
C12   N6    1.434703 S    
C35   C46   1.380166 A    
C3    C22   1.468566 S    
N5    O13   1.300915 A    
C40   C44   1.450794 A    
C31   H8    1.079135 S    
C2    C19   1.459807 S    
Cu2   O6    1.939977 S    
C7    H2    1.081733 S    
C12   C13   1.421091 A    
C35   Cl2   1.766694 S    
C21   C29   1.402264 A    
C27   C31   1.415955 A    
