data_mof_unit_51179.cif
_audit_creation_date              2012-10-26T20:57:26-0400
_audit_creation_method            fapswitch 2.2
_symmetry_space_group_name_H-M    P1
_symmetry_Int_Tables_number       1
_space_group_crystal_system       triclinic
_cell_length_a                    14.708634
_cell_length_b                    14.973893
_cell_length_c                    15.870526
_cell_angle_alpha                 74.62955
_cell_angle_beta                  102.183364
_cell_angle_gamma                 115.591782
_cell_volume                      3020.9441267

loop_
_atom_site_label
_atom_site_type_symbol
_atom_type_description
_atom_site_fract_x
_atom_site_fract_y
_atom_site_fract_z
_atom_type_partial_charge
C1    C     C_R   0.880085 0.312518 0.515009 0.558818
C2    C     C_R   0.356769 0.922970 0.511047 -0.043309
C3    C     C_R   0.674210 0.003037 0.560292 -0.075574
C4    C     C_R   0.317784 0.998032 0.474470 -0.096415
C5    C     C_R   0.530047 0.053124 0.505271 0.005415
C6    C     C_R   0.462942 0.951248 0.533952 0.003973
C7    C     C_R   0.504428 0.881258 0.584434 0.331758
C8    C     C_R   0.487777 0.123667 0.456748 0.374761
C9    C     C_R   0.607483 0.905025 0.591235 -0.063732
C10   C     C_R   0.383929 0.097526 0.447469 -0.074903
C11   C     C_R   0.693300 0.624699 0.324365 0.118760
C12   C     C_R   0.119274 0.687165 0.490257 0.548566
C13   C     C_R   0.271457 0.318428 0.648261 0.134191
C14   C     C_R   0.786920 0.619543 0.362400 0.290741
C15   C     C_R   0.198532 0.361236 0.626933 0.305315
C16   C     C_R   0.999810 0.500043 0.659763 0.539638
C17   C     C_R   0.000665 0.500639 0.340183 0.543894
C18   C     C_R   0.713730 0.511931 0.491900 0.310716
C19   C     C_R   0.285346 0.479938 0.507248 0.308076
C20   C     C_R   0.614173 0.506046 0.453245 -0.019086
C21   C     C_R   0.356970 0.434279 0.521776 -0.018289
C22   C     C_R   0.604642 0.563041 0.367168 -0.037967
C23   C     C_R   0.778999 0.027252 0.570507 0.408347
C24   C     C_R   0.352812 0.355816 0.596186 -0.037096
C25   C     C_R   0.524014 0.448090 0.497882 -0.035379
C26   C     C_R   0.435703 0.467997 0.466038 -0.048436
C27   C     C_R   0.424139 0.510438 0.376177 0.398640
C28   C     C_R   0.513555 0.363372 0.566283 0.401378
C29   C     C_R   0.506337 0.555253 0.326280 0.167773
C30   C     C_R   0.429144 0.316426 0.614195 0.156639
C31   C     C_3   0.964042 0.407380 0.043950 0.149321
C32   C     C_3   0.042596 0.598535 0.955916 0.148499
C33   C     C_3   0.907943 0.456074 0.965247 0.157349
C34   C     C_R   0.212554 0.971068 0.460471 0.400989
C35   C     C_3   0.098728 0.549851 0.034732 0.157079
C36   C     C_1   0.000556 0.501300 0.748987 -0.029236
C37   C     C_1   0.001769 0.501611 0.250788 0.000225
C38   C     C_3   0.059742 0.454062 0.995849 0.142556
C39   C     C_3   0.946911 0.551834 0.004085 0.138300
C40   C     C_3   0.003609 0.502721 0.915996 -0.005481
C41   C     C_3   0.002963 0.503126 0.083904 -0.006922
C42   C     C_1   0.002106 0.502131 0.824421 -0.051062
C43   C     C_1   0.002459 0.502482 0.175373 -0.033504
C44   C     C_R   0.811396 0.205017 0.526396 -0.073690
C45   C     C_R   0.847191 0.127621 0.551144 0.408622
C46   C     C_R   0.185008 0.794277 0.492186 -0.068948
C47   C     C_3   0.725510 0.369924 0.979198 -0.290115
C48   C     C_3   0.281289 0.635742 0.021016 -0.288886
C49   C     C_3   0.392324 0.658923 0.474914 -0.298845
C50   C     C_3   0.736371 0.533890 0.644042 -0.283204
C51   C     C_3   0.144246 0.345699 0.766803 -0.284247
C52   C     C_3   0.918059 0.779597 0.301788 -0.214677
C53   C     C_3   0.680341 0.785253 0.248574 -0.284396
C54   C     C_3   0.186620 0.139991 0.720666 -0.259563
C55   C     C_3   0.883961 0.224711 0.047080 -0.297276
C56   C     C_R   0.146402 0.869457 0.472271 0.401309
C57   C     C_3   0.123099 0.781254 0.952516 -0.297572
C58   C     C_3   0.841380 0.647466 0.932637 -0.305847
C59   C     C_3   0.165977 0.359238 0.067727 -0.303518
C60   C     C_3   0.466888 0.511581 0.183656 -0.294402
C61   C     C_3   0.388599 0.136939 0.651356 -0.252740
C62   C     C_R   0.706947 0.180009 0.514851 -0.142781
C63   C     C_R   0.288878 0.821669 0.515563 -0.161994
C64   C     C_R   0.636580 0.079486 0.524593 -0.041893
Cu1   Cu    Cu3+1 0.081740 0.475690 0.522610 1.026422
Cu2   Cu    Cu3+1 0.918260 0.524310 0.477390 1.029117
F1    F     F_    0.330096 0.497112 0.333509 -0.635874
F2    F     F_    0.575843 0.314622 0.578006 -0.649386
F3    F     F_    0.045402 0.845456 0.463632 -0.599447
F4    F     F_    0.947799 0.148585 0.560307 -0.595027
F5    F     F_    0.815504 0.953903 0.600754 -0.599979
F6    F     F_    0.173832 0.042872 0.433370 -0.593928
F7    F     F_    0.448181 0.792745 0.634254 -0.675295
F8    F     F_    0.543696 0.216288 0.412291 -0.632910
H1    H     H_    0.635657 0.847728 0.626358 0.191431
H2    H     H_    0.352770 0.685530 0.053964 0.131256
H3    H     H_    0.264315 0.679581 0.956024 0.195115
H4    H     H_    0.292815 0.570892 0.011189 0.166201
H5    H     H_    0.243401 0.590576 0.417062 0.303911
H6    H     H_    0.463691 0.654527 0.468398 0.138294
H7    H     H_    0.392510 0.659117 0.544738 0.196782
H8    H     H_    0.391815 0.730800 0.432425 0.133546
H9    H     H_    0.758991 0.419335 0.603997 0.309238
H10   H     H_    0.683368 0.485617 0.694103 0.133351
H11   H     H_    0.715790 0.598882 0.610036 0.147051
H12   H     H_    0.354985 0.154617 0.413636 0.205144
H13   H     H_    0.814522 0.563084 0.677901 0.159402
H14   H     H_    0.069405 0.248464 0.678788 0.287100
H15   H     H_    0.180140 0.296716 0.812097 0.137523
H16   H     H_    0.074346 0.331646 0.793505 0.131969
H17   H     H_    0.196620 0.426207 0.764874 0.173195
H18   H     H_    0.859765 0.646498 0.255011 0.237803
H19   H     H_    0.895329 0.814583 0.234383 0.112601
H20   H     H_    0.001706 0.805024 0.309835 0.184148
H21   H     H_    0.895821 0.806311 0.350086 0.225453
H22   H     H_    0.665538 0.668585 0.186526 0.270207
H23   H     H_    0.315880 0.762898 0.532378 0.214716
H24   H     H_    0.604577 0.782220 0.216672 0.156722
H25   H     H_    0.738906 0.852526 0.212944 0.140376
H26   H     H_    0.689422 0.794091 0.317663 0.160536
H27   H     H_    0.322117 0.250224 0.774389 0.265287
H28   H     H_    0.222476 0.084855 0.739937 0.148103
H29   H     H_    0.145649 0.135171 0.653497 0.224004
H30   H     H_    0.131280 0.118878 0.767784 0.143135
H31   H     H_    0.966043 0.294011 0.152963 0.263840
H32   H     H_    0.847543 0.151581 0.091851 0.142777
H33   H     H_    0.946677 0.222062 0.020856 0.136101
H34   H     H_    0.681935 0.240173 0.504090 0.266158
H35   H     H_    0.826366 0.233947 0.991897 0.187624
H36   H     H_    0.040194 0.711751 0.846917 0.256859
H37   H     H_    0.158113 0.854439 0.907301 0.138699
H38   H     H_    0.181959 0.772756 0.006670 0.186979
H39   H     H_    0.060933 0.783174 0.980167 0.137206
H40   H     H_    0.919755 0.649516 0.058284 0.245252
H41   H     H_    0.783353 0.667674 0.948146 0.145706
H42   H     H_    0.803788 0.594029 0.886983 0.153396
H43   H     H_    0.899733 0.717142 0.899515 0.150242
H44   H     H_    0.086170 0.355203 0.942926 0.240784
H45   H     H_    0.791056 0.440912 0.861864 0.239669
H46   H     H_    0.223834 0.338783 0.052235 0.137506
H47   H     H_    0.107961 0.289864 0.101574 0.154038
H48   H     H_    0.203973 0.413319 0.112765 0.174543
H49   H     H_    0.434937 0.619323 0.216017 0.280803
H50   H     H_    0.459631 0.544424 0.112368 0.121542
H51   H     H_    0.394848 0.445849 0.199591 0.181597
H52   H     H_    0.529961 0.485800 0.197988 0.164608
H53   H     H_    0.489351 0.242514 0.724759 0.266008
H54   H     H_    0.372633 0.072885 0.708494 0.130236
H55   H     H_    0.447844 0.136780 0.618422 0.197366
H56   H     H_    0.653965 0.320343 0.946156 0.129166
H57   H     H_    0.317828 0.125594 0.605475 0.186766
H58   H     H_    0.714142 0.434678 0.989468 0.167415
H59   H     H_    0.742530 0.325744 0.043975 0.193181
H60   H     H_    0.215517 0.565304 0.138298 0.273861
N1    N     N_R   0.795440 0.560790 0.443380 -0.219413
N2    N     N_2   0.262956 0.240746 0.724703 -0.530161
N3    N     N_2   0.921647 0.305824 0.095082 -0.509833
N4    N     N_2   0.084898 0.700006 0.904610 -0.509085
N5    N     N_2   0.886186 0.602697 0.013309 -0.519760
N6    N     N_2   0.120477 0.403074 0.986935 -0.523070
N7    N     N_2   0.487499 0.587257 0.233917 -0.503448
N8    N     N_2   0.423862 0.230582 0.681720 -0.502776
N9    N     N_R   0.204560 0.439210 0.556620 -0.235410
N10   N     N_2   0.806362 0.404878 0.924723 -0.522058
N11   N     N_2   0.200303 0.601083 0.075299 -0.522277
N12   N     N_2   0.304574 0.574302 0.447744 -0.439382
N13   N     N_2   0.730296 0.474184 0.583085 -0.434652
N14   N     N_2   0.117228 0.322778 0.679336 -0.429385
N15   N     N_2   0.871724 0.670602 0.313129 -0.451499
N16   N     N_2   0.691890 0.695273 0.244299 -0.520515
O1    O     O_R   0.977900 0.338120 0.529810 -0.421347
O2    O     O_R   0.022100 0.661880 0.470190 -0.416021
O3    O     O_R   0.839850 0.379180 0.491620 -0.516369
O4    O     O_R   0.160150 0.620820 0.508380 -0.540520
O5    O     O_R   0.069010 0.479460 0.640020 -0.475990
O6    O     O_R   0.930990 0.520540 0.359980 -0.490616
O7    O     O_R   0.930960 0.520530 0.601820 -0.511968
O8    O     O_R   0.069040 0.479470 0.398180 -0.492327

loop_
_geom_bond_atom_site_label_1
_geom_bond_atom_site_label_2
_ccdc_geom_bond_type
C58   N5    S    
C59   H47   S    
C38   C40   S    
C21   C26   A    
C34   C56   A    
C59   H46   S    
C23   C45   A    
C22   C29   A    
C27   C29   A    
C48   H2    S    
C36   C42   T    
C50   H10   S    
C7    F7    S    
C57   H37   S    
C3    C64   A    
C53   H25   S    
C25   C28   A    
C32   N4    S    
C26   C27   A    
C33   C39   S    
C51   N14   S    
C54   H30   S    
C60   H51   S    
C28   F2    S    
C51   H16   S    
C15   N14   S    
Cu1   N9    S    
C11   C14   A    
C57   H38   S    
C62   H34   S    
C20   C25   A    
C49   H7    S    
C52   H21   S    
C35   N11   S    
C32   C39   S    
C48   H4    S    
C60   H50   S    
C12   O2    A    
C62   C64   A    
C11   N16   S    
C50   H11   S    
C51   H17   S    
C3    C23   A    
C52   N15   S    
C57   N4    S    
C31   C33   S    
C52   H20   S    
C31   N3    S    
C61   H55   S    
C59   H48   S    
C40   C42   S    
C45   F4    S    
C29   N7    S    
C33   N10   S    
C47   H59   S    
C58   H42   S    
H45   N10   S    
C41   C43   S    
C2    C6    A    
C16   O5    A    
H44   N6    S    
C16   C36   S    
H5    N12   S    
C4    C34   A    
C53   H26   S    
C39   N5    S    
C33   C40   S    
C47   H56   S    
C19   N12   S    
C32   C35   S    
C23   F5    S    
C54   H29   S    
H36   N4    S    
C35   C38   S    
C39   C41   S    
C18   N13   S    
C57   H39   S    
C55   H32   S    
C44   C62   A    
C25   C26   A    
C47   N10   S    
C58   H43   S    
C5    C64   A    
C55   H33   S    
H53   N8    S    
C49   H8    S    
Cu1   O1    S    
C2    C4    A    
C50   N13   S    
Cu2   O2    S    
Cu1   O4    S    
C3    C9    A    
C60   N7    S    
C5    C8    A    
C1    C44   S    
H22   N16   S    
C48   N11   S    
H49   N7    S    
C48   H3    S    
C8    F8    S    
H14   N14   S    
C18   N1    A    
C17   C37   S    
H40   N5    S    
C1    O3    A    
C17   O8    A    
C50   H13   S    
C15   N9    A    
C12   C46   S    
C20   C22   A    
Cu1   Cu2   S    
C13   C15   A    
C53   N16   S    
C13   N2    S    
H9    N13   S    
C37   C43   T    
C4    C10   A    
C34   F6    S    
C2    C63   A    
H27   N2    S    
C7    C9    A    
H60   N11   S    
C10   H12   S    
C19   N9    A    
C31   C41   S    
C19   C21   A    
C16   O7    A    
C54   H28   S    
C8    C10   A    
C44   C45   A    
C12   O4    A    
Cu1   O8    S    
C55   N3    S    
Cu2   O3    S    
C49   H6    S    
C6    C7    A    
C53   H24   S    
C46   C63   A    
C11   C22   A    
C30   N8    S    
C31   C38   S    
C52   H19   S    
C47   H58   S    
C60   H52   S    
Cu1   O5    S    
C54   N2    S    
C51   H15   S    
Cu2   O6    S    
C58   H41   S    
C5    C6    A    
C59   N6    S    
C14   N15   S    
C28   C30   A    
C49   N12   S    
C1    O1    A    
C61   H54   S    
C18   C20   A    
C32   C40   S    
C35   C41   S    
C24   C30   A    
C27   F1    S    
C61   H57   S    
H31   N3    S    
Cu2   N1    S    
C61   N8    S    
C13   C24   A    
C63   H23   S    
C56   F3    S    
C14   N1    A    
C21   C24   A    
C46   C56   A    
H18   N15   S    
C38   N6    S    
C9    H1    S    
C17   O6    A    
Cu2   O7    S    
C55   H35   S    
