data_mof_unit_12087.cif
_audit_creation_date              2012-12-11T16:37:20-0500
_audit_creation_method            fapswitch 2.2
_symmetry_space_group_name_H-M    P1
_symmetry_Int_Tables_number       1
_space_group_crystal_system       triclinic
_cell_length_a                    19.497714
_cell_length_b                    6.98264
_cell_length_c                    17.665841
_cell_angle_alpha                 90.000706
_cell_angle_beta                  108.854852
_cell_angle_gamma                 89.999056
_cell_volume                      2276.06679256

loop_
_atom_site_label
_atom_site_type_symbol
_atom_type_description
_atom_site_fract_x
_atom_site_fract_y
_atom_site_fract_z
_atom_type_partial_charge
O1    O     O_R   0.561710 0.369960 0.440200 -0.538217
O2    O     O_R   0.061710 0.630040 0.940200 -0.538224
O3    O     O_R   0.412630 0.033330 0.406330 -0.541967
O4    O     O_R   0.912630 0.966670 0.906330 -0.541964
O5    O     O_R   0.438290 0.869790 0.559800 -0.537737
O6    O     O_R   0.938290 0.130210 0.059800 -0.537749
C1    C     C_R   0.384390 0.203282 0.384027 0.696747
C2    C     C_R   0.884389 0.796718 0.884027 0.696748
O7    O     O_R   0.559570 0.039810 0.430640 -0.540262
O8    O     O_R   0.059570 0.960190 0.930640 -0.540268
O9    O     O_R   0.586280 0.876320 0.584290 -0.539087
O10   O     O_R   0.086280 0.123680 0.084290 -0.539084
C3    C     C_R   0.581304 0.209010 0.415979 0.700206
C4    C     C_R   0.081301 0.790984 0.915975 0.700216
O11   O     O_R   0.413720 0.363440 0.415710 -0.538105
O12   O     O_R   0.913720 0.636560 0.915710 -0.538103
O13   O     O_3   0.508590 0.205630 0.550380 -0.370624
O14   O     O_3   0.008590 0.794370 0.050380 -0.370628
V1    V     V_3+5 0.498410 0.928130 0.490650 1.391427
V2    V     V_3+5 0.998410 0.071870 0.990650 1.391389
O15   O     O_R   0.587370 0.546990 0.593670 -0.539584
O16   O     O_R   0.087370 0.453010 0.093670 -0.539577
C5    C     C_R   0.614842 0.716814 0.617107 0.694835
C6    C     C_R   0.114841 0.283186 0.117107 0.694854
O17   O     O_R   0.440430 0.540520 0.569360 -0.543211
O18   O     O_R   0.940430 0.459480 0.069360 -0.543228
C7    C     C_R   0.419013 0.709173 0.584373 0.677252
C8    C     C_R   0.919010 0.290830 0.084373 0.677256
V3    V     V_3+5 0.501590 0.428960 0.509350 1.390688
V4    V     V_3+5 0.001590 0.571040 0.009350 1.390651
O19   O     O_3   0.491410 0.701330 0.449620 -0.369904
O20   O     O_3   0.991410 0.298670 0.949620 -0.369905
C9    C     C_R   0.322336 0.890126 0.726030 -0.155448
C10   C     C_R   0.822229 0.109655 0.225894 -0.155443
H1    H     H_    0.323806 0.015353 0.762705 0.114765
H2    H     H_    0.823613 0.984263 0.262452 0.114699
C11   C     C_R   0.368687 0.881593 0.679784 -0.162529
C12   C     C_R   0.868574 0.118211 0.179643 -0.162534
H3    H     H_    0.404651 0.000977 0.681590 0.123095
H4    H     H_    0.904443 0.998675 0.181330 0.123141
C13   C     C_R   0.369630 0.719122 0.633038 -0.047471
C14   C     C_R   0.869630 0.280881 0.133043 -0.047508
C15   C     C_R   0.321722 0.567893 0.631823 -0.170046
C16   C     C_R   0.821836 0.432295 0.131981 -0.170082
C17   C     C_R   0.274114 0.578677 0.676470 -0.129159
C18   C     C_R   0.774235 0.421495 0.176637 -0.129223
H5    H     H_    0.235828 0.463494 0.671588 0.108752
H6    H     H_    0.736033 0.536825 0.171873 0.108828
C19   C     C_R   0.275115 0.737687 0.725718 0.096168
C20   C     C_R   0.775126 0.262273 0.225737 0.096129
C21   C     C_R   0.223765 0.599955 0.830057 0.187859
C22   C     C_R   0.723851 0.399880 0.330160 0.187846
C23   C     C_R   0.175725 0.616307 0.874500 -0.158286
C24   C     C_R   0.675811 0.383539 0.374602 -0.158315
H7    H     H_    0.173867 0.502884 0.915678 0.123452
H8    H     H_    0.674002 0.496881 0.415835 0.123447
C25   C     C_R   0.131406 0.778461 0.867990 -0.092853
C26   C     C_R   0.631417 0.221509 0.368007 -0.092813
C27   C     C_R   0.135993 0.926521 0.816140 -0.166841
C28   C     C_R   0.635941 0.073542 0.316087 -0.166782
H9    H     H_    0.102841 0.053691 0.810061 0.131772
H10   H     H_    0.602731 0.946465 0.309946 0.131729
C29   C     C_R   0.182329 0.910373 0.770173 -0.185879
C30   C     C_R   0.682283 0.089674 0.270129 -0.185912
H11   H     H_    0.183547 0.025521 0.729540 0.117375
H12   H     H_    0.683454 0.974599 0.229444 0.117311
C31   C     C_R   0.226173 0.747328 0.775571 0.070877
C32   C     C_R   0.726192 0.252615 0.275600 0.070913
C33   C     C_R   0.797874 0.607673 0.772342 0.099375
C34   C     C_R   0.297872 0.392328 0.272344 0.099371
C35   C     C_R   0.816521 0.779737 0.814787 -0.103700
C36   C     C_R   0.316522 0.220264 0.314787 -0.103703
C37   C     C_R   0.766212 0.928786 0.792169 -0.208779
C38   C     C_R   0.266213 0.071218 0.292168 -0.208780
H13   H     H_    0.775373 0.054997 0.828055 0.148752
H14   H     H_    0.275375 0.945011 0.328055 0.148756
C39   C     C_R   0.700902 0.908012 0.728293 -0.176985
C40   C     C_R   0.200902 0.091991 0.228294 -0.176986
H15   H     H_    0.662054 0.023865 0.715393 0.135457
H16   H     H_    0.162055 0.976142 0.215393 0.135464
C41   C     C_R   0.683681 0.735433 0.684692 -0.093521
C42   C     C_R   0.183681 0.264567 0.184693 -0.093526
C43   C     C_R   0.734681 0.587844 0.706436 0.056582
C44   C     C_R   0.234678 0.412157 0.206439 0.056599
C45   C     C_3   0.722065 0.389538 0.729192 -0.427112
C46   C     C_3   0.222059 0.610460 0.229197 -0.427107
C47   C     C_3   0.787453 0.415044 0.803884 -0.017051
C48   C     C_3   0.287448 0.584953 0.303888 -0.017041
H17   H     H_    0.731447 0.284735 0.686243 0.155168
H18   H     H_    0.231439 0.715262 0.186249 0.155168
H19   H     H_    0.669315 0.373317 0.740272 0.181235
H20   H     H_    0.169310 0.626680 0.240278 0.181238
H21   H     H_    0.833363 0.317563 0.807049 0.145310
H22   H     H_    0.333357 0.682430 0.307053 0.145308
C49   C     C_3   0.766208 0.423134 0.880794 -0.740522
H23   H     H_    0.730866 0.548364 0.880320 0.214224
H24   H     H_    0.735947 0.292831 0.886887 0.191072
H25   H     H_    0.815231 0.432109 0.934172 0.212559
C50   C     C_3   0.266205 0.576856 0.380798 -0.740587
H26   H     H_    0.230864 0.451630 0.380321 0.214228
H27   H     H_    0.315229 0.567872 0.434173 0.212552
H28   H     H_    0.235945 0.707156 0.386896 0.191089
H29   H     H_    0.319923 0.442926 0.594890 0.117813
H30   H     H_    0.820121 0.557428 0.095163 0.117852
C51   C     C_3   0.273932 0.429464 0.844972 -0.813850
H31   H     H_    0.273810 0.348966 0.899171 0.207764
H32   H     H_    0.256609 0.328887 0.793846 0.199758
H33   H     H_    0.330398 0.477245 0.854362 0.218466
C52   C     C_3   0.774069 0.570278 0.345138 -0.813771
H34   H     H_    0.774196 0.650204 0.399564 0.207764
H35   H     H_    0.830483 0.522504 0.354191 0.218472
H36   H     H_    0.756577 0.671346 0.294179 0.199755

loop_
_geom_bond_atom_site_label_1
_geom_bond_atom_site_label_2
_ccdc_geom_bond_type
V4    O20   S    
C29   H11   S    
O13   V3    S    
C49   H23   S    
O4    C2    A    
V1    O19   S    
C45   H19   S    
C49   H25   S    
C51   H32   S    
O9    V1    S    
C38   H14   S    
C30   C32   A    
C44   C46   S    
C12   C14   A    
O3    C1    A    
C52   H35   S    
C24   C26   A    
C40   H16   S    
C25   C27   A    
C9    C19   A    
C46   C48   S    
C28   H10   S    
C8    C14   S    
C33   C35   A    
C7    C13   S    
O7    C3    A    
C1    O11   A    
O5    C7    A    
O7    V1    S    
O6    C8    A    
O8    V2    S    
C47   C49   S    
O3    V1    S    
O14   V4    S    
C17   C19   A    
C34   C44   A    
C10   H2    S    
C33   C47   S    
C17   H5    S    
C34   C48   S    
C2    O12   A    
C13   C15   A    
C14   C16   A    
C41   C43   A    
C22   C24   A    
O11   V3    S    
C48   H22   S    
C23   H7    S    
O17   V3    S    
C51   H33   S    
C29   C31   A    
C10   C20   A    
C27   H9    S    
C45   C47   S    
C36   C38   A    
C46   H18   S    
C52   H36   S    
C1    C36   S    
C35   C37   A    
C23   C25   A    
O13   V1    S    
C3    C26   S    
C16   C18   A    
O15   V3    S    
C6    C42   S    
C9    C11   A    
C21   C23   A    
C30   H12   S    
C33   C43   A    
C40   C42   A    
C50   H26   S    
C16   H30   S    
C39   C41   A    
C21   C51   S    
O10   V2    S    
O1    V3    S    
C39   H15   S    
C21   C31   A    
C15   C17   A    
C50   H27   S    
O18   V4    S    
C42   C44   A    
O15   C5    A    
O8    C4    A    
O16   C6    A    
O1    C3    A    
C37   H13   S    
O12   V4    S    
V2    O20   S    
C4    C25   S    
C18   C20   A    
C2    C35   S    
C45   H17   S    
C5    C41   S    
C43   C45   S    
C10   C12   A    
O18   C8    A    
C22   C32   A    
C34   C36   A    
C49   H24   S    
C24   H8    S    
C19   C31   S    
O5    V1    S    
O17   C7    A    
O6    V2    S    
C51   H31   S    
O10   C6    A    
C27   C29   A    
O2    V4    S    
C28   C30   A    
V3    O19   S    
O16   V4    S    
C52   H34   S    
C12   H4    S    
C20   C32   S    
C22   C52   S    
C47   H21   S    
O9    C5    A    
C9    H1    S    
O14   V2    S    
C11   C13   A    
O2    C4    A    
C15   H29   S    
C48   C50   S    
O4    V2    S    
C18   H6    S    
C50   H28   S    
C11   H3    S    
C38   C40   A    
C37   C39   A    
C46   H20   S    
C26   C28   A    
