data_mof_unit_32563.cif
_audit_creation_date              2012-12-10T19:11:05-0500
_audit_creation_method            fapswitch 2.2
_symmetry_space_group_name_H-M    P1
_symmetry_Int_Tables_number       1
_space_group_crystal_system       triclinic
_cell_length_a                    10.834501
_cell_length_b                    9.066836
_cell_length_c                    7.770876
_cell_angle_alpha                 90.000025
_cell_angle_beta                  90.210699
_cell_angle_gamma                 89.999951
_cell_volume                      763.364073571

loop_
_atom_site_label
_atom_site_type_symbol
_atom_type_description
_atom_site_fract_x
_atom_site_fract_y
_atom_site_fract_z
_atom_type_partial_charge
C1    C     C_R   0.500000 0.220017 0.500000 0.830173
C2    C     C_R   0.259796 0.492444 0.499462 0.827650
C3    C     C_R   0.740204 0.492442 0.500538 0.827636
C4    C     C_R   0.500000 0.779985 0.500000 0.828195
C5    C     C_1   0.500000 0.065421 0.500000 -0.184662
C6    C     C_3   0.074201 0.402037 0.659430 -0.013318
C7    C     C_3   0.068884 0.419513 0.326983 -0.004864
C8    C     C_3   0.931115 0.419492 0.673005 -0.004857
C9    C     C_3   0.925799 0.402051 0.340558 -0.013315
C10   C     C_1   0.500000 0.934592 0.500000 -0.188017
C11   C     C_3   0.074109 0.660850 0.513984 0.264645
C12   C     C_3   0.925889 0.660850 0.486039 0.264642
C13   C     C_3   0.122257 0.492281 0.498877 -0.010343
C14   C     C_3   0.877742 0.492279 0.501122 -0.010344
Cu1   Cu    Cu3+1 0.500000 0.500010 0.669080 0.968991
Cu2   Cu    Cu3+1 0.500000 0.500010 0.330920 0.968995
N1    N     N_1   0.500000 0.499970 0.076820 -0.056223
N2    N     N_1   0.500000 0.499970 0.923180 -0.056222
O1    O     O_R   0.500000 0.288400 0.642760 -0.581557
O2    O     O_R   0.500000 0.288400 0.357240 -0.581548
O3    O     O_R   0.317700 0.499990 0.642790 -0.597584
O4    O     O_R   0.317700 0.499990 0.357210 -0.592200
O5    O     O_R   0.682300 0.499990 0.642790 -0.592205
O6    O     O_R   0.682300 0.499990 0.357210 -0.597578
O7    O     O_R   0.500000 0.711620 0.642810 -0.576779
O8    O     O_R   0.500000 0.711620 0.357190 -0.576778
H1    H     H_    0.113573 0.452862 0.777444 0.161577
H2    H     H_    0.084364 0.500095 0.222370 0.138178
H3    H     H_    0.915630 0.500060 0.777631 0.138181
H4    H     H_    0.886425 0.452886 0.222551 0.161575
C15   C     C_3   0.123920 0.241672 0.674505 -0.812637
H5    H     H_    0.067771 0.160652 0.603503 0.234212
H6    H     H_    0.220820 0.232279 0.630692 0.225839
H7    H     H_    0.123742 0.206357 0.811380 0.216835
C16   C     C_3   0.135392 0.280894 0.253410 -0.828738
H8    H     H_    0.141676 0.188168 0.344345 0.235300
H9    H     H_    0.086043 0.241551 0.136766 0.219047
H10   H     H_    0.229669 0.305160 0.207608 0.253260
C17   C     C_3   0.864612 0.280859 0.746549 -0.828742
H11   H     H_    0.858376 0.188124 0.655618 0.235301
H12   H     H_    0.913940 0.241537 0.863222 0.219041
H13   H     H_    0.770315 0.305096 0.792296 0.253260
C18   C     C_3   0.876084 0.241685 0.325466 -0.812616
H14   H     H_    0.932251 0.160658 0.396430 0.234215
H15   H     H_    0.779192 0.232279 0.369312 0.225840
H16   H     H_    0.876239 0.206391 0.188584 0.216824
C19   C     C_3   0.111481 0.730362 0.692504 -0.856357
H17   H     H_    0.063628 0.681209 0.803944 0.196781
H18   H     H_    0.211922 0.722916 0.717294 0.249506
H19   H     H_    0.091040 0.850362 0.695938 0.237808
C20   C     C_3   0.142381 0.763981 0.382582 -0.805967
H20   H     H_    0.106154 0.878425 0.389797 0.223712
H21   H     H_    0.242139 0.773086 0.413231 0.227382
H22   H     H_    0.136337 0.727175 0.247301 0.212986
C21   C     C_3   0.857617 0.763967 0.617456 -0.805956
H23   H     H_    0.863659 0.727146 0.752731 0.212987
H24   H     H_    0.893843 0.878412 0.610258 0.223711
H25   H     H_    0.757859 0.773076 0.586807 0.227388
C22   C     C_3   0.888516 0.730379 0.307530 -0.856360
H26   H     H_    0.788074 0.722933 0.282740 0.249502
H27   H     H_    0.908956 0.850380 0.304111 0.237807
H28   H     H_    0.936368 0.681238 0.196082 0.196783

loop_
_geom_bond_atom_site_label_1
_geom_bond_atom_site_label_2
_ccdc_geom_bond_type
N1    N2    T    
C2    O4    A    
Cu1   N2    S    
C8    C14   S    
C9    C14   S    
C15   H6    S    
C11   C19   S    
C1    O1    A    
C8    C17   S    
C17   H13   S    
C11   C13   S    
C3    O5    A    
C6    H1    S    
C22   H27   S    
Cu2   O2    S    
C11   C12   S    
C20   H22   S    
C21   H23   S    
Cu1   O5    S    
C6    C15   S    
C15   H7    S    
C22   H26   S    
Cu2   O6    S    
C6    C13   S    
Cu1   O1    S    
C18   H15   S    
C3    O6    A    
C3    C14   S    
C9    H4    S    
C2    O3    A    
C1    C5    S    
C8    H3    S    
C1    O2    A    
C5    C10   T    
C16   H9    S    
C12   C14   S    
C4    O7    A    
C19   H19   S    
C21   H24   S    
C18   H14   S    
Cu2   O8    S    
C18   H16   S    
C4    O8    A    
Cu1   O7    S    
C12   C21   S    
C9    C18   S    
Cu1   Cu2   S    
C4    C10   S    
C20   H20   S    
C19   H17   S    
Cu1   O3    S    
C16   H10   S    
C11   C20   S    
C17   H12   S    
C19   H18   S    
C21   H25   S    
C17   H11   S    
C7    C9    S    
C2    C13   S    
C22   H28   S    
C6    C8    S    
C7    C13   S    
C12   C22   S    
C7    C16   S    
C7    H2    S    
C15   H5    S    
Cu2   O4    S    
Cu2   N1    S    
C20   H21   S    
C16   H8    S    
