data_mof_unit_25492.cif
_audit_creation_date              2012-12-11T18:11:21-0500
_audit_creation_method            fapswitch 2.2
_symmetry_space_group_name_H-M    P1
_symmetry_Int_Tables_number       1
_space_group_crystal_system       triclinic
_cell_length_a                    8.201562
_cell_length_b                    12.679522
_cell_length_c                    18.717915
_cell_angle_alpha                 99.576657
_cell_angle_beta                  90.762901
_cell_angle_gamma                 98.650629
_cell_volume                      1896.08135364

loop_
_atom_site_label
_atom_site_type_symbol
_atom_type_description
_atom_site_fract_x
_atom_site_fract_y
_atom_site_fract_z
_atom_type_partial_charge
Ba1   Ba    Ba6+2 0.852780 0.548340 0.465070 1.641684
Ba2   Ba    Ba6+2 0.337060 0.451750 0.534940 1.641290
C1    C     C_3   0.573828 0.883692 0.235809 -0.267711
C2    C     C_R   0.900401 0.389784 0.095962 -0.085968
C3    C     C_R   0.762438 0.419292 0.956059 -0.102243
C4    C     C_3   0.132411 0.761988 0.265835 0.355964
C5    C     C_R   0.929032 0.457475 0.978586 0.021859
C6    C     C_R   0.704861 0.420397 0.885976 -0.100817
C7    C     C_R   0.810987 0.458320 0.834620 -0.034374
C8    C     C_R   0.974454 0.506853 0.857293 0.001465
C9    C     C_R   0.033448 0.507535 0.929774 0.027044
C10   C     C_R   0.758835 0.449213 0.761201 -0.001826
C11   C     C_R   0.868650 0.486992 0.711543 -0.294963
C12   C     C_3   0.639313 0.819642 0.289241 0.269935
C13   C     C_R   0.024749 0.543956 0.733620 0.041772
C14   C     C_R   0.078144 0.555748 0.807724 -0.040009
C15   C     C_R   0.155144 0.500325 0.071742 0.023719
C16   C     C_3   0.116254 0.787647 0.189727 -0.355884
C17   C     C_R   0.215016 0.498793 0.143800 0.000550
C18   C     C_R   0.112778 0.446628 0.192524 -0.037936
C19   C     C_R   0.960278 0.387071 0.165554 -0.020111
C20   C     C_R   0.230926 0.615332 0.834219 -0.021559
C21   C     C_R   0.289480 0.615533 0.904423 -0.087327
C22   C     C_R   0.196325 0.557928 0.952656 0.011908
C23   C     C_3   0.462094 0.276024 0.314075 0.307356
C24   C     C_R   0.258603 0.552432 0.023420 0.011730
C25   C     C_R   0.423413 0.594596 0.047011 -0.085830
C26   C     C_R   0.377742 0.548698 0.166885 -0.047431
C27   C     C_R   0.481072 0.592778 0.116851 -0.089241
C28   C     C_3   0.217382 0.793647 0.622478 0.272529
C29   C     C_R   0.432385 0.552853 0.239369 -0.009283
C30   C     C_R   0.324733 0.510265 0.288278 -0.293017
C31   C     C_R   0.167228 0.455228 0.266275 0.035646
C32   C     C_R   0.760264 0.183330 0.529720 -0.283810
C33   C     C_R   0.426667 0.807555 0.471005 -0.292010
C34   C     C_3   0.447002 0.241592 0.232155 -0.388514
C35   C     C_R   0.401596 0.984038 0.444399 -0.104277
C36   C     C_R   0.336572 0.875886 0.441488 -0.010358
C37   C     C_R   0.577144 0.848099 0.508942 0.090119
C38   C     C_R   0.641756 0.960177 0.515460 -0.026024
C39   C     C_R   0.553113 0.028168 0.481748 -0.076125
C40   C     C_3   0.153592 0.900816 0.636455 -0.289463
C41   C     C_R   0.615806 0.139531 0.488519 0.036628
C42   C     C_R   0.852659 0.117102 0.559367 -0.016105
C43   C     C_R   0.791816 0.006885 0.554195 -0.046352
C44   C     C_3   0.958953 0.214294 0.381969 0.295002
C45   C     C_3   0.087347 0.241450 0.734594 0.350591
C46   C     C_3   0.911937 0.092151 0.364061 -0.394688
C47   C     C_3   0.729214 0.707401 0.682634 0.316716
C48   C     C_3   0.745970 0.744826 0.764336 -0.369549
C49   C     C_2   0.707639 0.926735 0.189558 0.556589
C50   C     C_2   0.510478 0.093281 0.671058 0.453896
C51   C     C_3   0.114049 0.218398 0.810849 -0.363733
C52   C     C_3   0.598983 0.188218 0.722948 0.368851
C53   C     C_3   0.672815 0.151830 0.788679 -0.313588
C54   C     C_R   0.992299 0.450006 0.048760 0.011917
H1    H     H_    0.730405 0.874294 0.328168 0.062807
H2    H     H_    0.631734 0.635275 0.670913 0.061839
H3    H     H_    0.520059 0.952410 0.266199 0.037111
H4    H     H_    0.775559 0.678823 0.791891 0.051378
H5    H     H_    0.628209 0.768889 0.784938 0.131919
H6    H     H_    0.534518 0.789735 0.321396 -0.042417
H7    H     H_    0.474721 0.829761 0.200534 0.107082
H8    H     H_    0.341523 0.295878 0.333651 0.012890
H9    H     H_    0.557965 0.349016 0.326728 0.062571
H10   H     H_    0.349393 0.169932 0.217573 0.129648
H11   H     H_    0.414154 0.308563 0.206251 0.057399
H12   H     H_    0.218906 0.954137 0.684409 0.167267
H13   H     H_    0.566341 0.220719 0.211295 0.121835
H14   H     H_    0.160230 0.724207 0.149828 0.077250
H15   H     H_    0.179435 0.311291 0.726705 0.116658
H16   H     H_    0.962874 0.263719 0.729947 -0.053241
H17   H     H_    0.240622 0.200542 0.818644 0.157744
H18   H     H_    0.096193 0.289848 0.851389 0.072993
H19   H     H_    0.025482 0.147429 0.820302 0.109963
H20   H     H_    0.701286 0.225124 0.692434 -0.121556
H21   H     H_    0.754245 0.090722 0.770846 0.116903
H22   H     H_    0.048579 0.685441 0.268559 0.095399
H23   H     H_    0.170301 0.940275 0.588046 0.099684
H24   H     H_    0.573191 0.116011 0.821075 0.126864
H25   H     H_    0.828306 0.477249 0.655235 0.070852
H26   H     H_    0.576433 0.388597 0.872315 0.108199
H27   H     H_    0.883646 0.338225 0.198018 0.097731
H28   H     H_    0.309053 0.661899 0.800993 0.104467
H29   H     H_    0.608494 0.626763 0.130750 0.124476
H30   H     H_    0.366982 0.516023 0.344000 0.072291
H31   H     H_    0.671894 0.389243 0.991964 0.072829
H32   H     H_    0.781880 0.341444 0.080073 0.062370
H33   H     H_    0.408597 0.663390 0.919462 0.069973
H34   H     H_    0.853852 0.250390 0.406080 0.007140
H35   H     H_    0.261733 0.750708 0.276034 -0.080598
H36   H     H_    0.513178 0.628503 0.012301 0.089838
H37   H     H_    0.328871 0.032938 0.419166 0.108018
H38   H     H_    0.863901 0.959250 0.579944 0.096365
H39   H     H_    0.807397 0.268751 0.534445 0.068401
H40   H     H_    0.374825 0.723165 0.467860 0.067333
H41   H     H_    0.985382 0.790761 0.175774 0.162153
H42   H     H_    0.191094 0.867134 0.186318 0.118873
H43   H     H_    0.351461 0.808187 0.614181 0.049648
H44   H     H_    0.153079 0.745695 0.572343 0.056303
H45   H     H_    0.065103 0.233678 0.421377 0.083755
H46   H     H_    0.021381 0.886567 0.648967 0.112342
H47   H     H_    0.846267 0.815162 0.777610 0.126026
H48   H     H_    0.815444 0.981412 0.214250 -0.004077
H49   H     H_    0.435828 0.107593 0.626662 0.048473
H50   H     H_    0.747961 0.221569 0.823662 0.075291
H51   H     H_    0.789781 0.071909 0.334904 0.091093
H52   H     H_    0.904547 0.056752 0.414245 0.096271
H53   H     H_    0.006062 0.056363 0.329872 0.153473
H54   H     H_    0.848330 0.686184 0.662770 -0.007723
O1    O     O_2   0.873090 0.425890 0.325140 -0.462308
O2    O     O_2   0.188671 0.120860 0.548805 -0.492698
O3    O     O_3   0.105062 0.149646 0.683505 -0.612733
O4    O     O_3   0.122420 0.434370 0.414380 -0.497097
O5    O     O_3   0.578370 0.633800 0.536380 -0.493042
O6    O     O_2   0.341510 0.231850 0.465510 -0.467095
O7    O     O_3   0.505841 0.190618 0.345376 -0.649073
O8    O     O_2   0.419623 0.455635 0.757610 -0.503577
O9    O     O_3   0.485252 0.258409 0.747158 -0.630741
O10   O     O_3   0.659500 0.627100 0.368810 -0.469631
O11   O     O_2   0.768474 0.539458 0.243582 -0.491357
O12   O     O_3   0.687712 0.792271 0.650538 -0.600332
O13   O     O_3   0.999608 0.253368 0.318035 -0.641294
O14   O     O_3   0.719047 0.737851 0.250978 -0.596323
O15   O     O_2   0.848200 0.768190 0.534530 -0.486779
O16   O     O_3   0.081160 0.685950 0.404810 -0.485468
O17   O     O_2   0.998852 0.879181 0.449705 -0.488918
O18   O     O_2   0.696421 0.900141 0.123726 -0.579473
O19   O     O_2   0.524813 0.000445 0.676563 -0.629843
O20   O     O_3   0.088899 0.847601 0.315976 -0.601360
O21   O     O_2   0.316610 0.574140 0.674900 -0.464034
O22   O     O_3   0.067290 0.565720 0.585630 -0.499989
O23   O     O_3   0.530210 0.372990 0.631200 -0.465820
O24   O     O_3   0.191230 0.746461 0.684587 -0.633801
O25   O     O_3   0.611340 0.366290 0.463630 -0.477987
O26   O     O_3   0.108550 0.314140 0.595200 -0.486796
P1    P     P_3+3 0.041040 0.394770 0.336330 0.970133
P2    P     P_3+3 0.672880 0.754030 0.556100 0.996708
P3    P     P_3+3 0.126980 0.823834 0.403686 0.952582
P4    P     P_3+3 0.148670 0.605320 0.663680 0.972664
P5    P     P_3+3 0.062209 0.175141 0.596514 0.936064
P6    P     P_3+3 0.643335 0.612551 0.274791 0.954189
P7    P     P_3+3 0.522081 0.230297 0.439651 0.935504
P8    P     P_3+3 0.549543 0.386872 0.725268 0.933518

loop_
_geom_bond_atom_site_label_1
_geom_bond_atom_site_label_2
_ccdc_geom_bond_type
C23   H9    S    
C16   H14   S    
C2    C19   A    
C28   H44   S    
C25   C27   A    
C41   P7    S    
C51   H18   S    
C4    O20   S    
Ba1   O22   S    
C34   H11   S    
C33   H40   S    
C42   C43   A    
C5    C9    A    
C10   C11   A    
C24   C25   A    
O26   P5    S    
C6    H26   S    
C49   O18   D    
C26   C27   A    
O7    P7    S    
Ba1   O15   S    
C50   O19   D    
O8    P8    D    
O24   P4    S    
C53   H21   S    
C34   H10   S    
C4    H22   S    
C46   H51   S    
C43   H38   S    
C13   C14   A    
C12   H6    S    
C11   H25   S    
C9    C22   A    
Ba1   Ba2   S    
O4    P1    S    
C12   H1    S    
O21   P4    D    
Ba2   O6    S    
C19   H27   S    
C31   P1    S    
C42   P5    S    
C28   O24   S    
C44   H34   S    
Ba2   O22   S    
C21   C22   A    
C21   H33   S    
C16   H41   S    
C7    C8    A    
C27   H29   S    
C45   C51   S    
O25   P7    S    
C46   H53   S    
C37   P2    S    
C40   H23   S    
C52   O9    S    
C2    C54   A    
C40   H12   S    
O9    P8    S    
C39   C41   A    
O14   P6    S    
C51   H19   S    
O17   P3    D    
C5    C54   A    
O20   P3    S    
C40   H46   S    
C50   C52   S    
C38   C43   A    
C4    C16   S    
C44   H45   S    
C44   C46   S    
O16   P3    S    
Ba2   O23   S    
C12   O14   S    
C53   H50   S    
C33   C36   A    
O10   P6    S    
Ba1   O16   S    
O12   P2    S    
C37   C38   A    
C3    C5    A    
C1    C49   S    
C6    C7    A    
C49   H48   S    
C28   H43   S    
Ba2   O26   S    
C47   H2    S    
C10   P8    S    
C23   H8    S    
C20   H28   S    
O2    P5    D    
C33   C37   A    
C35   C36   A    
O6    P7    D    
Ba2   O5    S    
C29   C30   A    
O5    P2    S    
C36   P3    S    
C30   H30   S    
Ba2   O21   S    
C35   H37   S    
C25   H36   S    
C32   H39   S    
C17   C26   A    
C15   C54   A    
C45   H15   S    
C1    C12   S    
C52   H20   S    
C18   C31   A    
C38   C39   A    
C50   H49   S    
C11   C13   A    
C44   O13   S    
Ba1   O4    S    
C15   C24   A    
Ba1   P1    S    
C34   H13   S    
O1    P1    D    
C13   P4    S    
C45   O3    S    
C32   C42   A    
C52   C53   S    
O23   P8    S    
C14   C20   A    
O11   P6    D    
C26   C29   A    
C51   H17   S    
C32   C41   A    
C22   C24   A    
C23   O7    S    
C3    C6    A    
C2    H32   S    
C1    H7    S    
O15   P2    D    
O22   P4    S    
C16   H42   S    
O13   P1    S    
Ba2   O25   S    
C48   H4    S    
C30   C31   A    
C17   C18   A    
Ba2   P4    S    
C8    C14   A    
Ba1   O1    S    
C53   H24   S    
Ba2   O4    S    
C46   H52   S    
C29   P6    S    
C47   O12   S    
C15   C17   A    
O3    P5    S    
C35   C39   A    
C7    C10   A    
C45   H16   S    
C8    C9    A    
C23   C34   S    
C3    H31   S    
C48   H47   S    
C18   C19   A    
C47   C48   S    
C48   H5    S    
C20   C21   A    
C28   C40   S    
Ba1   O5    S    
Ba1   O25   S    
Ba1   O10   S    
Ba1   P2    S    
C4    H35   S    
C47   H54   S    
C1    H3    S    
