data_mof_unit_28338.cif
_audit_creation_date              2012-12-10T17:33:48-0500
_audit_creation_method            fapswitch 2.2
_symmetry_space_group_name_H-M    P1
_symmetry_Int_Tables_number       1
_space_group_crystal_system       triclinic
_cell_length_a                    11.679349
_cell_length_b                    12.39869
_cell_length_c                    13.35565
_cell_angle_alpha                 116.71278
_cell_angle_beta                  76.121093
_cell_angle_gamma                 101.428153
_cell_volume                      1668.04083395

loop_
_atom_site_label
_atom_site_type_symbol
_atom_type_description
_atom_site_fract_x
_atom_site_fract_y
_atom_site_fract_z
_atom_type_partial_charge
C1    C     C_R   0.513250 0.854909 0.286506 0.791015
C2    C     C_R   0.487786 0.229241 0.836424 -0.236705
C3    C     C_R   0.620760 0.807681 0.086934 -0.137291
C4    C     C_R   0.693385 0.722602 0.999352 -0.113614
C5    C     C_R   0.669811 0.600411 0.980434 0.378220
C6    C     C_R   0.557655 0.559922 0.030036 -0.037672
C7    C     C_R   0.495319 0.646494 0.128574 0.019701
C8    C     C_R   0.507871 0.436367 0.987616 -0.031923
C9    C     C_R   0.420137 0.397116 0.061326 -0.024427
C10   C     C_R   0.356383 0.484254 0.157860 -0.036348
C11   C     C_R   0.391393 0.607276 0.187440 -0.205491
C12   C     C_R   0.715791 0.000001 0.499489 0.809582
C13   C     C_R   0.529703 0.354616 0.870980 -0.062602
C14   C     C_R   0.437290 0.188045 0.922200 -0.147300
C15   C     C_R   0.535935 0.771278 0.163956 -0.167158
C16   C     C_R   0.689788 0.346887 0.329120 -0.320081
C17   C     C_R   0.334343 0.758242 0.641091 0.496092
C18   C     C_R   0.283254 0.651480 0.653938 0.191462
C19   C     C_R   0.328471 0.541617 0.578497 0.280112
C20   C     C_R   0.444618 0.541579 0.514684 -0.186343
C21   C     C_R   0.490240 0.649702 0.499141 0.115403
C22   C     C_R   0.515507 0.440010 0.462957 -0.024372
C23   C     C_R   0.490659 0.145366 0.713386 0.813360
C24   C     C_R   0.619530 0.443838 0.382417 0.082635
C25   C     C_R   0.655384 0.546927 0.359708 -0.067325
C26   C     C_R   0.591722 0.646958 0.417747 -0.136757
C27   C     C_R   0.495614 0.339631 0.493639 0.097535
C28   C     C_R   0.662602 0.249593 0.357978 0.149188
C29   C     C_R   0.284420 0.999194 0.499210 0.813963
C30   C     C_1   0.837772 0.000236 0.499065 -0.152139
C31   C     C_1   0.940316 0.999682 0.498877 0.013084
C32   C     C_1   0.060034 0.998751 0.498802 -0.003039
C33   C     C_1   0.162566 0.998485 0.498839 -0.188617
C34   C     C_R   0.396704 0.271554 0.032770 0.386732
Cu1   Cu    Cu3+1 0.526510 0.098270 0.475420 0.960645
Cu2   Cu    Cu3+1 0.473490 0.901730 0.524580 0.969914
H1    H     H_    0.768384 0.347370 0.266556 0.166115
H2    H     H_    0.625107 0.722212 0.397065 0.200403
H3    H     H_    0.335323 0.672541 0.255725 0.154511
N1    N     N_R   0.566700 0.246290 0.438210 -0.247842
N2    N     N_R   0.434010 0.754320 0.561170 -0.250743
O1    O     O_R   0.533340 0.972510 0.318140 -0.581342
O2    O     O_R   0.488570 0.806530 0.359650 -0.602716
O3    O     O_R   0.685190 0.083000 0.479260 -0.569612
O4    O     O_R   0.640410 0.917020 0.520770 -0.593143
O5    O     O_R   0.511430 0.193470 0.640350 -0.588374
O6    O     O_R   0.466660 0.027490 0.681860 -0.518049
O7    O     O_R   0.359590 0.082980 0.479230 -0.585205
O8    O     O_R   0.314810 0.917000 0.520740 -0.565181
C35   C     C_1   0.430172 0.062295 0.901958 0.416322
N3    N     N_1   0.426033 0.962638 0.888168 -0.274291
C36   C     C_1   0.765137 0.558570 0.285232 0.200443
N4    N     N_1   0.853597 0.568455 0.226948 -0.314628
C37   C     C_1   0.413024 0.340934 0.593324 0.443253
N5    N     N_1   0.346664 0.342178 0.673690 -0.296265
O9    O     O_3   0.292834 0.870107 0.714079 -0.542941
C38   C     C_3   0.171055 0.871285 0.717346 0.127181
H4    H     H_    0.114225 0.829224 0.772204 0.214498
H5    H     H_    0.147046 0.824876 0.630760 0.141186
C39   C     C_3   0.142741 0.002622 0.772414 -0.759578
H6    H     H_    0.203159 0.055557 0.728954 0.244159
H7    H     H_    0.049765 0.005754 0.768032 0.209728
H8    H     H_    0.153670 0.045613 0.863115 0.249891
O10   O     O_3   0.253826 0.436522 0.565278 -0.565045
C40   C     C_3   0.189661 0.407545 0.478164 0.106871
H9    H     H_    0.250294 0.379589 0.394874 0.153195
H10   H     H_    0.143776 0.485616 0.493175 0.165310
C41   C     C_3   0.095814 0.302170 0.474712 -0.717972
H11   H     H_    0.031694 0.329332 0.555994 0.256517
H12   H     H_    0.047293 0.275104 0.403552 0.219829
H13   H     H_    0.138266 0.223393 0.462044 0.240168
O11   O     O_3   0.183911 0.651550 0.734485 -0.569387
C42   C     C_3   0.220179 0.656371 0.830076 0.108669
H14   H     H_    0.295427 0.727907 0.857255 0.151157
H15   H     H_    0.246814 0.566806 0.810811 0.181805
C43   C     C_3   0.117038 0.686350 0.929152 -0.759458
H16   H     H_    0.038884 0.619528 0.904103 0.265710
H17   H     H_    0.142038 0.683521 0.003025 0.200989
H18   H     H_    0.093338 0.778633 0.954366 0.253765
C44   C     C_1   0.242728 0.451441 0.214877 0.284935
N6    N     N_1   0.150664 0.425456 0.259162 -0.297591
O12   O     O_3   0.333817 0.228673 0.111870 -0.578697
C45   C     C_3   0.412144 0.229732 0.178288 0.040461
H19   H     H_    0.421755 0.321294 0.249256 0.148096
H20   H     H_    0.502171 0.205822 0.128482 0.154761
C46   C     C_3   0.361045 0.136868 0.226758 -0.714892
H21   H     H_    0.355070 0.044358 0.156458 0.247276
H22   H     H_    0.419043 0.139229 0.282441 0.228905
H23   H     H_    0.271139 0.156689 0.276933 0.243067
C47   C     C_1   0.581667 0.403045 0.787224 0.391713
N7    N     N_1   0.623960 0.442462 0.721253 -0.273031
C48   C     C_1   0.628609 0.927983 0.092292 0.323311
N8    N     N_1   0.634119 0.023010 0.094063 -0.322658
O13   O     O_3   0.753201 0.521313 0.907628 -0.582231
C49   C     C_3   0.803719 0.482812 0.970413 0.064098
H24   H     H_    0.735455 0.449577 0.027217 0.151355
H25   H     H_    0.863119 0.559023 0.022229 0.172095
C50   C     C_3   0.876726 0.378583 0.888224 -0.751890
H26   H     H_    0.946065 0.407272 0.829318 0.259934
H27   H     H_    0.920134 0.349898 0.936482 0.213598
H28   H     H_    0.818264 0.300239 0.837662 0.240958
C51   C     C_1   0.793877 0.759753 0.930057 0.343492
N9    N     N_1   0.874148 0.789436 0.874560 -0.291594
C52   C     C_1   0.743074 0.157484 0.306801 0.343831
N10   N     N_1   0.809090 0.084519 0.265376 -0.298642

loop_
_geom_bond_atom_site_label_1
_geom_bond_atom_site_label_2
_ccdc_geom_bond_type
C16   C28   A    
C21   C26   A    
C8    C13   A    
C13   C47   S    
C42   H14   S    
C49   H24   S    
C43   H18   S    
C5    O13   S    
C47   N7    T    
C49   C50   S    
C29   O8    A    
C7    C11   A    
C39   H8    S    
C43   H17   S    
C5    C6    A    
C44   N6    T    
C46   H22   S    
C38   H5    S    
C28   N1    A    
C29   C33   S    
O9    C38   S    
Cu2   O6    S    
C39   H7    S    
C18   C19   A    
Cu1   O1    S    
C2    C13   A    
C41   H11   S    
C1    O2    A    
C31   C32   S    
C8    C9    A    
C40   H10   S    
C4    C51   S    
C1    C15   S    
C9    C10   A    
C19   O10   S    
C16   H1    S    
C7    C15   A    
C16   C24   A    
C23   O5    A    
C42   H15   S    
Cu2   N2    S    
O13   C49   S    
Cu1   O7    S    
C52   N10   T    
C35   N3    T    
C18   O11   S    
C27   C37   S    
C23   O6    A    
C14   C35   S    
C29   O7    A    
C24   C25   A    
C10   C44   S    
C46   H21   S    
C12   O4    A    
C38   C39   S    
C6    C8    A    
C25   C26   A    
O12   C45   S    
C3    C48   S    
Cu1   Cu2   S    
C28   C52   S    
C45   H19   S    
C27   N1    A    
C40   C41   S    
C17   C18   A    
Cu2   O4    S    
C43   H16   S    
C11   H3    S    
Cu1   O3    S    
C17   O9    S    
C21   N2    A    
C45   H20   S    
C20   C22   A    
C40   H9    S    
C50   H27   S    
C22   C27   A    
C9    C34   A    
C42   C43   S    
C22   C24   A    
C3    C4    A    
C3    C15   A    
C36   N4    T    
C37   N5    T    
C12   C30   S    
C26   H2    S    
O11   C42   S    
C46   H23   S    
C14   C34   A    
C49   H25   S    
C6    C7    A    
C50   H28   S    
C32   C33   T    
C19   C20   A    
Cu1   N1    S    
C25   C36   S    
C12   O3    A    
O10   C40   S    
C38   H4    S    
C30   C31   T    
C41   H13   S    
C48   N8    T    
C51   N9    T    
C2    C14   A    
C17   N2    A    
C10   C11   A    
C1    O1    A    
C4    C5    A    
C45   C46   S    
C20   C21   A    
C41   H12   S    
C50   H26   S    
C2    C23   S    
C39   H6    S    
Cu2   O2    S    
C34   O12   S    
Cu1   O5    S    
Cu2   O8    S    
