data_mof_unit_44837.cif
_audit_creation_date              2012-12-11T14:15:48-0500
_audit_creation_method            fapswitch 2.2
_symmetry_space_group_name_H-M    P1
_symmetry_Int_Tables_number       1
_space_group_crystal_system       triclinic
_cell_length_a                    11.169862
_cell_length_b                    12.741633
_cell_length_c                    23.529789
_cell_angle_alpha                 90.530106
_cell_angle_beta                  96.681757
_cell_angle_gamma                 68.518244
_cell_volume                      3093.00282847

loop_
_atom_site_label
_atom_site_type_symbol
_atom_type_description
_atom_site_fract_x
_atom_site_fract_y
_atom_site_fract_z
_atom_type_partial_charge
C1    C     C_R   0.148917 0.616856 0.428791 0.537009
C2    C     C_2   0.181028 0.232604 0.226607 -0.106290
C3    C     C_2   0.156389 0.164815 0.263082 -0.116487
C4    C     C_R   0.746154 0.606177 0.405469 0.523430
C5    C     C_1   0.133206 0.198652 0.320790 -0.033088
C6    C     C_1   0.210292 0.197096 0.169718 -0.031706
C7    C     C_1   0.116569 0.231992 0.368513 0.011346
C8    C     C_1   0.166270 0.748430 0.122961 0.000673
C9    C     C_2   0.145817 0.678817 0.226085 -0.117735
C10   C     C_2   0.219052 0.695910 0.271887 -0.104701
C11   C     C_1   0.207726 0.662005 0.328837 -0.012196
C12   C     C_R   0.586867 0.607699 0.321224 0.004120
C13   C     C_1   0.154726 0.716375 0.169471 -0.048882
C14   C     C_1   0.190204 0.637513 0.375816 0.006598
C15   C     C_1   0.628646 0.755805 0.865097 0.040789
C16   C     C_R   0.101256 0.282379 0.423390 0.546727
C17   C     C_2   0.701809 0.706483 0.761976 -0.093213
C18   C     C_2   0.613952 0.702968 0.718735 -0.111185
C19   C     C_1   0.652335 0.669169 0.662868 -0.007033
C20   C     C_1   0.664900 0.734756 0.818520 -0.031986
C21   C     C_1   0.690939 0.639429 0.617357 0.023676
C22   C     C_R   0.195330 0.184160 0.855642 0.025858
C23   C     C_R   0.720862 0.722954 0.320292 -0.133108
C24   C     C_R   0.106102 0.238297 0.642960 0.020011
C25   C     C_R   0.032178 0.149476 0.714406 -0.126875
C26   C     C_R   0.032253 0.176224 0.657030 -0.130144
C27   C     C_R   0.175135 0.277178 0.685801 -0.107955
C28   C     C_R   0.150012 0.616697 0.590915 0.539866
C29   C     C_R   0.174042 0.252714 0.742517 0.033732
C30   C     C_R   0.103716 0.187114 0.757316 0.038647
C31   C     C_R   0.112465 0.155306 0.814350 -0.150501
C32   C     C_R   0.256723 0.257940 0.841199 0.004884
C33   C     C_R   0.245446 0.291217 0.784312 -0.154406
C34   C     C_R   0.688338 0.742273 0.261855 0.036779
C35   C     C_R   0.121428 0.740281 0.853772 0.043258
C36   C     C_R   0.191499 0.637101 0.649818 -0.002278
C37   C     C_R   0.302583 0.558692 0.742432 -0.146880
C38   C     C_R   0.291703 0.553432 0.683184 -0.139940
C39   C     C_R   0.108287 0.729740 0.676065 -0.086685
C40   C     C_R   0.750065 0.602122 0.566082 0.541501
C41   C     C_R   0.106040 0.728572 0.735190 0.026298
C42   C     C_R   0.208270 0.644140 0.769451 -0.009637
C43   C     C_R   0.213442 0.647991 0.829400 -0.022183
C44   C     C_R   0.005354 0.807151 0.820162 -0.044833
C45   C     C_R   0.605862 0.692928 0.233156 0.009518
C46   C     C_R   0.000180 0.805977 0.760162 -0.043292
C47   C     C_R   0.265741 0.109943 0.069418 0.560079
C48   C     C_R   0.594372 0.776734 0.082425 0.543447
C49   C     C_R   0.189417 0.787740 0.069673 0.555730
C50   C     C_R   0.240643 0.115721 0.908219 0.577689
C51   C     C_R   0.573611 0.776458 0.918153 0.557322
C52   C     C_R   0.099656 0.279868 0.585369 0.539424
C53   C     C_R   0.162637 0.785063 0.907709 0.597040
C54   C     C_R   0.635055 0.764458 0.143439 0.022200
C55   C     C_R   0.676986 0.650629 0.349558 -0.024297
C56   C     C_R   0.578869 0.705557 0.174795 -0.115289
C57   C     C_R   0.552937 0.629093 0.262586 -0.112895
C58   C     C_2   0.340290 0.295859 0.883301 0.296020
C59   C     C_2   0.314450 0.557721 0.866960 0.242760
C60   C     C_2   0.888023 0.873401 0.847790 0.244395
C61   C     C_2   0.882379 0.883427 0.724410 0.172895
C62   C     C_2   0.528674 0.540100 0.351605 0.245560
C63   C     C_R   0.714398 0.816753 0.171533 -0.128344
C64   C     C_R   0.741709 0.805123 0.231098 -0.128286
C65   C     C_1   0.235579 0.162301 0.122968 0.015854
Cr1   Cr    Cr6+3 0.189770 0.415650 0.511620 1.039401
Cr2   Cr    Cr6+3 0.930400 0.667320 0.496770 1.044272
Cr3   Cr    Cr6+3 0.879870 0.417010 0.491650 1.039437
Cr4   Cr    Cr6+3 0.149500 0.973980 0.985330 1.057411
Cr5   Cr    Cr6+3 0.457000 0.976510 0.994660 1.081013
Cr6   Cr    Cr6+3 0.411170 0.724270 0.995270 1.080221
H1    H     H_    0.512019 0.669268 0.153768 0.139789
H2    H     H_    0.755192 0.865048 0.147670 0.132757
H3    H     H_    0.381873 0.491756 0.766086 0.084832
H4    H     H_    0.357836 0.481329 0.663710 0.128277
H5    H     H_    0.036825 0.797870 0.649524 0.181083
H6    H     H_    0.487505 0.593748 0.239462 0.156101
H7    H     H_    0.805469 0.843452 0.252919 0.116783
H8    H     H_    0.789465 0.756711 0.341855 0.140763
H9    H     H_    0.156328 0.082738 0.250170 0.133445
H10   H     H_    0.181917 0.314340 0.239719 0.150464
H11   H     H_    0.284221 0.740008 0.267097 0.124439
H12   H     H_    0.078369 0.636934 0.230896 0.140256
H13   H     H_    0.417724 0.317582 0.869253 0.086083
H14   H     H_    0.412062 0.517402 0.855982 0.080343
H15   H     H_    0.811790 0.945970 0.826040 0.088867
H16   H     H_    0.841093 0.971852 0.734307 0.087797
H17   H     H_    0.523777 0.547241 0.397322 0.120980
H18   H     H_    0.513334 0.723389 0.725368 0.126694
H19   H     H_    0.802768 0.684402 0.755575 0.176091
H20   H     H_    0.065551 0.098625 0.825490 0.121244
H21   H     H_    0.977438 0.099229 0.725179 0.098123
H22   H     H_    0.296823 0.343441 0.772300 0.088474
H23   H     H_    0.975421 0.148891 0.623918 0.123226
H24   H     H_    0.227982 0.329357 0.675091 0.132159
O1    O     O_R   0.196340 0.303200 0.448500 -0.498610
O2    O     O_R   0.555390 0.700940 0.062700 -0.515530
O3    O     O_R   0.295020 0.731920 0.049950 -0.488672
O4    O     O_R   0.199310 0.519670 0.454880 -0.485618
O5    O     O_R   0.094290 0.884230 0.921550 -0.489029
O6    O     O_R   0.168980 0.069410 0.926940 -0.516795
O7    O     O_R   0.358400 0.089990 0.927950 -0.479447
O8    O     O_R   0.544850 0.873850 0.939920 -0.481944
O9    O     O_R   0.536020 0.701900 0.936430 -0.512407
O10   O     O_R   0.277070 0.732810 0.932890 -0.469940
O11   O     O_3   0.339220 0.891590 0.991750 -0.282892
O12   O     O_R   0.811960 0.658090 0.547150 -0.475118
O13   O     O_R   0.045660 0.691380 0.441680 -0.516976
O14   O     O_R   0.811930 0.659460 0.430950 -0.506738
O15   O     O_R   0.757900 0.507620 0.421760 -0.514132
O16   O     O_R   0.988630 0.322990 0.439840 -0.489474
O17   O     O_R   0.196380 0.301720 0.573850 -0.520110
O18   O     O_R   0.199350 0.518300 0.571080 -0.505859
O19   O     O_R   0.045700 0.689900 0.567030 -0.507082
O20   O     O_2   0.321485 0.306414 0.933515 -0.430030
O21   O     O_2   0.288888 0.529000 0.911953 -0.443911
O22   O     O_2   0.873074 0.844467 0.894973 -0.478925
O23   O     O_R   0.757930 0.506140 0.547110 -0.517020
O24   O     O_2   0.828320 0.848299 0.684844 -0.508527
O25   O     O_2   0.484898 0.475880 0.325806 -0.501482
O26   O     O_R   0.988670 0.321620 0.556040 -0.497426
O27   O     O_3   0.000020 0.499990 0.500010 -0.253824
O28   O     O_R   0.113660 0.883270 0.047820 -0.496326
O29   O     O_R   0.186930 0.068530 0.043990 -0.499457
O30   O     O_R   0.377770 0.089040 0.054220 -0.483669
O31   O     O_R   0.562800 0.872960 0.056970 -0.496659

loop_
_geom_bond_atom_site_label_1
_geom_bond_atom_site_label_2
_ccdc_geom_bond_type
C24   C52   S    
C40   O23   A    
C37   H3    S    
C26   H23   S    
C8    C13   T    
Cr1   O18   S    
C61   O24   D    
C41   C42   A    
C27   H24   S    
C24   C27   A    
C32   C58   S    
C4    O14   A    
C1    O4    A    
C39   C41   A    
C48   C54   S    
C48   O2    A    
Cr6   O2    S    
C45   C57   A    
C37   C38   A    
C22   C32   A    
C19   C21   T    
Cr2   O19   S    
C24   C26   A    
C28   O18   A    
C30   C31   A    
C11   C14   T    
Cr2   O13   S    
C35   C53   S    
C54   C63   A    
C52   O17   A    
C51   O8    A    
C49   O28   A    
C29   C33   A    
C17   C20   S    
C27   C29   A    
C18   C19   S    
C37   C42   A    
C9    C13   S    
C61   H16   S    
Cr3   O23   S    
C49   O3    A    
Cr2   O14   S    
C6    C65   T    
C45   C56   A    
C59   O21   D    
C56   H1    S    
Cr6   O9    S    
C41   C46   A    
Cr1   O27   S    
C15   C51   S    
C35   C43   A    
C9    C10   D    
C62   O25   D    
C43   C59   S    
C22   C50   S    
Cr5   O31   S    
C2    C6    S    
C3    H9    S    
C44   C46   A    
C47   O30   A    
C38   H4    S    
C53   O5    A    
C15   C20   T    
Cr6   O3    S    
C54   C56   A    
C16   O1    A    
C22   C31   A    
C46   C61   S    
C57   H6    S    
Cr5   O11   S    
Cr3   O27   S    
C5    C7    T    
C60   H15   S    
Cr5   O8    S    
C63   H2    S    
Cr4   O29   S    
C25   C26   A    
C62   H17   S    
C10   H11   S    
Cr3   O16   S    
Cr1   O4    S    
C59   H14   S    
C29   C30   A    
C58   H13   S    
C12   C62   S    
C52   O26   A    
C23   C34   A    
C34   C64   A    
C17   C18   D    
C60   O22   D    
C34   C45   A    
Cr3   O15   S    
C39   H5    S    
C35   C44   A    
C28   O19   A    
C9    H12   S    
C40   O12   A    
C12   C57   A    
Cr5   O30   S    
C7    C16   S    
C50   O7    A    
C31   H20   S    
Cr6   O10   S    
C4    C55   S    
C58   O20   D    
C42   C43   A    
Cr2   O27   S    
Cr1   O1    S    
C25   C30   A    
C4    O15   A    
C25   H21   S    
C18   H18   S    
C64   H7    S    
C36   C39   A    
C17   H19   S    
C3    C5    S    
C33   H22   S    
Cr3   O26   S    
Cr4   O11   S    
Cr5   O7    S    
C23   C55   A    
Cr4   O6    S    
C23   H8    S    
C32   C33   A    
C36   C38   A    
C2    C3    D    
C51   O9    A    
Cr2   O12   S    
C47   O29   A    
C21   C40   S    
C44   C60   S    
C12   C55   A    
C10   C11   S    
C1    O13   A    
C48   O31   A    
C63   C64   A    
Cr4   O5    S    
C53   O10   A    
C28   C36   S    
C50   O6    A    
Cr6   O11   S    
Cr4   O28   S    
C2    H10   S    
C1    C14   S    
Cr1   O17   S    
C8    C49   S    
C47   C65   S    
C16   O16   A    
