data_mof_unit_65164.cif
_audit_creation_date              2012-10-26T18:05:07-0400
_audit_creation_method            fapswitch 2.2
_symmetry_space_group_name_H-M    P1
_symmetry_Int_Tables_number       1
_space_group_crystal_system       triclinic
_cell_length_a                    35.756063
_cell_length_b                    35.756062
_cell_length_c                    29.356223
_cell_angle_alpha                 89.955132
_cell_angle_beta                  89.955136
_cell_angle_gamma                 90.265819
_cell_volume                      37531.3868011

loop_
_atom_site_label
_atom_site_type_symbol
_atom_type_description
_atom_site_fract_x
_atom_site_fract_y
_atom_site_fract_z
_atom_type_partial_charge
C1    C     C_R   0.999910 0.427906 0.499957 0.544058
C2    C     C_1   0.233731 0.996331 0.500977 0.014540
C3    C     C_1   0.500034 0.999954 0.678408 -0.001437
C4    C     C_1   0.500046 0.999966 0.821592 -0.001438
C5    C     C_1   0.999997 0.500031 0.821592 -0.005020
C6    C     C_1   0.499973 0.999993 0.178408 -0.001770
C7    C     C_1   0.000031 0.499959 0.178408 -0.004867
C8    C     C_1   0.000042 0.499961 0.271234 0.027523
C9    C     C_1   0.499998 0.000013 0.271234 0.028954
C10   C     C_1   0.999978 0.500012 0.728766 0.027484
C11   C     C_1   0.500044 0.999953 0.728766 0.029053
C12   C     C_1   0.500047 0.999956 0.771234 0.029053
C13   C     C_1   0.000451 0.766676 0.500300 0.013352
C14   C     C_1   0.999987 0.500022 0.771234 0.027484
C15   C     C_1   0.499987 0.000002 0.228766 0.028954
C16   C     C_1   0.000039 0.499958 0.228766 0.027523
C17   C     C_R   0.001014 0.173891 0.541547 -0.018161
C18   C     C_R   0.173290 0.988354 0.540661 -0.019055
C19   C     C_R   0.984507 0.826712 0.537008 -0.018476
C20   C     C_R   0.826835 0.023037 0.530664 -0.018724
C21   C     C_R   0.016132 0.826885 0.463384 -0.018673
C22   C     C_R   0.174128 0.003884 0.459866 -0.020812
C23   C     C_R   0.992518 0.174002 0.459254 -0.018633
C24   C     C_1   0.766454 0.999835 0.500390 0.014574
C25   C     C_R   0.826583 0.976379 0.470166 -0.021790
C26   C     C_R   0.523622 0.673417 0.029833 -0.021790
C27   C     C_R   0.673115 0.483868 0.036616 -0.018673
C28   C     C_R   0.496115 0.325871 0.040134 -0.020812
C29   C     C_R   0.325997 0.507482 0.040746 -0.018633
C30   C     C_R   0.511646 0.326710 0.959339 -0.019055
C31   C     C_R   0.673288 0.515493 0.962992 -0.018475
C32   C     C_R   0.476962 0.673165 0.969337 -0.018725
C33   C     C_R   0.326109 0.498986 0.958453 -0.018161
C34   C     C_R   0.999958 0.134571 0.541770 0.205750
C35   C     C_1   0.500165 0.733545 0.999610 0.014574
C36   C     C_R   0.133964 0.987893 0.540121 0.208994
C37   C     C_R   0.983243 0.865990 0.536258 0.205485
C38   C     C_R   0.866187 0.021578 0.532288 0.204203
C39   C     C_R   0.017145 0.866186 0.463936 0.209509
C40   C     C_R   0.134874 0.006147 0.459860 0.202337
C41   C     C_R   0.994604 0.134705 0.458691 0.208773
C42   C     C_R   0.865948 0.977914 0.468295 0.191669
C43   C     C_R   0.522086 0.634052 0.031704 0.191668
C44   C     C_R   0.633814 0.482855 0.036064 0.209508
C45   C     C_R   0.493853 0.365126 0.040140 0.202337
C46   C     C_1   0.733324 0.499549 0.999700 0.013352
C47   C     C_R   0.365294 0.505396 0.041309 0.208773
C48   C     C_R   0.512107 0.366036 0.959879 0.208994
C49   C     C_R   0.634010 0.516757 0.963742 0.205485
C50   C     C_R   0.478421 0.633813 0.967712 0.204203
C51   C     C_R   0.365429 0.500041 0.958230 0.205750
C52   C     C_R   0.998084 0.114595 0.500113 -0.003554
C53   C     C_R   0.114434 0.997904 0.499993 -0.011187
C54   C     C_R   0.000148 0.885909 0.500064 -0.003354
C55   C     C_R   0.885833 0.999819 0.500175 0.004923
C56   C     C_R   0.500181 0.614167 0.999824 0.004923
C57   C     C_1   0.503669 0.266269 0.999023 0.014540
C58   C     C_R   0.614091 0.499852 0.999936 -0.003354
C59   C     C_R   0.502096 0.385566 0.000007 -0.011187
C60   C     C_R   0.385405 0.501915 0.999887 -0.003553
C61   C     C_R   0.996830 0.193564 0.500431 -0.082575
C62   C     C_R   0.193360 0.996019 0.500486 -0.085133
C63   C     C_R   0.000386 0.807090 0.500246 -0.085219
C64   C     C_R   0.806957 0.999730 0.500429 -0.081312
C65   C     C_R   0.500270 0.693043 0.999571 -0.081312
C66   C     C_R   0.692910 0.499614 0.999754 -0.085219
C67   C     C_R   0.503980 0.306640 0.999514 -0.085133
C68   C     C_1   0.266088 0.502871 0.999545 0.015203
C69   C     C_R   0.306436 0.503169 0.999569 -0.082575
C70   C     C_1   0.006317 0.193812 0.584025 0.264974
C71   C     C_1   0.192762 0.980648 0.582851 0.267671
C72   C     C_1   0.969087 0.806907 0.575783 0.265601
C73   C     C_1   0.807202 0.049116 0.559707 0.255076
C74   C     C_1   0.031632 0.807238 0.424681 0.267969
C75   C     C_1   0.194433 0.010002 0.417775 0.260977
C76   C     C_1   0.985810 0.194049 0.417161 0.259105
C77   C     C_1   0.806669 0.950196 0.441341 0.253735
C78   C     C_1   0.549805 0.693331 0.058658 0.253735
C79   C     C_1   0.997585 0.267504 0.500389 0.018646
C80   C     C_1   0.692762 0.468369 0.075319 0.267969
C81   C     C_1   0.489997 0.305567 0.082224 0.260978
C82   C     C_1   0.305951 0.514191 0.082839 0.259105
C83   C     C_1   0.519353 0.307238 0.917149 0.267672
C84   C     C_1   0.693093 0.530912 0.924217 0.265601
C85   C     C_1   0.450883 0.692797 0.940294 0.255076
C86   C     C_1   0.306188 0.493681 0.915975 0.264973
C87   C     C_3   0.966789 0.111581 0.601564 -0.072323
C88   C     C_3   0.108013 0.940266 0.580460 -0.075920
C89   C     C_3   0.928784 0.891425 0.560704 -0.081355
C90   C     C_1   0.267341 0.996960 0.501140 0.019213
C91   C     C_3   0.886752 0.026813 0.605308 -0.094423
C92   C     C_3   0.071370 0.892323 0.438972 -0.076460
C93   C     C_3   0.113624 0.054293 0.416993 -0.085783
C94   C     C_3   0.025725 0.114415 0.395997 -0.081539
C95   C     C_3   0.886191 0.972510 0.395149 -0.070578
C96   C     C_3   0.527492 0.613808 0.104850 -0.070578
C97   C     C_3   0.607677 0.428631 0.061028 -0.076461
C98   C     C_3   0.445706 0.386377 0.083006 -0.085781
C99   C     C_3   0.385585 0.474276 0.104003 -0.081539
C100  C     C_3   0.559735 0.391986 0.919541 -0.075921
C101  C     C_1   0.000471 0.733030 0.500316 0.018199
C102  C     C_3   0.608575 0.571215 0.939296 -0.081354
C103  C     C_3   0.473186 0.613248 0.894692 -0.094422
C104  C     C_3   0.388419 0.533209 0.898435 -0.072323
C105  C     C_1   0.042354 0.306673 0.565261 0.228730
C106  C     C_1   0.307793 0.952783 0.565164 0.228364
C107  C     C_1   0.950201 0.693043 0.558483 0.227590
C108  C     C_1   0.692777 0.033000 0.574495 0.228209
C109  C     C_1   0.050707 0.693488 0.442176 0.226930
C110  C     C_1   0.306091 0.043322 0.437350 0.229198
C111  C     C_1   0.954225 0.307427 0.435103 0.229447
C112  C     C_R   0.427880 0.999904 0.500177 0.543664
C113  C     C_1   0.732758 0.999955 0.500313 0.017738
C114  C     C_1   0.692719 0.967260 0.425808 0.228548
C115  C     C_1   0.532741 0.807281 0.074191 0.228548
C116  C     C_1   0.806512 0.449293 0.057823 0.226930
C117  C     C_1   0.456678 0.193909 0.062650 0.229197
C118  C     C_1   0.192573 0.545775 0.064897 0.229448
C119  C     C_1   0.547217 0.192207 0.934836 0.228364
C120  C     C_1   0.806956 0.549799 0.941517 0.227590
C121  C     C_1   0.466999 0.807223 0.925506 0.228209
C122  C     C_1   0.193326 0.457645 0.934740 0.228730
C123  C     C_1   0.042768 0.386499 0.566167 0.231634
C124  C     C_1   0.500045 0.767241 0.999687 0.017738
C125  C     C_1   0.387537 0.955451 0.566274 0.232073
C126  C     C_1   0.951621 0.613459 0.560864 0.234675
C127  C     C_1   0.612901 0.033320 0.574175 0.226626
C128  C     C_1   0.048927 0.613891 0.439537 0.234712
C129  C     C_1   0.385883 0.043891 0.435512 0.232166
C130  C     C_1   0.956550 0.387189 0.433398 0.231400
C131  C     C_1   0.612848 0.967162 0.425737 0.226816
C132  C     C_1   0.532839 0.887152 0.074262 0.226817
C133  C     C_1   0.886109 0.451073 0.060463 0.234712
C134  C     C_1   0.456108 0.114117 0.064488 0.232166
C135  C     C_1   0.766971 0.499529 0.999684 0.018199
C136  C     C_1   0.112811 0.543450 0.066601 0.231401
C137  C     C_1   0.544549 0.112463 0.933726 0.232074
C138  C     C_1   0.886541 0.548379 0.939136 0.234675
C139  C     C_1   0.466678 0.887099 0.925825 0.226626
C140  C     C_1   0.113501 0.457231 0.933834 0.231634
C141  C     C_1   0.503039 0.232659 0.998860 0.019213
C142  C     C_1   0.232496 0.502415 0.999611 0.018646
C143  C     C_R   0.020398 0.327258 0.532158 -0.024872
C144  C     C_R   0.327743 0.976088 0.532625 -0.024262
C145  C     C_R   0.975742 0.672839 0.529075 -0.025153
C146  C     C_R   0.672552 0.016591 0.536572 -0.023902
C147  C     C_R   0.025073 0.673055 0.471511 -0.025148
C148  C     C_R   0.000077 0.572181 0.500031 0.541942
C149  C     C_R   0.326906 0.020752 0.469611 -0.023908
C150  C     C_R   0.976880 0.327622 0.468014 -0.024956
C151  C     C_R   0.672520 0.983717 0.463641 -0.024013
C152  C     C_R   0.516283 0.827479 0.036359 -0.024013
C153  C     C_R   0.826945 0.474927 0.028489 -0.025148
C154  C     C_R   0.479248 0.173094 0.030389 -0.023908
C155  C     C_R   0.172378 0.523120 0.031986 -0.024956
C156  C     C_R   0.523912 0.172257 0.967375 -0.024262
C157  C     C_R   0.827161 0.524258 0.970925 -0.025153
C158  C     C_R   0.483409 0.827448 0.963429 -0.023903
C159  C     C_R   0.572077 0.000074 0.499989 0.546848
C160  C     C_R   0.172742 0.479601 0.967843 -0.024872
C161  C     C_R   0.021042 0.366629 0.532077 -0.047271
C162  C     C_R   0.367115 0.976946 0.532581 -0.046594
C163  C     C_R   0.975826 0.633444 0.529348 -0.047063
C164  C     C_R   0.633136 0.016868 0.536344 -0.046433
C165  C     C_R   0.024799 0.633657 0.471093 -0.047109
C166  C     C_R   0.366290 0.021508 0.469285 -0.047150
C167  C     C_R   0.977581 0.366982 0.467714 -0.046944
C168  C     C_R   0.633106 0.983561 0.463670 -0.046347
C169  C     C_R   0.516439 0.866894 0.036330 -0.046347
C170  C     C_R   0.499926 0.927923 0.000011 0.546848
C171  C     C_R   0.866343 0.475201 0.028906 -0.047109
C172  C     C_R   0.478491 0.133710 0.030715 -0.047150
C173  C     C_R   0.133018 0.522419 0.032286 -0.046944
C174  C     C_R   0.523054 0.132884 0.967419 -0.046594
C175  C     C_R   0.866556 0.524174 0.970652 -0.047063
C176  C     C_R   0.483131 0.866863 0.963656 -0.046433
C177  C     C_R   0.133371 0.478957 0.967923 -0.047271
C178  C     C_R   0.999601 0.386606 0.499847 -0.030485
C179  C     C_R   0.386533 0.999547 0.500748 -0.031043
C180  C     C_R   0.000246 0.613638 0.500162 -0.033104
C181  C     C_R   0.927819 0.499923 0.999969 0.541943
C182  C     C_R   0.613362 0.000218 0.499975 -0.027499
C183  C     C_R   0.499782 0.886638 0.000025 -0.027499
C184  C     C_R   0.886362 0.499754 0.999838 -0.033103
C185  C     C_R   0.500453 0.113466 0.999252 -0.031043
C186  C     C_R   0.113394 0.500399 0.000153 -0.030486
C187  C     C_R   0.998269 0.307864 0.500214 -0.014163
C188  C     C_R   0.307731 0.997940 0.501133 -0.013591
C189  C     C_R   0.000443 0.692581 0.500314 -0.013688
C190  C     C_R   0.692238 0.000095 0.500174 -0.014439
C191  C     C_R   0.499905 0.807762 0.999826 -0.014439
C192  C     C_R   0.500096 0.072120 0.999822 0.543664
C193  C     C_R   0.807419 0.499557 0.999686 -0.013688
C194  C     C_R   0.502060 0.192269 0.998867 -0.013590
C195  C     C_R   0.192136 0.501731 0.999786 -0.014163
C196  C     C_R   0.072927 0.999413 0.499980 0.569389
C197  C     C_R   0.000052 0.927201 0.500016 0.578272
C198  C     C_R   0.927170 0.999908 0.500036 0.606113
C199  C     C_R   0.999367 0.072983 0.500001 0.589722
C200  C     C_R   0.572799 0.499948 0.999984 0.578272
C201  C     C_R   0.500587 0.427073 0.000019 0.569389
C202  C     C_R   0.427017 0.500633 0.999999 0.589723
C203  C     C_R   0.072094 0.500090 0.000043 0.544058
C204  C     C_R   0.500092 0.572830 0.999964 0.606114
C205  C     C_R   0.000012 0.499995 0.415296 0.544466
C206  C     C_R   0.500003 0.000012 0.415296 0.547659
C207  C     C_R   0.999988 0.499996 0.584704 0.544211
C208  C     C_R   0.500003 0.999987 0.584704 0.547743
C209  C     C_R   0.500013 0.999997 0.915296 0.547743
C210  C     C_R   0.000004 0.500012 0.915296 0.544211
C211  C     C_R   0.499988 0.999997 0.084704 0.547659
C212  C     C_R   0.000005 0.499988 0.084704 0.544466
C213  C     C_1   0.000035 0.499979 0.364058 -0.003040
C214  C     C_1   0.997129 0.233912 0.500455 0.015203
C215  C     C_1   0.500008 0.000031 0.364058 0.001880
C216  C     C_1   0.999968 0.499998 0.635942 -0.003378
C217  C     C_1   0.500020 0.999962 0.635942 0.002559
C218  C     C_1   0.500038 0.999979 0.864058 0.002559
C219  C     C_1   0.000002 0.500031 0.864058 -0.003378
C220  C     C_1   0.499969 0.999992 0.135942 0.001879
C221  C     C_1   0.000021 0.499965 0.135942 -0.003040
C222  C     C_1   0.000041 0.499969 0.321592 -0.004867
C223  C     C_1   0.500007 0.000027 0.321592 -0.001770
C224  C     C_1   0.999969 0.500002 0.678408 -0.005020
Cu1   Cu    Cu3+1 0.962730 0.500000 0.500000 1.033229
Cu2   Cu    Cu3+1 1.000000 0.000000 0.542470 1.031946
Cu3   Cu    Cu3+1 0.500000 0.500000 0.957530 1.031945
Cu4   Cu    Cu3+1 0.500000 0.500000 0.042470 1.036270
Cu5   Cu    Cu3+1 0.500000 0.037270 0.500000 1.030783
Cu6   Cu    Cu3+1 0.037270 0.500000 0.500000 1.031990
Cu7   Cu    Cu3+1 0.500000 0.962730 0.500000 1.028556
Cu8   Cu    Cu3+1 0.462730 0.000000 0.000000 1.030783
Cu9   Cu    Cu3+1 0.000000 0.537270 0.000000 1.033229
Cu10  Cu    Cu3+1 0.537270 0.000000 0.000000 1.028556
Cu11  Cu    Cu3+1 0.000000 0.462730 0.000000 1.031990
Cu12  Cu    Cu3+1 1.000000 0.000000 0.457530 1.036270
H1    H     H_    0.947521 0.096691 0.577862 0.156359
H2    H     H_    0.897372 0.997623 0.603299 0.123763
H3    H     H_    0.858770 0.026961 0.621773 0.134453
H4    H     H_    0.906103 0.042799 0.627577 0.134258
H5    H     H_    0.087072 0.865820 0.443883 0.117769
H6    H     H_    0.074017 0.910287 0.469741 0.089703
H7    H     H_    0.084560 0.907600 0.410203 0.173973
H8    H     H_    0.141631 0.067666 0.413551 0.129757
H9    H     H_    0.098675 0.066087 0.446966 0.103227
H10   H     H_    0.097334 0.061405 0.386069 0.139201
H11   H     H_    0.047844 0.103555 0.419015 0.090835
H12   H     H_    0.954763 0.139097 0.611170 0.125532
H13   H     H_    0.034052 0.142331 0.382684 0.127076
H14   H     H_    0.023671 0.095077 0.366571 0.151931
H15   H     H_    0.897029 0.001726 0.396922 0.131459
H16   H     H_    0.858134 0.972247 0.378928 0.131831
H17   H     H_    0.905324 0.956494 0.372789 0.158800
H18   H     H_    0.498275 0.602971 0.103078 0.131460
H19   H     H_    0.527755 0.641866 0.121071 0.131831
H20   H     H_    0.543507 0.594676 0.127210 0.158800
H21   H     H_    0.634180 0.412929 0.056118 0.117769
H22   H     H_    0.589712 0.425983 0.030259 0.089703
H23   H     H_    0.968846 0.094514 0.633022 0.148236
H24   H     H_    0.592400 0.415440 0.089797 0.173973
H25   H     H_    0.432333 0.358370 0.086447 0.129756
H26   H     H_    0.433912 0.401325 0.053033 0.103228
H27   H     H_    0.438593 0.402666 0.113931 0.139200
H28   H     H_    0.396445 0.452157 0.080987 0.090836
H29   H     H_    0.357669 0.465949 0.117317 0.127076
H30   H     H_    0.404923 0.476330 0.133429 0.151932
H31   H     H_    0.575725 0.365362 0.918913 0.118631
H32   H     H_    0.568776 0.409450 0.948939 0.096373
H33   H     H_    0.566733 0.407641 0.888010 0.165922
H34   H     H_    0.134638 0.924276 0.581088 0.118630
H35   H     H_    0.635316 0.586833 0.943777 0.130547
H36   H     H_    0.590989 0.573828 0.970432 0.128889
H37   H     H_    0.593127 0.584527 0.910871 0.144534
H38   H     H_    0.502375 0.602627 0.896701 0.123763
H39   H     H_    0.473037 0.641229 0.878228 0.134453
H40   H     H_    0.457199 0.593897 0.872424 0.134257
H41   H     H_    0.403309 0.552478 0.922136 0.156358
H42   H     H_    0.360903 0.545235 0.888829 0.125532
H43   H     H_    0.405486 0.531151 0.866977 0.148235
H44   H     H_    0.090550 0.931224 0.551062 0.096373
H45   H     H_    0.092359 0.933268 0.611991 0.165921
H46   H     H_    0.913167 0.864684 0.556223 0.130547
H47   H     H_    0.926172 0.909011 0.529567 0.128887
H48   H     H_    0.915473 0.906873 0.589128 0.144534
N1    N     N_1   0.010540 0.209721 0.617962 -0.239276
N2    N     N_1   0.708354 0.455996 0.106351 -0.231647
N3    N     N_1   0.485128 0.289370 0.115870 -0.241972
N4    N     N_1   0.289943 0.519540 0.116469 -0.243870
N5    N     N_1   0.525507 0.291696 0.883421 -0.235819
N6    N     N_1   0.708808 0.543220 0.893123 -0.235221
N7    N     N_1   0.429935 0.708365 0.917091 -0.240913
N8    N     N_1   0.290279 0.489457 0.882038 -0.239276
N9    N     N_1   0.059861 0.290258 0.591637 -0.232789
N10   N     N_1   0.291893 0.934194 0.591090 -0.238006
N11   N     N_1   0.929757 0.709052 0.581917 -0.232601
N12   N     N_1   0.208304 0.974494 0.616579 -0.235819
N13   N     N_1   0.708787 0.046061 0.604851 -0.233801
N14   N     N_1   0.071224 0.709683 0.418801 -0.233579
N15   N     N_1   0.289508 0.061337 0.411647 -0.239635
N16   N     N_1   0.936152 0.291334 0.408880 -0.231195
N17   N     N_1   0.708710 0.954164 0.395523 -0.232289
N18   N     N_1   0.545838 0.791290 0.104476 -0.232289
N19   N     N_1   0.790317 0.428776 0.081199 -0.233579
N20   N     N_1   0.438663 0.210492 0.088353 -0.239634
N21   N     N_1   0.208666 0.563848 0.091119 -0.231195
N22   N     N_1   0.565807 0.208107 0.908910 -0.238006
N23   N     N_1   0.956779 0.791192 0.606877 -0.235221
N24   N     N_1   0.790948 0.570243 0.918082 -0.232601
N25   N     N_1   0.453938 0.791213 0.895150 -0.233801
N26   N     N_1   0.209741 0.440138 0.908364 -0.232789
N27   N     N_1   0.060063 0.402351 0.593368 -0.253151
N28   N     N_1   0.403823 0.938342 0.593161 -0.254852
N29   N     N_1   0.932346 0.597539 0.586028 -0.251534
N30   N     N_1   0.596739 0.046412 0.604339 -0.260450
N31   N     N_1   0.068142 0.598144 0.414340 -0.251335
N32   N     N_1   0.401511 0.061712 0.408559 -0.253714
N33   N     N_1   0.939812 0.403306 0.406018 -0.254178
N34   N     N_1   0.791635 0.070064 0.582910 -0.240914
N35   N     N_1   0.596669 0.954114 0.395494 -0.260267
N36   N     N_1   0.545888 0.903331 0.104505 -0.260267
N37   N     N_1   0.901856 0.431858 0.085660 -0.251335
N38   N     N_1   0.438288 0.098488 0.091441 -0.253713
N39   N     N_1   0.096694 0.560188 0.093981 -0.254178
N40   N     N_1   0.561658 0.096177 0.906839 -0.254851
N41   N     N_1   0.902461 0.567654 0.913972 -0.251534
N42   N     N_1   0.453586 0.903261 0.895662 -0.260450
N43   N     N_1   0.097649 0.439936 0.906632 -0.253151
N44   N     N_1   0.044004 0.791646 0.393649 -0.231646
N45   N     N_1   0.210630 0.014871 0.384129 -0.241973
N46   N     N_1   0.980461 0.210057 0.383531 -0.243870
N47   N     N_1   0.790871 0.929163 0.418318 -0.238446
N48   N     N_1   0.570838 0.709128 0.081681 -0.238446
O1    O     O_R   0.968530 0.445640 0.500010 -0.492602
O2    O     O_R   0.945640 0.531470 0.000010 -0.491820
O3    O     O_R   0.531470 0.054360 0.000010 -0.493226
O4    O     O_R   0.054360 0.468530 0.000010 -0.492542
O5    O     O_R   0.468530 0.054360 0.999990 -0.492175
O6    O     O_R   0.945640 0.468530 0.999990 -0.492328
O7    O     O_R   0.531470 0.945640 0.999990 -0.493199
O8    O     O_R   0.054360 0.531470 0.999990 -0.492601
O9    O     O_R   0.968530 0.500000 0.438040 -0.481705
O10   O     O_R   0.500000 0.031470 0.438040 -0.482718
O11   O     O_R   0.031470 0.500000 0.438040 -0.482782
O12   O     O_R   0.445640 0.031470 0.500010 -0.492175
O13   O     O_R   0.500000 0.968530 0.438040 -0.482846
O14   O     O_R   0.968530 0.500000 0.561960 -0.482478
O15   O     O_R   0.500000 0.968530 0.561960 -0.482740
O16   O     O_R   0.031470 0.500000 0.561960 -0.482109
O17   O     O_R   0.500000 0.031470 0.561960 -0.482750
O18   O     O_R   0.468530 0.000000 0.938040 -0.482750
O19   O     O_R   0.000000 0.531470 0.938040 -0.482478
O20   O     O_R   0.531470 0.000000 0.938040 -0.482740
O21   O     O_R   0.000000 0.468530 0.938040 -0.482109
O22   O     O_R   0.468530 0.000000 0.061960 -0.482718
O23   O     O_R   0.031470 0.554360 0.500010 -0.492327
O24   O     O_R   1.000000 0.468530 0.061960 -0.482782
O25   O     O_R   0.531470 0.000000 0.061960 -0.482846
O26   O     O_R   1.000000 0.531470 0.061960 -0.481705
O27   O     O_R   0.054260 0.999990 0.464160 -0.479028
O28   O     O_R   0.999990 0.945740 0.464160 -0.463945
O29   O     O_R   0.945740 0.000010 0.464160 -0.492357
O30   O     O_R   0.000010 0.054260 0.464160 -0.481784
O31   O     O_R   0.054260 0.000010 0.535840 -0.465686
O32   O     O_R   0.999990 0.054260 0.535840 -0.469428
O33   O     O_R   0.945740 0.999990 0.535840 -0.507048
O34   O     O_R   0.554360 0.968530 0.500010 -0.493199
O35   O     O_R   0.000010 0.945740 0.535840 -0.486628
O36   O     O_R   0.554260 0.499990 0.964160 -0.486628
O37   O     O_R   0.499990 0.445740 0.964160 -0.465686
O38   O     O_R   0.445740 0.500010 0.964160 -0.469429
O39   O     O_R   0.500010 0.554260 0.964160 -0.507049
O40   O     O_R   0.554260 0.500010 0.035840 -0.463945
O41   O     O_R   0.499990 0.554260 0.035840 -0.492357
O42   O     O_R   0.445740 0.499990 0.035840 -0.481784
O43   O     O_R   0.500010 0.445740 0.035840 -0.479028
O44   O     O_3   0.002952 0.115697 0.582800 -0.534768
O45   O     O_R   0.968530 0.554360 0.499990 -0.491819
O46   O     O_3   0.114697 0.979192 0.579691 -0.528385
O47   O     O_3   0.966564 0.884936 0.571980 -0.542713
O48   O     O_3   0.885791 0.044309 0.562187 -0.565498
O49   O     O_3   0.033562 0.885314 0.428021 -0.532017
O50   O     O_3   0.116439 0.015029 0.419880 -0.536887
O51   O     O_3   0.990572 0.115812 0.417812 -0.533937
O52   O     O_3   0.885320 0.955159 0.438367 -0.557677
O53   O     O_3   0.544842 0.614680 0.061632 -0.557678
O54   O     O_3   0.614686 0.466438 0.071979 -0.532016
O55   O     O_3   0.484970 0.383561 0.080119 -0.536886
O56   O     O_R   0.445640 0.968530 0.499990 -0.493226
O57   O     O_3   0.384188 0.509429 0.082188 -0.533936
O58   O     O_3   0.520808 0.385303 0.920309 -0.528384
O59   O     O_3   0.615064 0.533436 0.928020 -0.542714
O60   O     O_3   0.455690 0.614209 0.937813 -0.565497
O61   O     O_3   0.384303 0.497046 0.917200 -0.534768
O62   O     O_R   0.031470 0.445640 0.499990 -0.492542
O63   O     O_R   0.554360 0.031470 0.499990 -0.492672
O64   O     O_R   0.468530 0.945640 0.000010 -0.492673

loop_
_geom_bond_atom_site_label_1
_geom_bond_atom_site_label_2
_ccdc_geom_bond_type
C119  N22   T    
C181  O2    A    
C137  N40   T    
C211  C220  S    
C148  O23   A    
C157  C193  A    
Cu3   O36   S    
C51   O61   S    
C35   C124  T    
C103  H40   S    
C45   O55   S    
C101  C189  S    
Cu5   O12   S    
C138  N41   T    
C94   H14   S    
C134  N38   T    
C199  O30   A    
C2    C90   T    
C132  N36   T    
C36   C53   A    
C19   C37   A    
C17   C61   A    
C208  O17   A    
C102  O59   S    
C130  C167  S    
C38   C55   A    
C19   C63   A    
C201  O43   A    
C4    C12   S    
C94   H11   S    
C95   H17   S    
C10   C224  S    
C75   N45   T    
C139  N42   T    
C8    C16   T    
Cu7   O34   S    
C29   C69   A    
C100  H33   S    
C173  C186  A    
C102  H35   S    
C202  O38   A    
Cu2   O32   S    
C211  O22   A    
C87   H23   S    
Cu1   O45   S    
C38   O48   S    
C177  C186  A    
C98   O55   S    
C216  C224  T    
C42   C55   A    
C213  C222  T    
Cu3   Cu4   S    
C13   C63   S    
Cu8   Cu10  S    
C205  O9    A    
Cu2   O33   S    
C93   H9    S    
C60   C202  S    
C97   O54   S    
C51   C60   A    
C17   C34   A    
C212  O24   A    
C104  O61   S    
C185  C192  S    
C129  N32   T    
C18   C71   S    
C45   C59   A    
C103  H38   S    
C93   H8    S    
C95   H16   S    
C145  C163  A    
C80   N2    T    
Cu1   Cu6   S    
C23   C41   A    
Cu9   O26   S    
C9    C15   T    
C96   H18   S    
C29   C82   S    
C27   C66   A    
C47   O57   S    
C5    C219  T    
C207  C216  S    
C20   C73   S    
Cu5   O63   S    
C192  O3    A    
Cu12  O30   S    
C3    C11   S    
C210  C219  S    
C167  C178  A    
C84   N6    T    
C149  C188  A    
C111  N16   T    
Cu6   O62   S    
C53   C196  S    
Cu1   O14   S    
C143  C161  A    
C124  C191  S    
C170  O7    A    
C32   C65   A    
C36   O46   S    
C127  C164  S    
C125  C162  S    
C23   C76   S    
C207  O16   A    
Cu9   O2    S    
C108  N13   T    
C112  O56   A    
C113  C190  S    
C89   H46   S    
C26   C78   S    
Cu9   O8    S    
C129  C166  S    
C29   C47   A    
C30   C48   A    
C159  O34   A    
C112  O12   A    
C121  N25   T    
C123  C161  S    
C39   C54   A    
C22   C62   A    
C32   C85   S    
Cu2   Cu12  S    
C205  O11   A    
Cu12  O28   S    
C59   C201  S    
Cu4   O41   S    
C147  C165  A    
C27   C44   A    
Cu8   O64   S    
C92   H5    S    
C68   C142  T    
C212  O26   A    
C30   C67   A    
C196  O27   A    
Cu3   O38   S    
C102  H37   S    
C134  C172  S    
C139  C176  S    
C109  C147  S    
Cu11  O21   S    
Cu8   O18   S    
C97   H22   S    
C79   C214  T    
C120  N24   T    
C76   N46   T    
C203  O8    A    
C164  C182  A    
C96   H20   S    
C27   C80   S    
C10   C14   T    
C18   C62   A    
C100  H32   S    
C146  C164  A    
C50   C56   A    
C31   C84   S    
Cu7   O15   S    
C25   C64   A    
C156  C194  A    
C1    O1    A    
C1    C178  S    
C98   H26   S    
C130  N33   T    
C23   C61   A    
C172  C185  A    
C70   N1    T    
C6    C220  T    
C4    C218  T    
C121  C158  S    
C128  C165  S    
C202  O42   A    
C44   O54   S    
C126  C163  S    
C8    C222  S    
C99   O57   S    
C48   C59   A    
C158  C176  A    
C209  O20   A    
C89   H48   S    
C9    C223  S    
C104  H41   S    
C33   C69   A    
C128  N31   T    
C42   O52   S    
C103  H39   S    
C208  C217  S    
Cu4   O43   S    
C136  C173  S    
C147  C189  A    
Cu10  O7    S    
C117  N20   T    
C186  C203  S    
C115  N18   T    
C34   O44   S    
C153  C193  A    
C109  N14   T    
C24   C64   S    
C138  C175  S    
C123  N27   T    
C210  O19   A    
C89   O47   S    
C97   H24   S    
C206  C215  S    
C99   H30   S    
C119  C156  S    
C87   H1    S    
C131  N35   T    
C31   C66   A    
Cu7   O56   S    
C200  O40   A    
C40   O50   S    
C208  O15   A    
C166  C179  A    
C156  C174  A    
Cu11  O4    S    
C54   C197  S    
C102  H36   S    
Cu7   O13   S    
C105  N9    T    
C46   C66   S    
C91   O48   S    
C174  C185  A    
C92   H7    S    
C107  N11   T    
C192  O5    A    
C35   C65   S    
C118  N21   T    
C136  N39   T    
C30   C83   S    
C46   C135  T    
C151  C190  A    
C73   N34   T    
C44   C58   A    
C68   C69   S    
C91   H4    S    
C142  C195  S    
C81   N3    T    
C82   N4    T    
C108  C146  S    
Cu4   O40   S    
C205  C213  S    
C87   O44   S    
C148  C180  S    
Cu1   O9    S    
Cu11  O24   S    
C114  C151  S    
C31   C49   A    
C104  H43   S    
Cu6   O23   S    
C74   N44   T    
Cu3   O39   S    
C159  O63   A    
Cu6   O11   S    
C204  O39   A    
C201  O37   A    
C95   H15   S    
Cu10  O3    S    
Cu9   O19   S    
C114  N17   T    
C39   O49   S    
C196  O31   A    
C171  C184  A    
C92   O49   S    
C206  O10   A    
C140  C177  S    
C94   O51   S    
Cu8   O22   S    
C88   H44   S    
C5    C14   S    
C160  C195  A    
C88   H34   S    
C7    C16   S    
C209  O18   A    
C99   H28   S    
C168  C182  A    
C120  C157  S    
C132  C169  S    
C111  C150  S    
C133  N37   T    
C181  C184  S    
C93   O50   S    
C145  C189  A    
C95   O52   S    
Cu2   O31   S    
C25   C42   A    
C198  O33   A    
C33   C51   A    
C34   C52   A    
Cu10  O25   S    
C57   C141  T    
C133  C171  S    
C137  C174  S    
Cu5   Cu7   S    
C158  C191  A    
C152  C169  A    
C148  O45   A    
C7    C221  T    
C150  C167  A    
C91   H2    S    
C100  O58   S    
C71   N12   T    
C159  C182  S    
C210  O21   A    
C160  C177  A    
C21   C63   A    
Cu4   O42   S    
C93   H10   S    
C43   O53   S    
C88   O46   S    
C197  O28   A    
C117  C154  S    
Cu1   O1    S    
C161  C178  A    
C18   C36   A    
C126  N29   T    
C175  C184  A    
Cu3   O37   S    
C176  C183  A    
C103  O60   S    
C170  C183  S    
C204  O41   A    
C110  C149  S    
C88   H45   S    
C97   H21   S    
C87   H12   S    
C197  O35   A    
C58   C200  S    
C79   C187  S    
C25   C77   S    
C209  C218  S    
C77   N47   T    
C152  C191  A    
C107  C145  S    
C55   C198  S    
C170  O64   A    
C151  C168  A    
C122  N26   T    
Cu12  O29   S    
C169  C183  A    
C72   N23   T    
C6    C15   S    
C92   H6    S    
C98   H27   S    
Cu10  O20   S    
C115  C152  S    
C200  O36   A    
C41   C52   A    
C155  C173  A    
C47   C60   A    
C24   C113  T    
C110  N15   T    
C19   C72   S    
C22   C75   S    
C57   C67   S    
C106  N10   T    
C26   C43   A    
C212  C221  S    
C85   N7    T    
C28   C45   A    
C89   H47   S    
C86   N8    T    
Cu8   O5    S    
C28   C67   A    
C104  H42   S    
C150  C187  A    
Cu11  O6    S    
C207  O14   A    
C116  N19   T    
C21   C74   S    
C49   C58   A    
C96   O53   S    
Cu12  O27   S    
C20   C64   A    
C33   C86   S    
C135  C193  S    
C20   C38   A    
C203  O4    A    
C41   O51   S    
C21   C39   A    
Cu5   O10   S    
C3    C217  T    
C22   C40   A    
C153  C171  A    
C116  C153  S    
C154  C172  A    
C118  C155  S    
C52   C199  S    
C199  O32   A    
C125  N28   T    
Cu9   Cu11  S    
C32   C50   A    
C162  C179  A    
C157  C175  A    
C112  C179  S    
C37   C54   A    
C48   O58   S    
C131  C168  S    
C206  O13   A    
C61   C214  S    
C13   C101  T    
C94   H13   S    
C144  C188  A    
Cu5   O17   S    
C99   H29   S    
C144  C162  A    
C28   C81   S    
C37   O47   S    
C26   C65   A    
C143  C187  A    
C149  C166  A    
C96   H19   S    
C181  O6    A    
C215  C223  T    
C105  C143  S    
C11   C12   T    
C106  C144  S    
C56   C204  S    
C100  H31   S    
C211  O25   A    
Cu6   O16   S    
C49   O59   S    
C98   H25   S    
C90   C188  S    
C83   N5    T    
C1    O62   A    
C140  N43   T    
C78   N48   T    
C141  C194  S    
C154  C194  A    
C43   C56   A    
C17   C70   S    
C127  N30   T    
C40   C53   A    
C91   H3    S    
C163  C180  A    
C165  C180  A    
C122  C160  S    
C146  C190  A    
C50   O60   S    
Cu2   O35   S    
C155  C195  A    
C2    C62   S    
C198  O29   A    
