data_mof_unit_37736.cif
_audit_creation_date              2012-12-10T17:52:21-0500
_audit_creation_method            fapswitch 2.2
_symmetry_space_group_name_H-M    P1
_symmetry_Int_Tables_number       1
_space_group_crystal_system       triclinic
_cell_length_a                    19.20489
_cell_length_b                    10.72617
_cell_length_c                    9.871803
_cell_angle_alpha                 89.701481
_cell_angle_beta                  90.161219
_cell_angle_gamma                 91.690668
_cell_volume                      2032.62118917

loop_
_atom_site_label
_atom_site_type_symbol
_atom_type_description
_atom_site_fract_x
_atom_site_fract_y
_atom_site_fract_z
_atom_type_partial_charge
C1    C     C_R   0.505045 0.260089 0.501432 0.864606
C2    C     C_R   0.290233 0.511005 0.499230 -0.025838
C3    C     C_R   0.930876 0.552230 0.501004 0.303239
C4    C     C_R   0.071307 0.554057 0.496033 0.278527
C5    C     C_R   0.818852 0.513233 0.626153 0.118035
C6    C     C_R   0.746589 0.498350 0.623001 -0.253750
C7    C     C_R   0.710127 0.511257 0.501008 -0.047123
C8    C     C_R   0.746117 0.538775 0.381037 -0.198277
C9    C     C_R   0.817942 0.553943 0.383086 -0.210596
C10   C     C_R   0.854940 0.541654 0.504931 0.089528
C11   C     C_R   0.523361 0.111386 0.759141 -0.160390
C12   C     C_R   0.365548 0.500888 0.499849 0.833299
C13   C     C_R   0.503968 0.050495 0.878968 -0.138726
C14   C     C_R   0.466739 0.937665 0.873449 -0.129253
C15   C     C_R   0.455139 0.880249 0.748787 -0.115707
C16   C     C_R   0.480836 0.935971 0.627471 0.099869
C17   C     C_R   0.505033 0.059931 0.631146 0.092639
C18   C     C_R   0.508935 0.126373 0.506193 -0.120742
C19   C     C_R   0.504575 0.063682 0.382613 -0.220134
C20   C     C_R   0.495469 0.936788 0.381151 -0.216399
C21   C     C_R   0.485433 0.871959 0.502781 -0.134692
C22   C     C_R   0.409272 0.335255 0.140870 -0.147899
C23   C     C_R   0.493239 0.739155 0.500314 0.892414
C24   C     C_R   0.364834 0.253674 0.070657 -0.216356
C25   C     C_R   0.364748 0.253848 0.930522 -0.178526
C26   C     C_R   0.409142 0.335532 0.859948 -0.122077
C27   C     C_R   0.455341 0.418743 0.927858 0.040626
C28   C     C_R   0.455444 0.418604 0.072577 0.150088
C29   C     C_R   0.542379 0.578508 0.071812 -0.265567
C30   C     C_R   0.543678 0.577583 0.926845 0.567165
C31   C     C_R   0.634472 0.501497 0.500173 0.881333
C32   C     C_R   0.254918 0.531506 0.620755 -0.205855
C33   C     C_R   0.183633 0.548085 0.619362 -0.163319
C34   C     C_R   0.146799 0.543496 0.496536 0.092028
C35   C     C_R   0.182178 0.522497 0.375066 -0.163142
C36   C     C_R   0.253512 0.506385 0.376397 -0.200353
H1    H     H_    0.282337 0.535971 0.716750 0.159086
H2    H     H_    0.554238 0.196631 0.769104 0.164275
H3    H     H_    0.516456 0.092377 0.975940 0.138869
H4    H     H_    0.448664 0.892802 0.965888 0.130914
H5    H     H_    0.425357 0.793099 0.748566 0.148318
H6    H     H_    0.497170 0.889573 0.284462 0.169833
H7    H     H_    0.575171 0.643516 0.128093 0.161175
H8    H     H_    0.405514 0.330430 0.248191 0.205102
H9    H     H_    0.330069 0.190296 0.125493 0.152536
H10   H     H_    0.330084 0.190340 0.875961 0.150728
H11   H     H_    0.405820 0.330110 0.752618 0.206884
H12   H     H_    0.157437 0.563161 0.714626 0.151465
H13   H     H_    0.154870 0.518244 0.278994 0.151110
H14   H     H_    0.279817 0.490817 0.281297 0.160280
H15   H     H_    0.719234 0.475917 0.716224 0.155421
H16   H     H_    0.718815 0.550136 0.285780 0.154845
H17   H     H_    0.844568 0.575864 0.288942 0.155537
H18   H     H_    0.508662 0.112391 0.286354 0.171174
N1    N     N_R   0.034072 0.527174 0.382604 -0.179210
N2    N     N_R   0.965037 0.526363 0.385039 -0.184013
N3    N     N_R   0.968134 0.582503 0.613405 -0.139280
N4    N     N_R   0.037192 0.583116 0.611086 -0.178474
N5    N     N_R   0.499340 0.498800 0.142780 -0.137213
N6    N     N_R   0.499320 0.498720 0.857170 -0.168119
O1    O     O_R   0.500000 0.316780 0.614690 -0.656251
O2    O     O_R   0.499990 0.316750 0.385360 -0.636694
O3    O     O_R   0.398140 0.500000 0.614700 -0.650876
O4    O     O_R   0.398130 0.499970 0.385370 -0.637112
O5    O     O_R   0.500010 0.683250 0.614640 -0.575294
O6    O     O_R   0.500000 0.683220 0.385310 -0.620679
O7    O     O_R   0.601870 0.500030 0.614630 -0.583174
O8    O     O_R   0.601860 0.500000 0.385300 -0.621337
Zn1   Zn    Zn3+2 0.500000 0.500020 0.653130 0.963297
Zn2   Zn    Zn3+2 0.500000 0.499980 0.346870 0.931266
O9    O     O_3   0.585151 0.660841 0.852297 -0.559902
C37   C     C_3   0.653511 0.670549 0.904886 -0.339640
H19   H     H_    0.688524 0.706992 0.823752 0.202581
H20   H     H_    0.656270 0.738562 0.989291 0.160648
H21   H     H_    0.673547 0.578639 0.937576 0.134843
N7    N     N_3   0.855073 0.495773 0.751619 -0.445558
H22   H     H_    0.836151 0.559051 0.821807 0.179252
H23   H     H_    0.843060 0.405728 0.787234 0.184712

loop_
_geom_bond_atom_site_label_1
_geom_bond_atom_site_label_2
_ccdc_geom_bond_type
N1    N2    A    
C16   C21   A    
C35   C36   A    
C2    C12   S    
C1    O2    A    
C30   O9    S    
C7    C8    A    
C31   O7    A    
C26   C27   A    
C24   H9    S    
C23   O6    A    
N7    H23   S    
C34   C35   A    
C27   N6    A    
O3    Zn1   S    
C5    C6    A    
C12   O4    A    
O1    Zn1   S    
C15   C16   A    
O2    Zn2   S    
C2    C32   A    
C18   C19   A    
C22   H8    S    
C19   C20   A    
C16   C17   A    
C30   N6    A    
C35   H13   S    
O4    Zn2   S    
C6    H15   S    
C9    C10   A    
C8    H16   S    
C22   C28   A    
C13   C14   A    
C29   H7    S    
C37   H21   S    
C33   C34   A    
C31   O8    A    
C4    C34   S    
C7    C31   S    
C29   N5    A    
N7    H22   S    
C15   H5    S    
C37   H20   S    
C12   O3    A    
C8    C9    A    
C25   C26   A    
O7    Zn1   S    
C11   H2    S    
C29   C30   A    
C3    N2    A    
C17   C18   A    
C1    C18   S    
C32   H1    S    
C24   C25   A    
C26   H11   S    
C3    N3    A    
C19   H18   S    
C21   C23   S    
C4    N1    A    
C22   C24   A    
C9    H17   S    
C36   H14   S    
C28   N5    A    
C2    C36   A    
C11   C17   A    
C37   H19   S    
C1    O1    A    
C20   H6    S    
C6    C7    A    
C32   C33   A    
C23   O5    A    
C5    N7    S    
C5    C10   A    
C3    C10   S    
C11   C13   A    
N3    N4    A    
O6    Zn2   S    
N6    Zn1   S    
O5    Zn1   S    
C13   H3    S    
N5    Zn2   S    
C14   H4    S    
O9    C37   S    
C20   C21   A    
O8    Zn2   S    
C4    N4    A    
C27   C28   A    
C33   H12   S    
C14   C15   A    
C25   H10   S    
