data_mof_unit_20915.cif
_audit_creation_date              2013-03-05T16:31:29-0500
_audit_creation_method            fapswitch 2.2
_symmetry_space_group_name_H-M    P1
_symmetry_Int_Tables_number       1
_space_group_crystal_system       triclinic
_cell_length_a                    15.066174
_cell_length_b                    10.834694
_cell_length_c                    9.555698
_cell_angle_alpha                 89.745003
_cell_angle_beta                  89.684797
_cell_angle_gamma                 90.527664
_cell_volume                      1559.74159966

loop_
_atom_site_label
_atom_site_type_symbol
_atom_site_description
_atom_site_fract_x
_atom_site_fract_y
_atom_site_fract_z
_atom_type_partial_charge
O1    O     O_R   0.500000 0.319640 0.618810 -0.583869
O2    O     O_R   0.500010 0.319680 0.381230 -0.595641
C1    C     C_R   0.501077 0.262376 0.500232 0.791211
O3    O     O_R   0.370250 0.499950 0.618800 -0.589590
O4    O     O_R   0.370260 0.499990 0.381220 -0.589438
C2    C     C_R   0.328680 0.499333 0.500338 0.804828
Cu1   Cu    Cu3+1 0.500000 0.499980 0.640670 0.953301
Cu2   Cu    Cu3+1 0.500000 0.500020 0.359330 0.980391
O5    O     O_R   0.499990 0.680320 0.618770 -0.581238
O6    O     O_R   0.500000 0.680360 0.381190 -0.593252
O7    O     O_R   0.629740 0.500010 0.618780 -0.587151
O8    O     O_R   0.629750 0.500050 0.381200 -0.528447
C3    C     C_R   0.500716 0.737652 0.499748 0.802243
C4    C     C_R   0.671344 0.498223 0.499985 0.828188
C5    C     C_R   0.814377 0.530533 0.621560 -0.227363
C6    C     C_R   0.768207 0.494204 0.501239 -0.076632
C7    C     C_R   0.814746 0.452875 0.383391 -0.149094
C8    C     C_R   0.907252 0.453432 0.382194 0.094035
C9    C     C_R   0.953525 0.491752 0.502677 0.055469
C10   C     C_R   0.906802 0.529109 0.623386 0.103345
C11   C     C_R   0.954214 0.417106 0.262442 -0.175861
C12   C     C_R   0.046783 0.419706 0.261537 -0.217911
C13   C     C_R   0.093300 0.457557 0.380825 0.107903
C14   C     C_R   0.046574 0.492924 0.502390 0.069502
C15   C     C_R   0.092798 0.529887 0.623510 0.107013
C16   C     C_R   0.045780 0.565427 0.743541 -0.215248
C17   C     C_R   0.953233 0.565403 0.743342 -0.191448
C18   C     C_R   0.185793 0.460717 0.380750 -0.243795
C19   C     C_R   0.231852 0.497235 0.501073 -0.070681
C20   C     C_R   0.185300 0.531058 0.622253 -0.248876
H1    H     H_    0.778560 0.561184 0.713410 0.162270
H2    H     H_    0.779024 0.420017 0.292817 0.205895
H3    H     H_    0.919357 0.387750 0.169233 0.165571
H4    H     H_    0.081980 0.392160 0.167678 0.144855
H5    H     H_    0.221890 0.433494 0.287514 0.151763
H6    H     H_    0.221003 0.559746 0.715024 0.153800
H7    H     H_    0.917981 0.593908 0.836786 0.168592
C21   C     C_R   0.503766 0.062919 0.625966 0.144345
C22   C     C_R   0.508385 0.129286 0.500507 -0.096365
C23   C     C_R   0.523190 0.065301 0.374991 -0.214534
C24   C     C_R   0.522403 0.936704 0.374595 -0.202026
H8    H     H_    0.529525 0.889511 0.275872 0.152568
C25   C     C_R   0.507368 0.870968 0.499673 -0.094604
C26   C     C_R   0.502930 0.935687 0.625400 0.123946
C27   C     C_3   0.434307 0.928362 0.738713 -0.466640
C28   C     C_3   0.435947 0.068269 0.740378 -0.483565
H9    H     H_    0.372575 0.110336 0.706039 0.196098
H10   H     H_    0.463996 0.106204 0.838674 0.191755
C29   C     C_R   0.523535 0.603961 0.071993 0.138975
N1    N     N_R   0.500570 0.500930 0.147930 -0.164843
C30   C     C_R   0.467338 0.402336 0.075156 -0.041502
H11   H     H_    0.441919 0.322398 0.130898 0.124538
C31   C     C_R   0.467428 0.402331 0.926461 -0.050075
H12   H     H_    0.441780 0.322823 0.871829 0.127032
N2    N     N_R   0.500570 0.500890 0.852020 -0.164518
C32   C     C_R   0.521665 0.604631 0.924920 0.191949
C33   C     C_3   0.605075 0.678052 0.911160 -0.518869
C34   C     C_3   0.610003 0.674636 0.070049 0.148111
H13   H     H_    0.370225 0.888742 0.701946 0.198680
H14   H     H_    0.460085 0.886820 0.836672 0.190664
H15   H     H_    0.658530 0.627183 0.856542 0.235744
H16   H     H_    0.593263 0.772048 0.868953 0.159652
N3    N     N_R   0.685834 0.603411 0.118562 0.162602
O9    O     O_R   0.747154 0.658199 0.191411 -0.380037
O10   O     O_R   0.699011 0.491731 0.073565 -0.391910
H17   H     H_    0.605723 0.767393 0.118326 0.084935
H18   H     H_    0.080570 0.593822 0.837187 0.147872
H19   H     H_    0.531415 0.113968 0.276438 0.165384

loop_
_geom_bond_atom_site_label_1
_geom_bond_atom_site_label_2
_geom_bond_distance
_ccdc_geom_bond_type
O4    Cu2   1.964699 S    
C30   C31   1.420883 A    
C25   C26   1.395355 A    
N3    O10   1.302524 A    
C27   H14   1.110461 S    
C33   H15   1.109453 S    
C19   C20   1.402375 A    
C30   H11   1.080765 S    
C10   C17   1.402025 A    
C20   H6    1.084648 S    
C29   C32   1.405808 A    
C24   H8    1.080326 S    
C9    C10   1.410772 A    
Cu1   N2    2.019730 S    
C3    C25   1.446987 S    
Cu2   O8    1.967115 S    
C11   H3    1.083909 S    
N2    C32   1.361065 A    
C9    C14   1.401823 A    
C16   C17   1.394351 A    
C14   C15   1.411670 A    
C1    C22   1.447193 S    
C33   H16   1.109940 S    
O1    Cu1   1.965987 S    
C31   H12   1.078900 S    
C26   C27   1.494341 S    
C8    C11   1.401857 A    
Cu1   O7    1.964697 S    
C24   C25   1.404844 A    
C33   C34   1.520818 S    
O4    C2    1.296196 A    
C17   H7    1.083990 S    
O3    Cu1   1.967117 S    
C16   H18   1.083871 S    
Cu2   O6    1.965987 S    
C18   C19   1.402797 A    
O8    C4    1.299747 A    
C21   C26   1.378490 A    
C7    C8    1.393657 A    
C4    C6    1.460517 S    
C31   N2    1.369359 A    
C5    C10   1.392927 A    
C12   H4    1.083862 S    
O7    C4    1.294013 A    
C28   H10   1.111023 S    
C21   C28   1.494004 S    
C13   C18   1.393608 A    
C7    H2    1.081581 S    
C13   C14   1.411303 A    
N3    O9    1.300427 A    
C22   C23   1.405782 A    
C34   N3    1.461014 S    
Cu2   N1    2.020025 S    
Cu1   Cu2   2.688398 S    
C2    C19   1.458773 S    
C21   C22   1.396291 A    
C32   C33   1.485991 S    
O3    C2    1.296715 A    
C29   N1    1.369420 A    
C23   H19   1.083216 S    
O2    Cu2   1.964177 S    
C15   C20   1.393567 A    
Cu1   O5    1.964178 S    
C8    C9    1.411254 A    
O5    C3    1.293437 A    
C28   H9    1.112267 S    
C23   C24   1.393268 A    
O2    C1    1.293424 A    
N1    C30   1.369667 A    
C15   C16   1.402018 A    
C11   C12   1.394667 A    
C5    H1    1.082811 S    
C34   H17   1.109948 S    
C12   C13   1.402253 A    
C27   H13   1.112330 S    
C29   C34   1.505026 S    
C5    C6    1.403038 A    
C18   H5    1.084663 S    
C6    C7    1.400674 A    
O1    C1    1.294351 A    
O6    C3    1.294284 A    
C27   C28   1.515974 S    
