data_mof_unit_11687.cif
_audit_creation_date              2012-12-11T14:21:16-0500
_audit_creation_method            fapswitch 2.2
_symmetry_space_group_name_H-M    P1
_symmetry_Int_Tables_number       1
_space_group_crystal_system       triclinic
_cell_length_a                    21.979637
_cell_length_b                    7.199998
_cell_length_c                    14.911391
_cell_angle_alpha                 89.984066
_cell_angle_beta                  107.034812
_cell_angle_gamma                 89.973585
_cell_volume                      2256.24635524

loop_
_atom_site_label
_atom_site_type_symbol
_atom_type_description
_atom_site_fract_x
_atom_site_fract_y
_atom_site_fract_z
_atom_type_partial_charge
O1    O     O_R   0.584770 0.505770 0.002090 -0.542895
O2    O     O_R   0.415230 0.005770 0.997910 -0.543160
O3    O     O_R   0.467060 0.173340 0.861950 -0.531753
O4    O     O_R   0.532940 0.673340 0.138050 -0.530945
C1    C     C_R   0.455260 0.344251 0.825850 0.737634
C2    C     C_R   0.544718 0.844146 0.174148 0.739745
O5    O     O_R   0.587510 0.175890 0.993210 -0.538080
O6    O     O_R   0.412490 0.675890 0.006790 -0.539079
O7    O     O_R   0.536540 0.008150 0.130100 -0.538978
O8    O     O_R   0.463460 0.508150 0.869900 -0.539086
C3    C     C_R   0.613050 0.345137 0.998208 0.778269
C4    C     C_R   0.387217 0.845376 0.003209 0.774644
O9    O     O_3   0.483140 0.340040 0.044760 -0.377973
O10   O     O_3   0.516860 0.840040 0.955240 -0.378162
V1    V     V_3+5 0.503130 0.064190 0.991700 1.491825
V2    V     V_3+5 0.496870 0.564190 0.008300 1.492468
C5    C     C_2   0.219881 0.730473 0.026682 0.301440
C6    C     C_2   0.789843 0.226966 0.023218 0.282875
C7    C     C_2   0.180865 0.880155 0.997904 -0.329150
C8    C     C_2   0.819347 0.381360 0.002963 -0.315287
H1    H     H_    0.198088 0.000500 0.969107 0.120128
H2    H     H_    0.792431 0.507809 0.981032 0.130847
C9    C     C_2   0.285571 0.717533 0.017575 -0.137330
C10   C     C_2   0.720268 0.216121 0.013018 -0.147982
C11   C     C_2   0.320860 0.863417 0.006884 -0.320889
C12   C     C_2   0.680652 0.362313 0.000759 -0.311271
H3    H     H_    0.306767 0.579975 0.024559 0.176679
H4    H     H_    0.701477 0.079108 0.019997 0.170219
H5    H     H_    0.301947 0.003087 0.004142 0.146074
H6    H     H_    0.698329 0.501888 0.997799 0.144685
C13   C     C_R   0.927484 0.888166 0.723535 -0.032571
C14   C     C_R   0.072458 0.387959 0.276426 -0.043244
C15   C     C_R   0.572601 0.850108 0.276022 -0.085224
C16   C     C_R   0.427340 0.350867 0.723976 -0.082490
C17   C     C_R   0.938950 0.917781 0.567249 0.021577
C18   C     C_R   0.061017 0.417952 0.432661 0.022546
C19   C     C_R   0.965639 0.912473 0.664706 -0.207215
C20   C     C_R   0.034326 0.412919 0.335217 -0.200978
C21   C     C_R   0.861993 0.866815 0.686085 -0.202742
C22   C     C_R   0.137932 0.366215 0.313867 -0.190963
C23   C     C_R   0.832204 0.876386 0.588287 0.061999
C24   C     C_R   0.167828 0.377568 0.411560 0.058472
C25   C     C_R   0.871404 0.909004 0.528577 0.100277
C26   C     C_R   0.128578 0.409268 0.471319 0.109296
C27   C     C_R   0.764563 0.859918 0.548675 0.059014
C28   C     C_R   0.235569 0.363315 0.451045 0.054192
C29   C     C_R   0.736443 0.884884 0.450109 0.071563
C30   C     C_R   0.263561 0.386003 0.549767 0.078753
C31   C     C_R   0.776501 0.930786 0.394918 -0.200131
C32   C     C_R   0.223412 0.429938 0.605087 -0.207963
C33   C     C_R   0.841974 0.941711 0.433025 -0.148069
C34   C     C_R   0.157953 0.441034 0.566941 -0.160210
C35   C     C_R   0.724059 0.818657 0.604379 -0.166423
C36   C     C_R   0.276370 0.327721 0.395058 -0.152637
C37   C     C_R   0.658669 0.804987 0.565688 -0.132835
C38   C     C_R   0.341808 0.315650 0.433799 -0.127309
C39   C     C_R   0.630751 0.826329 0.469682 0.075513
C40   C     C_R   0.369525 0.333217 0.530046 0.070468
C41   C     C_R   0.669047 0.864932 0.410128 0.091159
C42   C     C_R   0.330977 0.366823 0.589773 0.090621
C43   C     C_R   0.564644 0.804736 0.432638 -0.161468
C44   C     C_R   0.435716 0.313549 0.567098 -0.158844
C45   C     C_R   0.535538 0.815173 0.336291 0.246924
C46   C     C_R   0.464673 0.321265 0.663563 0.247449
C47   C     C_R   0.638320 0.876401 0.312522 -0.258835
C48   C     C_R   0.361498 0.374656 0.687523 -0.260914
H7    H     H_    0.868669 0.983669 0.386169 0.191953
H8    H     H_    0.131217 0.482109 0.613881 0.178673
H9    H     H_    0.664149 0.897789 0.262142 0.113115
H10   H     H_    0.335442 0.391556 0.737948 0.107590
H11   H     H_    0.629714 0.773464 0.611436 0.158836
H12   H     H_    0.370988 0.288696 0.387831 0.162854
H13   H     H_    0.016717 0.925341 0.695295 0.104961
H14   H     H_    0.983251 0.426052 0.304615 0.118588
H15   H     H_    0.835686 0.851136 0.736185 0.108111
H16   H     H_    0.164069 0.347868 0.263794 0.143805
H17   H     H_    0.758762 0.962343 0.321278 0.141223
H18   H     H_    0.241129 0.460729 0.678806 0.127191
H19   H     H_    0.741110 0.793224 0.678621 0.133703
H20   H     H_    0.259637 0.306930 0.320448 0.156729
H21   H     H_    0.535610 0.775907 0.478569 0.160830
H22   H     H_    0.464966 0.288845 0.521031 0.160952
O11   O     O_R   0.036450 0.233070 0.130130 -0.534497
O12   O     O_R   0.963550 0.733070 0.869870 -0.543841
O13   O     O_R   0.912470 0.560570 0.006790 -0.533622
O14   O     O_R   0.087530 0.060570 0.993210 -0.536720
C49   C     C_R   0.887284 0.390835 0.004432 0.756366
C50   C     C_R   0.113555 0.891073 0.999633 0.763027
O15   O     O_R   0.032920 0.562940 0.138050 -0.529817
O16   O     O_R   0.967080 0.062940 0.861950 -0.541542
O17   O     O_R   0.084790 0.730500 0.002090 -0.513129
O18   O     O_R   0.915210 0.230500 0.997910 -0.512723
C51   C     C_R   0.044575 0.394450 0.174631 0.733233
C52   C     C_R   0.955381 0.894536 0.825357 0.683200
O19   O     O_3   0.016820 0.396170 0.955260 -0.375236
O20   O     O_3   0.983180 0.896170 0.044740 -0.356309
V3    V     V_3+5 0.996880 0.672090 0.008300 1.557784
V4    V     V_3+5 0.003120 0.172090 0.991700 1.544036
Br1   Br    Br    0.195693 0.514003 0.084466 -0.574381
Br2   Br    Br    0.834820 0.000821 0.070993 -0.555701
Br3   Br    Br    0.445238 0.778299 0.289560 -0.552377
Br4   Br    Br    0.555160 0.288438 0.710223 -0.571914
C53   C     C_2   0.984520 0.930092 0.510747 0.339811
H23   H     H_    0.031586 0.987718 0.542200 0.101745
O21   O     O_2   0.972280 0.866324 0.431653 -0.546475
C54   C     C_2   0.015422 0.430127 0.489129 0.334185
H24   H     H_    0.968388 0.488167 0.457712 0.107237
O22   O     O_2   0.027583 0.365731 0.568112 -0.555721

loop_
_geom_bond_atom_site_label_1
_geom_bond_atom_site_label_2
_ccdc_geom_bond_type
C40   C44   A    
O1    C3    A    
C45   Br3   S    
O2    C4    A    
C16   C48   A    
C2    O7    A    
O19   V4    S    
C15   C47   A    
C29   C31   A    
C46   Br4   S    
C5    C9    S    
C24   C26   A    
C6    C10   S    
O12   V3    S    
C7    H1    S    
C10   C12   D    
C17   C53   S    
O14   C50   A    
C39   C41   A    
C54   H24   S    
C40   C42   A    
O11   C51   A    
C8    C49   S    
C24   C28   A    
C27   C29   A    
C43   C45   A    
C44   C46   A    
C31   H17   S    
C31   C33   A    
O11   V4    S    
C32   C34   A    
C30   C42   A    
C14   C20   A    
C17   C25   A    
C34   H8    S    
C15   C45   A    
C26   C34   A    
C30   C32   A    
C14   C51   S    
C44   H22   S    
C42   C48   A    
O6    V2    S    
C49   O18   A    
O20   V3    S    
C23   C25   A    
C6    Br2   S    
C32   H18   S    
O16   C52   A    
C36   H20   S    
C9    H3    S    
C35   C37   A    
C11   H5    S    
C36   C38   A    
O13   C49   A    
O18   V4    S    
C21   C23   A    
C7    C50   S    
O12   C52   A    
O5    V1    S    
C3    C12   S    
C38   H12   S    
C18   C54   S    
C27   C35   A    
C22   H16   S    
O15   V3    S    
O4    V2    S    
O5    C3    A    
C50   O17   A    
O6    C4    A    
C1    C16   S    
C28   C36   A    
C16   C46   A    
C53   O21   D    
O1    V2    S    
C33   H7    S    
O17   V3    S    
O2    V1    S    
C5    Br1   S    
O4    C2    A    
C8    H2    S    
C12   H6    S    
C21   H15   S    
C37   C39   A    
C18   C26   A    
C14   C22   A    
O3    V1    S    
C17   C19   A    
C20   H14   S    
C19   H13   S    
C35   H19   S    
C10   H4    S    
O3    C1    A    
C39   C43   A    
C13   C52   S    
C2    C15   S    
C4    C11   S    
C18   C20   A    
O7    V1    S    
C1    O8    A    
C43   H21   S    
C41   C47   A    
C25   C33   A    
C48   H10   S    
C54   O22   D    
C47   H9    S    
C22   C24   A    
C5    C7    D    
C38   C40   A    
C6    C8    D    
C9    C11   D    
O15   C51   A    
O14   V4    S    
O13   V3    S    
C29   C41   A    
C28   C30   A    
C13   C19   A    
O9    V2    S    
C53   H23   S    
C13   C21   A    
C23   C27   A    
O10   V1    S    
O8    V2    S    
O16   V4    S    
C37   H11   S    
