data_mof_unit_29923.cif
_audit_creation_date              2012-12-10T18:59:15-0500
_audit_creation_method            fapswitch 2.2
_symmetry_space_group_name_H-M    P1
_symmetry_Int_Tables_number       1
_space_group_crystal_system       triclinic
_cell_length_a                    10.759482
_cell_length_b                    10.846638
_cell_length_c                    9.566947
_cell_angle_alpha                 89.906973
_cell_angle_beta                  90.136783
_cell_angle_gamma                 89.707025
_cell_volume                      1116.48368473

loop_
_atom_site_label
_atom_site_type_symbol
_atom_type_description
_atom_site_fract_x
_atom_site_fract_y
_atom_site_fract_z
_atom_type_partial_charge
C1    C     C_R   0.498880 0.262407 0.499876 0.807295
C2    C     C_R   0.066575 0.391037 0.567218 0.079147
C3    C     C_R   0.129100 0.488762 0.499679 -0.081026
C4    C     C_R   0.063583 0.580675 0.428295 -0.195780
C5    C     C_R   0.935371 0.580766 0.428593 -0.207081
C6    C     C_R   0.871203 0.488271 0.499091 -0.082358
C7    C     C_R   0.447150 0.063590 0.613074 -0.031787
C8    C     C_R   0.489570 0.129292 0.497288 -0.096915
C9    C     C_R   0.514578 0.064282 0.373354 -0.188291
C10   C     C_R   0.513474 0.935741 0.373173 -0.207638
C11   C     C_R   0.487455 0.870725 0.497012 -0.105767
C12   C     C_R   0.262715 0.496700 0.499929 0.773778
C13   C     C_R   0.445214 0.936779 0.612950 -0.009181
C14   C     C_3   0.475789 0.928143 0.765242 0.169189
C15   C     C_3   0.479584 0.069346 0.764614 0.861369
C16   C     C_R   0.607043 0.521170 0.074041 0.020290
C17   C     C_R   0.392210 0.491709 0.073798 -0.086705
C18   C     C_R   0.392163 0.491561 0.925586 -0.047614
C19   C     C_R   0.607173 0.520729 0.926793 0.006010
C20   C     C_3   0.723078 0.444499 0.922891 0.421324
C21   C     C_3   0.723272 0.445918 0.081321 0.428419
C22   C     C_R   0.497787 0.737570 0.499733 0.804921
C23   C     C_R   0.737369 0.496369 0.499931 0.781377
C24   C     C_R   0.131260 0.292494 0.632294 -0.184727
C25   C     C_R   0.066774 0.195268 0.693564 -0.153166
C26   C     C_R   0.937513 0.193021 0.688754 -0.078017
C27   C     C_R   0.872008 0.288617 0.623919 -0.084838
C28   C     C_R   0.935250 0.389912 0.564981 0.055858
Cu1   Cu    Cu3+1 0.499990 0.499980 0.640670 1.003105
Cu2   Cu    Cu3+1 0.500010 0.500020 0.359330 0.969531
H1    H     H_    0.112118 0.654320 0.374904 0.146295
H2    H     H_    0.567518 0.882104 0.783775 0.064101
H3    H     H_    0.304868 0.481175 0.127625 0.146447
H4    H     H_    0.304819 0.480560 0.871470 0.147000
H5    H     H_    0.803239 0.492918 0.875015 0.007639
H6    H     H_    0.802930 0.496332 0.127822 0.010513
H7    H     H_    0.231633 0.288232 0.634549 0.163761
H8    H     H_    0.117400 0.120397 0.742947 0.189600
H9    H     H_    0.887782 0.116296 0.734147 0.185214
H10   H     H_    0.771952 0.281297 0.618314 0.200528
H11   H     H_    0.885771 0.654598 0.375661 0.138985
H12   H     H_    0.541924 0.112002 0.278924 0.192828
H13   H     H_    0.540121 0.887853 0.278579 0.155358
N1    N     N_R   0.500790 0.500930 0.147930 -0.138901
N2    N     N_R   0.500790 0.500890 0.852020 -0.141361
O1    O     O_R   0.500000 0.319640 0.618810 -0.518901
O2    O     O_R   0.500010 0.319680 0.381230 -0.559757
O3    O     O_R   0.319640 0.499980 0.618820 -0.594505
O4    O     O_R   0.319650 0.500020 0.381230 -0.598522
O5    O     O_R   0.499990 0.680320 0.618770 -0.574029
O6    O     O_R   0.500000 0.680360 0.381190 -0.600405
O7    O     O_R   0.680350 0.499980 0.618770 -0.575058
O8    O     O_R   0.680360 0.500020 0.381180 -0.554581
O9    O     O_3   0.382689 0.126543 0.841163 -0.607483
C29   C     C_3   0.424896 0.164342 0.974022 0.210664
H14   H     H_    0.479212 0.250527 0.963775 0.243157
H15   H     H_    0.484524 0.093691 0.025494 0.138616
C30   C     C_3   0.313213 0.188883 0.067257 -0.845074
H16   H     H_    0.260608 0.102415 0.083814 0.255048
H17   H     H_    0.344597 0.224294 0.170165 0.228582
H18   H     H_    0.250777 0.258186 0.017695 0.245959
F1    F     F_    0.597847 0.116793 0.785982 -0.675593
F2    F     F_    0.701921 0.328268 0.869332 -0.575468
F3    F     F_    0.703177 0.330617 0.139461 -0.602314
O10   O     O_3   0.373030 0.881221 0.840043 -0.544928
C31   C     C_3   0.414296 0.825738 0.965362 0.109871
H19   H     H_    0.475488 0.887953 0.026339 0.109194
H20   H     H_    0.466723 0.740096 0.941822 0.150666
C32   C     C_3   0.302584 0.793527 0.055167 -0.770878
H21   H     H_    0.241652 0.727766 0.998832 0.238936
H22   H     H_    0.334289 0.750617 0.154574 0.213134
H23   H     H_    0.248491 0.878054 0.079822 0.244940

loop_
_geom_bond_atom_site_label_1
_geom_bond_atom_site_label_2
_ccdc_geom_bond_type
Cu2   O4    S    
C32   H23   S    
C31   H20   S    
C29   H14   S    
C19   N2    A    
C16   C21   S    
C25   H8    S    
C1    C8    S    
C11   C13   A    
C9    C10   A    
C16   N1    A    
C11   C22   S    
C19   C20   S    
C12   O3    A    
Cu1   O1    S    
C22   O5    A    
C20   F2    S    
C7    C15   S    
C12   O4    A    
C23   O7    A    
C17   N1    A    
C7    C8    A    
C21   H6    S    
C13   C14   S    
C20   C21   S    
C5    C6    A    
C18   H4    S    
Cu1   N2    S    
Cu2   N1    S    
C26   C27   A    
Cu1   Cu2   S    
C17   H3    S    
C30   H18   S    
C16   C19   A    
C9    H12   S    
C6    C23   S    
Cu2   O6    S    
C20   H5    S    
C23   O8    A    
C2    C3    A    
Cu1   O5    S    
C29   H15   S    
C2    C24   A    
C32   H21   S    
C26   H9    S    
Cu2   O8    S    
C30   H16   S    
C1    O1    A    
C22   O6    A    
C4    H1    S    
C2    C28   A    
C10   C11   A    
Cu1   O3    S    
C30   H17   S    
C3    C4    A    
C31   C32   S    
C18   N2    A    
Cu2   O2    S    
C7    C13   A    
C31   H19   S    
C24   C25   A    
C17   C18   A    
O10   C31   S    
C29   C30   S    
C14   H2    S    
C24   H7    S    
C32   H22   S    
C14   O10   S    
C14   C15   S    
C1    O2    A    
C21   F3    S    
C5    H11   S    
C3    C12   S    
C27   H10   S    
C25   C26   A    
O9    C29   S    
C15   O9    S    
C4    C5    A    
C15   F1    S    
C6    C28   A    
C10   H13   S    
C8    C9    A    
C27   C28   A    
Cu1   O7    S    
