data_mof_unit_56500.cif
_audit_creation_date              2012-12-10T17:40:54-0500
_audit_creation_method            fapswitch 2.2
_symmetry_space_group_name_H-M    P1
_symmetry_Int_Tables_number       1
_space_group_crystal_system       triclinic
_cell_length_a                    15.032546
_cell_length_b                    15.045382
_cell_length_c                    9.976223
_cell_angle_alpha                 91.097473
_cell_angle_beta                  90.994067
_cell_angle_gamma                 89.850838
_cell_volume                      2255.56706876

loop_
_atom_site_label
_atom_site_type_symbol
_atom_type_description
_atom_site_fract_x
_atom_site_fract_y
_atom_site_fract_z
_atom_type_partial_charge
C1    C     C_R   0.377731 0.883267 0.498636 0.860035
C2    C     C_R   0.754374 0.184654 0.577924 -0.175762
C3    C     C_R   0.164266 0.228929 0.475346 -0.177117
C4    C     C_R   0.254376 0.684648 0.577904 -0.175687
C5    C     C_R   0.688296 0.817049 0.498706 -0.081512
C6    C     C_R   0.677418 0.194618 0.500683 -0.088243
C7    C     C_R   0.188292 0.317049 0.498701 -0.081515
C8    C     C_R   0.177414 0.694621 0.500688 -0.088224
C9    C     C_R   0.380005 0.890368 0.112010 0.188892
C10   C     C_R   0.880011 0.390391 0.111974 0.188851
C11   C     C_R   0.298682 0.871847 0.047059 -0.232462
C12   C     C_R   0.380588 0.119871 0.500466 0.820944
C13   C     C_R   0.798704 0.371899 0.047009 -0.232516
C14   C     C_R   0.276652 0.913856 0.927267 0.157643
C15   C     C_R   0.776642 0.413972 0.927292 0.157581
C16   C     C_R   0.341063 0.964398 0.863767 -0.157378
C17   C     C_R   0.841054 0.464446 0.863779 -0.157275
C18   C     C_R   0.424165 0.978350 0.926828 0.069074
C19   C     C_R   0.924161 0.478364 0.926828 0.069049
C20   C     C_R   0.431915 0.960810 0.066252 0.094407
C21   C     C_R   0.931908 0.460825 0.066250 0.094467
C22   C     C_R   0.570707 0.029057 0.075364 -0.116811
C23   C     C_R   0.877733 0.383265 0.498635 0.860037
C24   C     C_R   0.070715 0.529043 0.075362 -0.116825
C25   C     C_R   0.616525 0.122762 0.500754 0.832828
C26   C     C_R   0.619085 0.880045 0.499652 0.877227
C27   C     C_R   0.116522 0.622764 0.500754 0.832819
C28   C     C_R   0.119082 0.380045 0.499648 0.877242
C29   C     C_R   0.573782 0.021150 0.933416 0.224964
C30   C     C_R   0.073788 0.521134 0.933412 0.224997
C31   C     C_R   0.431109 0.302046 0.560518 -0.178055
C32   C     C_R   0.213342 0.914316 0.346984 -0.216443
C33   C     C_R   0.931115 0.802012 0.560393 -0.178089
C34   C     C_R   0.880573 0.619858 0.500453 0.820926
C35   C     C_R   0.713355 0.414300 0.346937 -0.216391
C36   C     C_R   0.454545 0.391459 0.574954 -0.084060
C37   C     C_R   0.135438 0.925297 0.271434 -0.133414
C38   C     C_R   0.954532 0.891413 0.575175 -0.084073
C39   C     C_R   0.635457 0.425268 0.271367 -0.133394
C40   C     C_R   0.889934 0.957268 0.562756 -0.118550
C41   C     C_R   0.571426 0.358827 0.267515 -0.102179
C42   C     C_R   0.389956 0.457300 0.562302 -0.118650
C43   C     C_R   0.071403 0.858859 0.267609 -0.102101
C44   C     C_R   0.801521 0.933752 0.537322 -0.147722
C45   C     C_R   0.228950 0.164645 0.476166 -0.200679
C46   C     C_R   0.584420 0.281877 0.341033 -0.201585
C47   C     C_R   0.301521 0.433769 0.537119 -0.147692
C48   C     C_R   0.084405 0.781897 0.341095 -0.201597
C49   C     C_R   0.776902 0.843547 0.522210 0.097750
C50   C     C_R   0.662766 0.269830 0.419744 0.095548
C51   C     C_R   0.276898 0.343557 0.522232 0.097810
C52   C     C_R   0.162753 0.769844 0.419783 0.095590
C53   C     C_R   0.342452 0.277493 0.529238 0.082728
C54   C     C_R   0.228536 0.835895 0.420101 0.110399
C55   C     C_R   0.842455 0.777479 0.529121 0.082765
C56   C     C_R   0.319061 0.747696 0.575626 -0.171034
C57   C     C_R   0.728548 0.335882 0.420066 0.110382
C58   C     C_R   0.316881 0.188787 0.502535 -0.070931
C59   C     C_R   0.306965 0.821787 0.496504 -0.077865
C60   C     C_R   0.816874 0.688778 0.502466 -0.070885
C61   C     C_R   0.806969 0.321784 0.496498 -0.077845
C62   C     C_R   0.728945 0.664640 0.476170 -0.200695
C63   C     C_R   0.819056 0.247704 0.575646 -0.171104
C64   C     C_R   0.664267 0.728930 0.475390 -0.177036
H1    H     H_    0.210253 0.095979 0.458373 0.137755
H2    H     H_    0.761019 0.467789 0.347080 0.155604
H3    H     H_    0.523146 0.409792 0.593953 0.176466
H4    H     H_    0.124913 0.985442 0.215410 0.168626
H5    H     H_    0.023114 0.909724 0.594350 0.176518
H6    H     H_    0.624925 0.485414 0.215353 0.168702
H7    H     H_    0.908314 0.026606 0.573165 0.143696
H8    H     H_    0.510845 0.367426 0.208916 0.165273
H9    H     H_    0.408365 0.526642 0.572236 0.143684
H10   H     H_    0.010826 0.867457 0.209011 0.165242
H11   H     H_    0.752867 0.986246 0.527773 0.128679
H12   H     H_    0.379756 0.737810 0.633953 0.165845
H13   H     H_    0.531240 0.233804 0.337637 0.166989
H14   H     H_    0.252872 0.486255 0.527401 0.128601
H15   H     H_    0.031237 0.733812 0.337669 0.166972
H16   H     H_    0.595432 0.710171 0.457042 0.155320
H17   H     H_    0.766524 0.126179 0.635990 0.175053
H18   H     H_    0.095431 0.210170 0.456904 0.155354
H19   H     H_    0.266529 0.626162 0.635942 0.175127
H20   H     H_    0.629230 0.050247 0.131812 0.176669
H21   H     H_    0.129240 0.550226 0.131808 0.176652
H22   H     H_    0.256930 0.818772 0.081953 0.204489
H23   H     H_    0.710247 0.595977 0.458374 0.137742
H24   H     H_    0.756976 0.318815 0.081844 0.204513
H25   H     H_    0.879743 0.237827 0.633999 0.165821
H26   H     H_    0.325621 0.991686 0.767129 0.203957
H27   H     H_    0.825616 0.491736 0.767147 0.203962
H28   H     H_    0.482807 0.252679 0.572407 0.143156
H29   H     H_    0.261020 0.967788 0.347094 0.155612
H30   H     H_    0.982814 0.752639 0.572183 0.143119
I1    I     I_    0.154651 0.884835 0.829532 -0.414558
I2    I     I_    0.654551 0.385280 0.829728 -0.414493
I3    I     I_    0.702309 0.026698 0.854671 -0.330122
I4    I     I_    0.202302 0.526684 0.854637 -0.329858
I5    I     I_    0.448161 0.773891 0.177328 -0.337930
I6    I     I_    0.948130 0.273951 0.177311 -0.338006
N1    N     N_R   0.498810 0.000000 0.142780 -0.121275
N2    N     N_R   0.998810 0.500000 0.142780 -0.121266
N3    N     N_R   0.498740 0.000000 0.857170 -0.123476
N4    N     N_R   0.998740 0.500000 0.857170 -0.123497
O1    O     O_R   0.408390 0.908380 0.614690 -0.627256
O2    O     O_R   0.591620 0.908390 0.614640 -0.587015
O3    O     O_R   0.091620 0.591610 0.614640 -0.583472
O4    O     O_R   0.091620 0.408390 0.614640 -0.587016
O5    O     O_R   0.591610 0.091610 0.385310 -0.633147
O6    O     O_R   0.591610 0.908390 0.385310 -0.587940
O7    O     O_R   0.091610 0.591610 0.385310 -0.633171
O8    O     O_R   0.091610 0.408390 0.385310 -0.587978
O9    O     O_R   0.408390 0.091620 0.614690 -0.624429
O10   O     O_R   0.908390 0.408380 0.614690 -0.627280
O11   O     O_R   0.908390 0.591620 0.614690 -0.624380
O12   O     O_R   0.408370 0.908380 0.385360 -0.606997
O13   O     O_R   0.408370 0.091620 0.385360 -0.622777
O14   O     O_R   0.908370 0.408380 0.385360 -0.606976
O15   O     O_R   0.908370 0.591620 0.385360 -0.622789
O16   O     O_R   0.591620 0.091610 0.614640 -0.583550
Zn1   Zn    Zn3+2 0.500010 0.000000 0.653130 0.984550
Zn2   Zn    Zn3+2 0.000010 0.500000 0.653130 0.984585
Zn3   Zn    Zn3+2 0.499980 0.000000 0.346870 0.967383
Zn4   Zn    Zn3+2 0.999980 0.500000 0.346870 0.967378

loop_
_geom_bond_atom_site_label_1
_geom_bond_atom_site_label_2
_ccdc_geom_bond_type
C44   C49   A    
C33   C55   A    
C16   H26   S    
C56   H12   S    
O12   Zn3   S    
C36   C42   A    
C17   H27   S    
C4    C8    A    
C33   H30   S    
C26   O2    A    
C23   O14   A    
C36   H3    S    
C39   C41   A    
C22   C29   A    
O15   Zn4   S    
C28   O8    A    
N1    Zn3   S    
C22   N1    A    
C48   H15   S    
C40   H7    S    
O8    Zn4   S    
C3    C7    A    
C1    C59   S    
C11   C14   A    
C6    C25   S    
N4    Zn2   S    
C11   H22   S    
C37   H4    S    
C29   N3    A    
C60   C62   A    
C61   C63   A    
C62   C64   A    
C41   C46   A    
C1    O12   A    
C13   H24   S    
C24   H21   S    
C8    C52   A    
C40   C44   A    
C24   N2    A    
C25   O5    A    
C18   N3    A    
C12   C58   S    
C43   H10   S    
C32   H29   S    
C38   H5    S    
C27   O7    A    
C9    I5    S    
O11   Zn2   S    
C55   C60   A    
C4    C56   A    
C34   C60   S    
C64   H16   S    
C5    C49   A    
C2    C6    A    
N2    Zn4   S    
C32   C54   A    
C52   C54   A    
C46   C50   A    
C54   C59   A    
C10   C21   A    
C45   C58   A    
C15   I2    S    
O5    Zn3   S    
C47   C51   A    
C20   N1    A    
C35   H2    S    
C34   O11   A    
C49   C55   A    
C3    C45   A    
C6    C50   A    
C7    C28   S    
C12   O13   A    
C5    C64   A    
C51   C53   A    
C22   H20   S    
C37   C43   A    
C44   H11   S    
C35   C39   A    
O6    Zn3   S    
C19   N4    A    
C9    C20   A    
C27   O3    A    
C63   H25   S    
C3    H18   S    
O1    Zn1   S    
O14   Zn4   S    
C32   C37   A    
C31   C53   A    
C10   I6    S    
C9    C11   A    
C41   H8    S    
C21   N2    A    
C13   C15   A    
C45   H1    S    
C14   C16   A    
N3    Zn1   S    
C25   O16   A    
C14   I1    S    
O16   Zn1   S    
C12   O9    A    
C43   C48   A    
C23   C61   S    
C34   O15   A    
C15   C17   A    
C26   O6    A    
C2    C63   A    
C42   H9    S    
C19   C21   A    
O7    Zn4   S    
C50   C57   A    
O4    Zn2   S    
C10   C13   A    
C46   H13   S    
C53   C58   A    
C57   C61   A    
C62   H23   S    
C30   I4    S    
C33   C38   A    
O3    Zn2   S    
C56   C59   A    
C29   I3    S    
C35   C57   A    
O13   Zn3   S    
C7    C51   A    
C23   O10   A    
C38   C40   A    
C4    H19   S    
C28   O4    A    
O2    Zn1   S    
C17   C19   A    
C39   H6    S    
C18   C20   A    
C42   C47   A    
C24   C30   A    
C5    C26   S    
O10   Zn2   S    
C48   C52   A    
O9    Zn1   S    
C16   C18   A    
C31   H28   S    
C30   N4    A    
C8    C27   S    
C31   C36   A    
C2    H17   S    
C47   H14   S    
C1    O1    A    
