data_mof_unit_28775.cif
_audit_creation_date              2012-12-10T17:50:44-0500
_audit_creation_method            fapswitch 2.2
_symmetry_space_group_name_H-M    P1
_symmetry_Int_Tables_number       1
_space_group_crystal_system       triclinic
_cell_length_a                    14.719651
_cell_length_b                    14.974835
_cell_length_c                    15.835162
_cell_angle_alpha                 74.604218
_cell_angle_beta                  101.302129
_cell_angle_gamma                 115.713538
_cell_volume                      3018.81537291

loop_
_atom_site_label
_atom_site_type_symbol
_atom_type_description
_atom_site_fract_x
_atom_site_fract_y
_atom_site_fract_z
_atom_type_partial_charge
C1    C     C_R   0.880023 0.312638 0.512505 0.832578
C2    C     C_R   0.119965 0.687655 0.484316 0.823631
C3    C     C_R   0.777093 0.026770 0.540972 0.384760
C4    C     C_R   0.223127 0.975070 0.428018 0.362530
C5    C     C_R   0.844736 0.129015 0.522959 0.353608
C6    C     C_R   0.157210 0.873612 0.428606 0.361743
C7    C     C_R   0.707112 0.178828 0.515885 -0.322326
C8    C     C_R   0.287481 0.821004 0.514944 -0.315023
C9    C     C_R   0.636821 0.077675 0.531367 -0.009042
C10   C     C_R   0.357345 0.921930 0.510589 -0.000547
C11   C     C_R   0.674004 0.000408 0.551578 -0.072551
C12   C     C_R   0.321465 0.999277 0.473799 -0.071426
C13   C     C_R   0.530430 0.051571 0.524860 0.071396
C14   C     C_R   0.462669 0.948262 0.537861 0.077263
C15   C     C_R   0.503196 0.875103 0.575001 -0.291155
C16   C     C_R   0.488862 0.124814 0.505294 -0.292463
C17   C     C_R   0.606944 0.899543 0.581610 0.255719
C18   C     C_R   0.385292 0.098927 0.483414 0.248285
C19   C     C_R   0.690187 0.602468 0.317712 0.350515
C20   C     C_R   0.277986 0.332777 0.658542 0.352877
C21   C     C_R   0.784362 0.604302 0.357655 -0.086492
C22   C     C_R   0.199140 0.365725 0.629525 -0.081196
C23   C     C_R   0.997552 0.497548 0.659841 0.812910
C24   C     C_R   0.998541 0.497175 0.340516 0.778500
C25   C     C_R   0.717966 0.524320 0.496363 0.458382
C26   C     C_R   0.286668 0.481828 0.507725 0.452227
C27   C     C_R   0.617899 0.507902 0.458280 -0.088342
C28   C     C_R   0.361693 0.441245 0.526986 -0.075553
C29   C     C_R   0.606499 0.551775 0.368364 -0.044009
C30   C     C_R   0.361945 0.374538 0.608555 -0.053965
C31   C     C_R   0.530208 0.455236 0.507307 -0.047401
C32   C     C_R   0.439588 0.469643 0.470692 -0.048596
C33   C     C_R   0.427099 0.505130 0.378033 0.461480
C34   C     C_R   0.527255 0.382999 0.587615 0.454726
C35   C     C_R   0.511055 0.543490 0.328803 -0.291172
C36   C     C_R   0.443157 0.345570 0.637225 -0.280021
C37   C     C_3   0.993713 0.397153 0.051057 0.206457
C38   C     C_3   0.966372 0.557393 0.951124 0.215353
C39   C     C_3   0.902620 0.390395 0.981064 -0.390955
C40   C     C_3   0.057745 0.564424 0.020324 -0.383666
C41   C     C_1   0.989864 0.489368 0.749700 -0.172615
C42   C     C_1   0.991950 0.488473 0.251779 -0.189369
C43   C     C_3   0.067933 0.480720 0.987291 0.466743
C44   C     C_3   0.892073 0.473882 0.014598 0.461065
C45   C     C_3   0.978108 0.476235 0.917462 -0.024646
C46   C     C_3   0.981972 0.478966 0.084782 -0.023600
C47   C     C_1   0.982971 0.482062 0.825451 0.034229
C48   C     C_1   0.985609 0.482533 0.176524 0.010705
C49   C     C_R   0.810667 0.204956 0.517957 -0.239257
C50   C     C_R   0.188243 0.795867 0.475722 -0.228251
Cu1   Cu    Cu3+1 0.081740 0.475690 0.522610 0.939758
Cu2   Cu    Cu3+1 0.918260 0.524310 0.477390 0.938842
H1    H     H_    0.841267 0.319947 0.963874 0.150919
H2    H     H_    0.119360 0.635822 0.035208 0.152961
H3    H     H_    0.134135 0.334715 0.666689 0.159026
H4    H     H_    0.849400 0.639514 0.320486 0.146719
H5    H     H_    0.308237 0.759650 0.549372 0.194221
H6    H     H_    0.683352 0.239788 0.503625 0.214168
H7    H     H_    0.456197 0.797983 0.601424 0.138269
H8    H     H_    0.534201 0.203057 0.507405 0.184377
H9    H     H_    0.503002 0.567656 0.258257 0.180033
H10   H     H_    0.438418 0.291179 0.698278 0.175991
N1    N     N_R   0.795440 0.560790 0.443380 -0.228774
N2    N     N_R   0.204560 0.439210 0.556620 -0.250149
O1    O     O_R   0.977900 0.338120 0.529810 -0.546524
O2    O     O_R   0.022100 0.661880 0.470190 -0.541337
O3    O     O_R   0.839850 0.379180 0.491620 -0.580347
O4    O     O_R   0.160150 0.620820 0.508380 -0.595274
O5    O     O_R   0.069010 0.479460 0.640020 -0.565055
O6    O     O_R   0.930990 0.520540 0.359980 -0.591008
O7    O     O_R   0.930960 0.520530 0.601820 -0.592349
O8    O     O_R   0.069040 0.479470 0.398180 -0.590295
N3    N     N_2   0.304785 0.575261 0.446662 -0.374296
H11   H     H_    0.242694 0.589940 0.419165 0.294799
C51   C     C_3   0.390586 0.661631 0.472343 -0.740419
H12   H     H_    0.387214 0.732895 0.430870 0.227558
H13   H     H_    0.462683 0.660177 0.463320 0.228152
H14   H     H_    0.390366 0.660549 0.542511 0.216750
N4    N     N_2   0.740161 0.525554 0.587530 -0.407260
H15   H     H_    0.768053 0.474305 0.625006 0.298729
C52   C     C_3   0.789154 0.625109 0.608453 -0.679975
H16   H     H_    0.796484 0.617875 0.680832 0.214914
H17   H     H_    0.743035 0.669711 0.577631 0.228749
H18   H     H_    0.865888 0.665564 0.584900 0.253797
O9    O     O_3   0.678811 0.655709 0.232534 -0.595679
C53   C     C_3   0.724827 0.636962 0.172595 0.070381
H19   H     H_    0.708923 0.555048 0.183294 0.161591
H20   H     H_    0.807880 0.682469 0.177649 0.143847
C54   C     C_3   0.683274 0.670045 0.079608 -0.789720
H21   H     H_    0.693126 0.750020 0.068530 0.251024
H22   H     H_    0.725011 0.664245 0.031539 0.208761
H23   H     H_    0.601497 0.621148 0.069137 0.238019
O10   O     O_3   0.276270 0.262888 0.736744 -0.587460
C55   C     C_3   0.186298 0.173701 0.736885 0.061928
H24   H     H_    0.159989 0.154207 0.670475 0.157527
H25   H     H_    0.125297 0.182478 0.761161 0.155229
C56   C     C_3   0.205562 0.085559 0.798788 -0.790441
H26   H     H_    0.229570 0.100821 0.866367 0.248363
H27   H     H_    0.135204 0.015157 0.800224 0.210765
H28   H     H_    0.265971 0.074634 0.775818 0.239436
O11   O     O_3   0.329664 0.488141 0.336782 -0.570895
C57   C     C_3   0.329529 0.558796 0.256992 0.061807
H29   H     H_    0.348365 0.536501 0.203354 0.131911
H30   H     H_    0.382744 0.637597 0.263114 0.155895
C58   C     C_3   0.224835 0.557416 0.230820 -0.802380
H31   H     H_    0.204934 0.588436 0.276997 0.243050
H32   H     H_    0.222595 0.605720 0.164739 0.178904
H33   H     H_    0.169734 0.478419 0.229992 0.251102
O12   O     O_3   0.597952 0.339135 0.605859 -0.604613
C59   C     C_3   0.604731 0.286173 0.693867 0.035987
H34   H     H_    0.535781 0.214688 0.705926 0.154478
H35   H     H_    0.616515 0.334635 0.741005 0.146309
C60   C     C_3   0.693560 0.255164 0.710712 -0.806525
H36   H     H_    0.764856 0.320735 0.691937 0.238812
H37   H     H_    0.703809 0.222369 0.781730 0.197022
H38   H     H_    0.677919 0.196662 0.673000 0.257429
N5    N     N_2   0.008165 0.310411 0.108478 -0.423252
H39   H     H_    0.062453 0.328159 0.160484 0.235260
C61   C     C_3   0.016260 0.241492 0.064389 -0.655235
H40   H     H_    0.014662 0.172208 0.112987 0.211917
H41   H     H_    0.088542 0.277440 0.033231 0.247003
H42   H     H_    0.951596 0.218658 0.013595 0.233966
N6    N     N_2   0.949374 0.642638 0.893411 -0.408203
H43   H     H_    0.889434 0.621596 0.846172 0.240013
C62   C     C_3   0.947965 0.715191 0.937243 -0.656832
H44   H     H_    0.939638 0.779729 0.887338 0.216345
H45   H     H_    0.019954 0.745026 0.979107 0.227081
H46   H     H_    0.883325 0.679599 0.978387 0.242755
O13   O     O_3   0.802668 0.476438 0.031709 -0.578821
C63   C     C_3   0.721774 0.430524 0.971464 0.065338
H47   H     H_    0.696278 0.346836 0.990180 0.150445
H48   H     H_    0.743315 0.457364 0.902573 0.129088
C64   C     C_3   0.633159 0.456040 0.974090 -0.802538
H49   H     H_    0.652956 0.537825 0.946789 0.237968
H50   H     H_    0.566148 0.411999 0.933484 0.208820
H51   H     H_    0.613679 0.437134 0.042786 0.255752
O14   O     O_3   0.154877 0.479338 0.963618 -0.564596
C65   C     C_3   0.234565 0.504065 0.030435 0.051227
H52   H     H_    0.211060 0.454307 0.095122 0.147246
H53   H     H_    0.261245 0.584858 0.033946 0.146345
C66   C     C_3   0.322647 0.488808 0.009273 -0.778507
H54   H     H_    0.348891 0.537826 0.945057 0.256642
H55   H     H_    0.386459 0.508832 0.061260 0.188053
H56   H     H_    0.298659 0.408398 0.006040 0.247661
N7    N     N_2   0.642609 0.821780 0.620183 -0.405060
H57   H     H_    0.591727 0.750425 0.611464 0.235731
C67   C     C_3   0.685757 0.822400 0.710438 -0.616168
H58   H     H_    0.716892 0.763558 0.733328 0.217866
H59   H     H_    0.626577 0.805732 0.753320 0.203239
H60   H     H_    0.748395 0.897032 0.716132 0.243069
N8    N     N_2   0.345864 0.173304 0.473083 -0.391165
H61   H     H_    0.398188 0.247311 0.460210 0.248464
C68   C     C_3   0.283193 0.154207 0.541240 -0.592950
H62   H     H_    0.253686 0.213750 0.527135 0.214619
H63   H     H_    0.327954 0.154138 0.606394 0.211197
H64   H     H_    0.217321 0.080132 0.543875 0.245162
O15   O     O_3   0.061035 0.852334 0.385552 -0.543141
C69   C     C_3   0.057950 0.831944 0.302412 0.086610
H65   H     H_    0.032314 0.749288 0.308009 0.147686
H66   H     H_    0.132441 0.870335 0.273936 0.088293
C70   C     C_3   0.982566 0.866688 0.238108 -0.804262
H67   H     H_    0.007464 0.949677 0.229895 0.253099
H68   H     H_    0.977360 0.848837 0.173138 0.191290
H69   H     H_    0.906556 0.827683 0.263024 0.251821
O16   O     O_3   0.944587 0.152951 0.512839 -0.550728
C71   C     C_3   0.959703 0.188168 0.422263 0.089598
H70   H     H_    0.936359 0.251991 0.391841 0.129317
H71   H     H_    0.916470 0.126269 0.385463 0.130645
C72   C     C_3   0.071391 0.225926 0.411205 -0.714001
H72   H     H_    0.094783 0.161558 0.431656 0.266100
H73   H     H_    0.084863 0.261113 0.341168 0.198029
H74   H     H_    0.117477 0.283559 0.451724 0.256613
O17   O     O_3   0.813964 0.954099 0.547626 -0.533739
C73   C     C_3   0.786863 0.918165 0.468138 0.058990
H75   H     H_    0.773715 0.973200 0.409229 0.096668
H76   H     H_    0.716395 0.847768 0.474097 0.161379
C74   C     C_3   0.870960 0.893371 0.451529 -0.677569
H77   H     H_    0.886763 0.839166 0.508990 0.248920
H78   H     H_    0.847807 0.858981 0.392521 0.205957
H79   H     H_    0.941306 0.963339 0.440483 0.265394
O18   O     O_3   0.188662 0.049423 0.384030 -0.543692
C75   C     C_3   0.230977 0.095918 0.302484 0.106559
H80   H     H_    0.198139 0.042909 0.256494 0.127757
H81   H     H_    0.314843 0.121899 0.309672 0.133874
C76   C     C_3   0.206491 0.187920 0.261584 -0.796620
H82   H     H_    0.242128 0.244644 0.304313 0.271314
H83   H     H_    0.235914 0.223091 0.195936 0.197014
H84   H     H_    0.123240 0.164757 0.253741 0.244298

loop_
_geom_bond_atom_site_label_1
_geom_bond_atom_site_label_2
_ccdc_geom_bond_type
C69   H66   S    
C20   O10   S    
O10   C55   S    
C59   H35   S    
C27   C29   A    
C24   C42   S    
N3    H11   S    
C23   O5    A    
C58   H31   S    
C17   N7    S    
C67   H58   S    
C3    C11   A    
C6    O15   S    
C56   H26   S    
C24   O6    A    
N6    H43   S    
C20   C30   A    
O17   C73   S    
C40   C46   S    
C58   H32   S    
O16   C71   S    
C33   O11   S    
C19   C21   A    
O13   C63   S    
C2    O4    A    
C66   H55   S    
C25   N1    A    
C57   H30   S    
C53   H20   S    
C76   H83   S    
C26   N3    S    
C57   C58   S    
C7    C9    A    
Cu1   O1    S    
C26   N2    A    
C75   H80   S    
C38   C45   S    
C9    C13   A    
C2    C50   S    
C69   C70   S    
C70   H68   S    
C73   H75   S    
C3    O17   S    
C40   C43   S    
C74   H78   S    
C64   H51   S    
C1    O1    A    
N8    H61   S    
C5    O16   S    
C4    O18   S    
C4    C12   A    
O12   C59   S    
C7    H6    S    
C38   N6    S    
Cu2   N1    S    
C39   C45   S    
C60   H38   S    
C45   C47   S    
C62   H44   S    
C13   C14   A    
C71   H71   S    
N3    C51   S    
C5    C49   A    
C55   H24   S    
C36   H10   S    
C70   H69   S    
C52   H17   S    
C44   C46   S    
N7    H57   S    
C75   H81   S    
C61   H41   S    
C37   C39   S    
C58   H33   S    
C46   C48   S    
N7    C67   S    
C27   C31   A    
Cu1   Cu2   S    
O11   C57   S    
C23   O7    A    
C28   C32   A    
C67   H60   S    
Cu2   O6    S    
C7    C49   A    
C4    C6    A    
C10   C14   A    
C66   H56   S    
C54   H21   S    
N4    C52   S    
C53   H19   S    
C76   H84   S    
C55   C56   S    
C19   O9    S    
C44   O13   S    
O18   C75   S    
C53   C54   S    
C52   H16   S    
C1    O3    A    
C59   H34   S    
O15   C69   S    
C54   H23   S    
C75   C76   S    
C69   H65   S    
C37   C43   S    
C63   H48   S    
C51   H12   S    
C38   C44   S    
C8    H5    S    
C62   H46   S    
C64   H49   S    
C9    C11   A    
C31   C32   A    
C73   C74   S    
C74   H79   S    
C3    C5    A    
C41   C47   T    
C31   C34   A    
C35   H9    S    
C72   H72   S    
C42   C48   T    
C6    C50   A    
C68   H64   S    
C55   H25   S    
C51   H13   S    
C59   C60   S    
O9    C53   S    
C22   H3    S    
Cu2   O3    S    
C10   C12   A    
C16   H8    S    
C16   C18   A    
C20   C22   A    
C74   H77   S    
C40   H2    S    
C71   H70   S    
C72   H74   S    
C63   C64   S    
C68   H63   S    
Cu1   O8    S    
C18   N8    S    
C19   C29   A    
C8    C50   A    
C52   H18   S    
Cu2   O2    S    
C24   O8    A    
C62   H45   S    
C60   H36   S    
C72   H73   S    
C61   H42   S    
C15   C17   A    
C11   C17   A    
C56   H27   S    
C56   H28   S    
C67   H59   S    
C25   N4    S    
C15   H7    S    
Cu1   N2    S    
C2    O2    A    
C65   C66   S    
C21   H4    S    
C61   H40   S    
C39   C44   S    
C65   H53   S    
C25   C27   A    
O14   C65   S    
C29   C35   A    
C26   C28   A    
C23   C41   S    
C30   C36   A    
C32   C33   A    
N5    C61   S    
C63   H47   S    
C37   C46   S    
C43   C45   S    
Cu2   O7    S    
C70   H67   S    
N5    H39   S    
C38   C40   S    
C76   H82   S    
C39   H1    S    
C28   C30   A    
C33   C35   A    
C43   O14   S    
C34   C36   A    
Cu1   O4    S    
N8    C68   S    
C57   H29   S    
C51   H14   S    
C73   H76   S    
C21   N1    A    
N6    C62   S    
C65   H52   S    
C22   N2    A    
N4    H15   S    
C37   N5    S    
C71   C72   S    
C8    C10   A    
C54   H22   S    
C13   C16   A    
C12   C18   A    
C64   H50   S    
C34   O12   S    
C14   C15   A    
Cu1   O5    S    
C68   H62   S    
C66   H54   S    
C1    C49   S    
C60   H37   S    
