data_mof_unit_51146.cif
_audit_creation_date              2012-12-10T18:15:24-0500
_audit_creation_method            fapswitch 2.2
_symmetry_space_group_name_H-M    P1
_symmetry_Int_Tables_number       1
_space_group_crystal_system       triclinic
_cell_length_a                    12.709186
_cell_length_b                    13.138568
_cell_length_c                    23.371996
_cell_angle_alpha                 91.715115
_cell_angle_beta                  103.18688
_cell_angle_gamma                 81.299063
_cell_volume                      3755.98649304

loop_
_atom_site_label
_atom_site_type_symbol
_atom_type_description
_atom_site_fract_x
_atom_site_fract_y
_atom_site_fract_z
_atom_type_partial_charge
C1    C     C_R   0.438295 0.691296 0.491064 0.818071
C2    C     C_R   0.496663 0.400361 0.877981 0.514327
C3    C     C_R   0.429724 0.507045 0.759940 -0.158626
C4    C     C_R   0.501625 0.499892 0.610730 0.857942
C5    C     C_R   0.415633 0.509736 0.699117 -0.000333
C6    C     C_R   0.508930 0.495244 0.674386 -0.088206
C7    C     C_R   0.613684 0.476154 0.711910 -0.231199
C8    C     C_R   0.626051 0.469844 0.772342 -0.081836
C9    C     C_R   0.534069 0.484850 0.796398 0.290718
C10   C     C_R   0.443487 0.542524 0.229213 -0.110743
C11   C     C_R   0.435935 0.549881 0.287312 -0.172106
C12   C     C_R   0.649493 0.606158 0.054687 -0.142766
C13   C     C_R   0.502744 0.479905 0.328631 -0.075255
C14   C     C_R   0.574722 0.397539 0.311561 -0.126288
C15   C     C_R   0.590382 0.396504 0.253453 0.021248
C16   C     C_R   0.562125 0.308092 0.507725 0.840964
C17   C     C_R   0.521204 0.468181 0.212290 0.257780
C18   C     C_R   0.711295 0.050025 0.474981 -0.084592
C19   C     C_R   0.599961 0.196347 0.507736 -0.174891
C20   C     C_R   0.300157 0.841155 0.498744 -0.157561
C21   C     C_R   0.270458 0.946357 0.503421 -0.105199
C22   C     C_R   0.342582 0.012578 0.497390 -0.120543
C23   C     C_R   0.652566 0.607791 0.995501 -0.144707
C24   C     C_R   0.444007 0.974068 0.483306 0.105723
C25   C     C_R   0.462901 0.869714 0.466686 -0.007750
C26   C     C_R   0.528120 0.034702 0.486290 0.098443
C27   C     C_R   0.624204 0.993577 0.467767 0.069675
C28   C     C_R   0.499759 0.496038 0.389996 0.822333
C29   C     C_R   0.631696 0.897275 0.441274 -0.168485
C30   C     C_R   0.548603 0.837229 0.437273 -0.042498
C31   C     C_R   0.520462 0.134418 0.508533 -0.196681
C32   C     C_R   0.701910 0.150815 0.496807 -0.010814
C33   C     C_R   0.397449 0.801526 0.482140 -0.132082
C34   C     C_R   0.600125 0.538848 0.955905 -0.017858
C35   C     C_R   0.090280 0.337655 0.423295 -0.218816
C36   C     C_R   0.804910 0.626900 0.572817 0.109693
C37   C     C_R   0.914269 0.637017 0.594623 -0.191619
C38   C     C_R   0.993147 0.581544 0.569977 -0.151237
C39   C     C_R   0.963819 0.521970 0.519707 0.062645
C40   C     C_R   0.476819 0.399262 0.114772 0.595062
C41   C     C_R   0.854314 0.502388 0.503471 0.205335
C42   C     C_R   0.041164 0.475000 0.488070 0.011693
C43   C     C_R   0.012467 0.394641 0.448975 0.097248
C44   C     C_R   0.905932 0.372072 0.435551 -0.181601
C45   C     C_R   0.545636 0.466674 0.976382 -0.017021
C46   C     C_R   0.827619 0.426857 0.461722 -0.177884
C47   C     C_R   0.145474 0.505210 0.492793 0.114770
C48   C     C_R   0.196409 0.361196 0.435236 0.081951
C49   C     C_R   0.586362 0.534754 0.134058 0.533400
C50   C     C_R   0.593093 0.536181 0.075199 -0.018971
C51   C     C_R   0.541146 0.466009 0.035933 -0.015278
C52   C     C_R   0.483316 0.396154 0.055880 -0.021870
C53   C     C_2   0.623491 0.309681 0.353185 0.356793
C54   C     C_2   0.683936 0.327620 0.237661 0.527551
C55   C     C_2   0.800484 0.202616 0.510683 0.388937
C56   C     C_R   0.494119 0.396184 0.937267 -0.021645
C57   C     C_2   0.544834 0.748866 0.396191 0.529546
C58   C     C_2   0.276214 0.297037 0.406891 0.429585
C59   C     C_2   0.167243 0.608391 0.513141 0.401892
C60   C     C_2   0.724064 0.694412 0.599144 0.418800
C61   C     C_2   0.302346 0.527389 0.664166 0.376856
C62   C     C_R   0.439205 0.325062 0.957916 -0.144286
C63   C     C_R   0.433234 0.325501 0.016650 -0.140038
C64   C     C_R   0.597917 0.541921 0.895833 0.510184
H1    H     H_    0.690228 0.660632 0.084101 0.199515
H2    H     H_    0.882895 0.311756 0.404614 0.188906
H3    H     H_    0.068205 0.274904 0.393931 0.198852
H4    H     H_    0.076767 0.585375 0.591664 0.158105
H5    H     H_    0.939159 0.686685 0.631551 0.192244
H6    H     H_    0.748225 0.405077 0.451030 0.189172
H7    H     H_    0.399110 0.270078 0.928610 0.197212
H8    H     H_    0.389031 0.270648 0.031124 0.197643
H9    H     H_    0.359003 0.518991 0.779319 0.146216
H10   H     H_    0.686595 0.463824 0.694489 0.173096
H11   H     H_    0.707030 0.452234 0.800442 0.159304
H12   H     H_    0.378697 0.610982 0.300237 0.146231
H13   H     H_    0.391138 0.596976 0.197272 0.149972
H14   H     H_    0.617675 0.315591 0.398562 0.058117
H15   H     H_    0.756801 0.302473 0.271328 0.095968
H16   H     H_    0.805081 0.267835 0.540060 0.102860
H17   H     H_    0.470364 0.715197 0.382566 0.007314
H18   H     H_    0.345326 0.326198 0.398018 0.131272
H19   H     H_    0.239968 0.617919 0.546111 0.089109
H20   H     H_    0.645814 0.674862 0.599954 0.134672
H21   H     H_    0.251535 0.600758 0.666853 0.028097
H22   H     H_    0.700970 0.870443 0.422118 0.198398
H23   H     H_    0.786853 0.014881 0.463818 0.189001
H24   H     H_    0.450687 0.167866 0.525095 0.165077
H25   H     H_    0.249292 0.790946 0.510784 0.194267
H26   H     H_    0.316122 0.093114 0.503739 0.156351
H27   H     H_    0.194285 0.976287 0.515420 0.175539
H28   H     H_    0.695340 0.663680 0.980833 0.197862
N1    N     N_R   0.528956 0.467006 0.152364 -0.344096
N2    N     N_R   0.545262 0.474283 0.858257 -0.353640
N3    N     N_R   0.222200 0.444670 0.469780 -0.178466
N4    N     N_R   0.776960 0.554790 0.529910 -0.167991
O1    O     O_R   0.366740 0.627150 0.485570 -0.623497
O2    O     O_R   0.410990 0.482290 0.406510 -0.640552
O3    O     O_R   0.589070 0.517660 0.425810 -0.599634
O4    O     O_2   0.419648 0.334901 0.134649 -0.525635
O5    O     O_2   0.664169 0.226964 0.336846 -0.552926
O6    O     O_2   0.681956 0.298709 0.187381 -0.551902
O7    O     O_2   0.880764 0.169747 0.491519 -0.566153
O8    O     O_2   0.623602 0.714261 0.376129 -0.540500
O9    O     O_2   0.264211 0.208948 0.391736 -0.580798
O10   O     O_2   0.101515 0.684017 0.493879 -0.583986
O11   O     O_2   0.745567 0.776035 0.621759 -0.574002
O12   O     O_2   0.636342 0.600370 0.172750 -0.532652
O13   O     O_2   0.263035 0.457706 0.635322 -0.549203
O14   O     O_2   0.645551 0.613342 0.874888 -0.549653
O15   O     O_2   0.450016 0.331794 0.840051 -0.537917
O16   O     O_R   0.544830 0.662520 0.504870 -0.631782
O17   O     O_R   0.410930 0.482340 0.574190 -0.578815
O18   O     O_R   0.589010 0.517710 0.593490 -0.656210
O19   O     O_R   0.455170 0.337480 0.495130 -0.623571
O20   O     O_R   0.633260 0.372850 0.514430 -0.659894
Zn1   Zn    Zn3+2 0.381090 0.476380 0.487110 0.955904
Zn2   Zn    Zn3+2 0.618910 0.523620 0.512890 0.929322

loop_
_geom_bond_atom_site_label_1
_geom_bond_atom_site_label_2
_ccdc_geom_bond_type
C48   N3    A    
C37   H5    S    
C27   C29   A    
C11   C13   A    
C44   H2    S    
C40   N1    A    
C19   C31   A    
C1    C33   S    
C7    C8    A    
C39   C41   A    
N3    Zn1   S    
C12   C23   A    
C26   C27   A    
C62   C63   A    
N4    Zn2   S    
C36   C37   A    
C37   C38   A    
C59   H19   S    
C11   H12   S    
C58   H18   S    
C1    O16   A    
C38   C39   A    
C41   N4    A    
C45   C51   A    
C10   C17   A    
C30   C57   S    
C55   O7    D    
C20   H25   S    
C45   C56   A    
C53   O5    D    
C8    C9    A    
O19   Zn1   S    
C41   C46   A    
C13   C28   S    
C39   C42   A    
C35   C43   A    
C32   C55   S    
C61   O13   D    
C26   C31   A    
C21   C22   A    
C19   C32   A    
C16   O20   A    
C10   H13   S    
C44   C46   A    
C49   O12   S    
C2    O15   S    
C59   O10   D    
C51   C52   A    
C15   C54   S    
C4    O17   A    
C2    N2    A    
C24   C25   A    
C4    C6    S    
C1    O1    A    
C36   C60   S    
C40   C52   A    
C8    H11   S    
C43   C44   A    
C29   C30   A    
C3    C9    A    
C36   N4    A    
C64   O14   S    
C35   H3    S    
C23   C34   A    
C34   C64   A    
C50   C51   A    
C22   H26   S    
C5    C61   S    
C34   C45   A    
C63   H8    S    
C29   H22   S    
O18   Zn2   S    
C60   O11   D    
C61   H21   S    
O17   Zn1   S    
C20   C33   A    
C28   O3    A    
C38   H4    S    
C56   C62   A    
C17   N1    S    
C42   C43   A    
C16   O19   A    
O2    Zn1   S    
C54   H15   S    
C21   H27   S    
C28   O2    A    
C25   C30   A    
C15   C17   A    
C57   O8    D    
C31   H24   S    
C14   C15   A    
C54   O6    D    
C18   C27   A    
C24   C26   A    
C3    C5    A    
C52   C63   A    
C40   O4    S    
C12   C50   A    
C48   C58   S    
C6    C7    A    
C12   H1    S    
C18   H23   S    
C58   O9    D    
C53   H14   S    
C64   N2    A    
C2    C56   A    
C7    H10   S    
O3    Zn2   S    
O16   Zn2   S    
C55   H16   S    
C60   H20   S    
C5    C6    A    
C16   C19   S    
O20   Zn2   S    
C62   H7    S    
C22   C24   A    
C42   C47   A    
O1    Zn1   S    
C3    H9    S    
C57   H17   S    
C46   H6    S    
C35   C48   A    
C10   C11   A    
C4    O18   A    
C47   C59   S    
C14   C53   S    
C18   C32   A    
C20   C21   A    
C49   C50   A    
C47   N3    A    
C23   H28   S    
C49   N1    A    
C13   C14   A    
C9    N2    S    
C25   C33   A    
