data_mof_unit_25040.cif
_audit_creation_date              2012-10-26T19:56:43-0400
_audit_creation_method            fapswitch 2.2
_symmetry_space_group_name_H-M    P1
_symmetry_Int_Tables_number       1
_space_group_crystal_system       triclinic
_cell_length_a                    15.444131
_cell_length_b                    15.474352
_cell_length_c                    9.920491
_cell_angle_alpha                 91.115098
_cell_angle_beta                  60.715015
_cell_angle_gamma                 91.13052
_cell_volume                      2067.34006104

loop_
_atom_site_label
_atom_site_type_symbol
_atom_type_description
_atom_site_fract_x
_atom_site_fract_y
_atom_site_fract_z
_atom_type_partial_charge
C1    C     C_R   0.371946 0.117224 0.561715 0.579640
C2    C     C_2   0.490278 0.013630 0.080543 0.503649
C3    C     C_2   0.014176 0.511592 0.912714 0.464055
C4    C     C_2   0.990281 0.513625 0.080535 0.503473
C5    C     C_2   0.288298 0.822396 0.591148 -0.135651
C6    C     C_2   0.684004 0.200286 0.424422 -0.098293
C7    C     C_2   0.700172 0.815079 0.411720 -0.119741
C8    C     C_2   0.288152 0.171597 0.600136 -0.089051
C9    C     C_2   0.788354 0.322339 0.591052 -0.135727
C10   C     C_2   0.184059 0.700227 0.424357 -0.097934
C11   C     C_2   0.200169 0.315077 0.411715 -0.119797
C12   C     C_R   0.625395 0.879821 0.440277 0.566836
C13   C     C_2   0.788145 0.671590 0.600137 -0.088991
C14   C     C_2   0.232786 0.827731 0.520276 -0.009034
C15   C     C_2   0.661497 0.257809 0.541762 0.041787
C16   C     C_2   0.699167 0.773245 0.531183 -0.064829
C17   C     C_2   0.293175 0.240798 0.516462 -0.070888
C18   C     C_2   0.732656 0.327808 0.520496 -0.008866
C19   C     C_2   0.161583 0.757768 0.541645 0.041475
C20   C     C_2   0.199172 0.273246 0.531176 -0.064869
C21   C     C_2   0.793167 0.740801 0.516486 -0.070851
C22   C     C_3   0.721309 0.005007 0.013922 -0.029414
C23   C     C_R   0.623093 0.122628 0.443185 0.522593
C24   C     C_3   0.277799 0.993260 0.991732 0.021877
C25   C     C_3   0.221309 0.505003 0.013922 -0.029371
C26   C     C_3   0.777803 0.493324 0.991843 0.021592
C27   C     C_2   0.564073 0.259202 0.687202 0.301032
C28   C     C_2   0.231644 0.905805 0.436269 0.298033
C29   C     C_2   0.388769 0.288031 0.416987 0.215238
C30   C     C_2   0.604755 0.758604 0.679573 0.264629
C31   C     C_2   0.064165 0.759217 0.687094 0.300467
C32   C     C_2   0.731180 0.406086 0.437169 0.297696
C33   C     C_2   0.888755 0.788053 0.417057 0.215008
C34   C     C_R   0.368783 0.884135 0.561062 0.521331
C35   C     C_2   0.104765 0.258612 0.679576 0.264506
C36   C     C_3   0.381534 0.125428 0.168863 -0.102042
C37   C     C_3   0.678182 0.994022 0.721084 -0.040458
C38   C     C_3   0.881628 0.625482 0.168849 -0.101976
C39   C     C_3   0.178188 0.494013 0.721081 -0.040419
C40   C     C_R   0.871944 0.617223 0.561716 0.579651
C41   C     C_R   0.125394 0.379821 0.440277 0.566837
C42   C     C_R   0.123108 0.622610 0.443172 0.522557
C43   C     C_R   0.868796 0.384119 0.561046 0.521255
C44   C     C_2   0.514171 0.011605 0.912722 0.464027
Cu1   Cu    Cu3+1 0.522650 0.000000 0.349410 1.050402
Cu2   Cu    Cu3+1 0.477350 1.000000 0.650590 1.024249
Cu3   Cu    Cu3+1 0.022650 0.500000 0.349410 1.050251
Cu4   Cu    Cu3+1 0.977350 0.500000 0.650590 1.024293
H1    H     H_    0.751149 0.209233 0.314175 0.117269
H2    H     H_    0.716474 0.075638 0.999413 0.140792
H3    H     H_    0.790226 0.981419 0.912731 0.105447
H4    H     H_    0.251913 0.957375 0.920266 0.147455
H5    H     H_    0.287395 0.063094 0.962431 0.095918
H6    H     H_    0.217341 0.988880 0.113090 0.170026
H7    H     H_    0.230326 0.492851 0.115499 0.164340
H8    H     H_    0.216476 0.575634 0.999404 0.140824
H9    H     H_    0.290226 0.481411 0.912732 0.105562
H10   H     H_    0.752094 0.457740 0.919850 0.147444
H11   H     H_    0.787339 0.563268 0.963195 0.095883
H12   H     H_    0.276408 0.769185 0.668526 0.145496
H13   H     H_    0.717246 0.488567 0.113107 0.170240
H14   H     H_    0.499878 0.224924 0.695304 0.155098
H15   H     H_    0.264819 0.966180 0.446433 0.150235
H16   H     H_    0.390642 0.341505 0.346645 0.105147
H17   H     H_    0.605854 0.757276 0.788074 0.102140
H18   H     H_    0.999952 0.724942 0.695248 0.155212
H19   H     H_    0.764941 0.466263 0.446663 0.150445
H20   H     H_    0.890624 0.841542 0.346745 0.105082
H21   H     H_    0.105870 0.257293 0.788073 0.102133
H22   H     H_    0.307571 0.145201 0.262568 0.144600
H23   H     H_    0.217480 0.143910 0.684442 0.062134
H24   H     H_    0.381687 0.135160 0.058343 0.105598
H25   H     H_    0.438670 0.168588 0.172988 0.156179
H26   H     H_    0.659414 0.925158 0.755492 0.130508
H27   H     H_    0.744835 0.013001 0.729223 0.127155
H28   H     H_    0.702366 0.000213 0.596730 0.135823
H29   H     H_    0.807633 0.645263 0.262453 0.144718
H30   H     H_    0.881924 0.635285 0.058235 0.105555
H31   H     H_    0.938741 0.668591 0.173160 0.156312
H32   H     H_    0.159423 0.425148 0.755490 0.130488
H33   H     H_    0.244840 0.512995 0.729220 0.127245
H34   H     H_    0.764516 0.812830 0.296907 0.061452
H35   H     H_    0.202372 0.500203 0.596726 0.135847
H36   H     H_    0.251211 0.709130 0.314102 0.117683
H37   H     H_    0.776666 0.268981 0.668063 0.145283
H38   H     H_    0.717472 0.643889 0.684414 0.062219
H39   H     H_    0.264506 0.312820 0.296894 0.061474
H40   H     H_    0.730325 0.992850 0.115498 0.164333
N1    N     N_2   0.443290 0.000000 0.876860 -0.063192
N2    N     N_2   0.556710 0.000000 0.123140 -0.046148
N3    N     N_2   0.943290 0.500000 0.876860 -0.063058
N4    N     N_2   0.056710 0.500000 0.123140 -0.046155
O1    O     O_R   0.422430 0.089640 0.419570 -0.451458
O2    O     O_R   0.615830 0.910350 0.326090 -0.492130
O3    O     O_R   0.615830 0.089650 0.326090 -0.506062
O4    O     O_R   0.384170 0.910350 0.673910 -0.457885
O5    O     O_R   0.884170 0.589650 0.673910 -0.549188
O6    O     O_R   0.115830 0.410350 0.326090 -0.492138
O7    O     O_R   0.115830 0.589650 0.326090 -0.506050
O8    O     O_R   0.884170 0.410350 0.673910 -0.457809
O9    O     O_3   0.639750 0.959263 0.019693 -0.535096
O10   O     O_3   0.363228 0.954902 0.980495 -0.461137
O11   O     O_3   0.139749 0.459258 0.019702 -0.535120
O12   O     O_R   0.577570 0.910360 0.580430 -0.483399
O13   O     O_3   0.863231 0.454895 0.980479 -0.461659
O14   O     O_2   0.553908 0.301418 0.799212 -0.530645
O15   O     O_2   0.190056 0.903949 0.358607 -0.476743
O16   O     O_2   0.465521 0.270657 0.417093 -0.486247
O17   O     O_2   0.526252 0.745096 0.680513 -0.472291
O18   O     O_2   0.054021 0.801479 0.799048 -0.530830
O19   O     O_2   0.688589 0.404651 0.360929 -0.476899
O20   O     O_2   0.965505 0.770675 0.417165 -0.486487
O21   O     O_2   0.026258 0.245099 0.680529 -0.472470
O22   O     O_3   0.396106 0.038199 0.191893 -0.560598
O23   O     O_R   0.577570 0.089640 0.580430 -0.494418
O24   O     O_3   0.601526 0.053272 0.808735 -0.584068
O25   O     O_3   0.896116 0.538225 0.191862 -0.560781
O26   O     O_3   0.101529 0.553261 0.808729 -0.584066
O27   O     O_R   0.422430 0.910360 0.419570 -0.487028
O28   O     O_R   0.922430 0.589640 0.419570 -0.451501
O29   O     O_R   0.077570 0.410360 0.580430 -0.483374
O30   O     O_R   0.077570 0.589640 0.580430 -0.494395
O31   O     O_R   0.922430 0.410360 0.419570 -0.487213
O32   O     O_R   0.384170 0.089650 0.673910 -0.549291

loop_
_geom_bond_atom_site_label_1
_geom_bond_atom_site_label_2
_ccdc_geom_bond_type
C24   H4    S    
C31   H18   S    
C37   H26   S    
C16   C21   S    
C32   O19   D    
N1    O10   S    
C15   C18   S    
C1    C8    S    
C17   C29   S    
Cu3   N4    S    
N3    O13   S    
C25   H8    S    
C19   C31   S    
Cu2   N1    S    
Cu1   Cu2   S    
Cu4   O5    S    
Cu3   O6    S    
Cu2   O23   S    
C27   H14   S    
C26   H13   S    
C34   O4    A    
C12   O12   A    
Cu4   O30   S    
C21   C33   S    
C38   H31   S    
C28   O15   D    
C16   C30   S    
C17   C20   S    
Cu3   O7    S    
C3    N3    D    
C41   O29   A    
C2    N2    D    
C13   C40   S    
N4    O11   S    
C9    H37   S    
C6    C15   D    
C38   O25   S    
Cu3   O31   S    
C11   H39   S    
Cu4   N3    S    
C13   H38   S    
C29   O16   D    
C35   O21   D    
C22   H40   S    
C26   H11   S    
C22   H2    S    
Cu1   O27   S    
C37   H27   S    
C29   H16   S    
Cu1   O1    S    
C20   C35   S    
Cu2   O32   S    
C25   H9    S    
Cu1   O2    S    
C26   O13   S    
C36   H22   S    
C7    C12   S    
Cu4   O8    S    
C11   C20   D    
C9    C43   S    
C30   O17   D    
C2    O22   S    
C43   O8    A    
C39   H33   S    
C2    C44   S    
Cu4   O29   S    
C37   O24   S    
C25   O11   S    
C38   H30   S    
C27   O14   D    
C24   H5    S    
Cu2   O12   S    
N2    O9    S    
C3    O26   S    
C15   C27   S    
Cu3   Cu4   S    
C10   C19   D    
C5    C34   S    
C13   C21   D    
C33   O20   D    
Cu1   N2    S    
C26   H10   S    
C44   O24   S    
C5    C14   D    
C32   H19   S    
C7    C16   D    
C40   O28   A    
C37   H28   S    
C22   O9    S    
C4    O25   S    
C18   C32   S    
C3    C4    S    
Cu1   O3    S    
C43   O31   A    
C40   O5    A    
C42   O30   A    
C34   O27   A    
Cu3   O28   S    
C8    H23   S    
C5    H12   S    
C14   C19   S    
C25   H7    S    
C38   H29   S    
C39   O26   S    
C8    C17   D    
C14   C28   S    
C39   H32   S    
C1    O32   A    
C39   H35   S    
C42   O7    A    
C12   O2    A    
C6    C23   S    
C10   H36   S    
C31   O18   D    
C23   O3    A    
C36   O22   S    
C11   C41   S    
C24   O10   S    
C6    H1    S    
C30   H17   S    
C36   H25   S    
C23   O23   A    
C28   H15   S    
C9    C18   D    
C7    H34   S    
Cu2   O4    S    
C35   H21   S    
C1    O1    A    
C41   O6    A    
C10   C42   S    
C24   H6    S    
C44   N1    D    
C36   H24   S    
C33   H20   S    
C22   H3    S    
C4    N4    D    
