data_mof_unit_43810.cif
_audit_creation_date              2012-12-11T16:29:26-0500
_audit_creation_method            fapswitch 2.2
_symmetry_space_group_name_H-M    P1
_symmetry_Int_Tables_number       1
_space_group_crystal_system       triclinic
_cell_length_a                    6.954319
_cell_length_b                    17.348823
_cell_length_c                    18.735939
_cell_angle_alpha                 106.337342
_cell_angle_beta                  89.781597
_cell_angle_gamma                 90.538339
_cell_volume                      2169.10645549

loop_
_atom_site_label
_atom_site_type_symbol
_atom_type_description
_atom_site_fract_x
_atom_site_fract_y
_atom_site_fract_z
_atom_type_partial_charge
O1    O     O_R   0.494360 0.415680 0.413760 -0.538652
O2    O     O_R   0.818810 0.432910 0.557230 -0.505196
O3    O     O_R   0.994290 0.584320 0.586240 -0.521644
C1    C     C_R   0.649853 0.416034 0.580676 0.748465
O4    O     O_R   0.823740 0.406440 0.412520 -0.540698
O5    O     O_R   0.999250 0.557660 0.440500 -0.531419
C2    C     C_R   0.654711 0.383718 0.384843 0.673786
O6    O     O_R   0.489400 0.442340 0.559500 -0.506156
O7    O     O_3   0.662500 0.549650 0.509350 -0.368899
V1    V     V_3+5 0.935340 0.490790 0.498270 1.491294
O8    O     O_R   0.329270 0.567090 0.442770 -0.530709
C3    C     C_R   0.161121 0.584010 0.419360 0.687028
O9    O     O_R   0.324340 0.593560 0.587480 -0.528792
C4    C     C_R   0.155868 0.615444 0.615821 0.810640
V2    V     V_3+5 0.435970 0.509210 0.501730 1.477301
O10   O     O_3   0.158940 0.450350 0.490650 -0.346295
H1    H     H_    0.292573 0.866863 0.557375 0.114056
C5    C     C_R   0.082964 0.588531 0.765269 0.336629
C6    C     C_R   0.030422 0.578885 0.834301 -0.099476
C7    C     C_R   0.004658 0.644686 0.895424 -0.178727
C8    C     C_R   0.034079 0.721622 0.889163 -0.143936
C9    C     C_R   0.084912 0.734946 0.820409 0.035599
C10   C     C_R   0.104862 0.667553 0.755777 -0.005511
C11   C     C_R   0.119696 0.814380 0.816456 -0.160657
C12   C     C_R   0.168994 0.827713 0.747561 0.074996
C13   C     C_R   0.181041 0.761906 0.682219 0.054908
C14   C     C_R   0.148101 0.682073 0.685830 -0.186149
C15   C     C_R   0.203233 0.906465 0.742094 -0.145571
C16   C     C_R   0.248173 0.920044 0.674136 -0.120985
C17   C     C_R   0.258666 0.856000 0.610176 -0.112313
C18   C     C_R   0.225109 0.777896 0.613769 -0.139243
H2    H     H_    0.012659 0.519269 0.841161 0.175355
H3    H     H_    0.965561 0.635947 0.948618 0.152424
H4    H     H_    0.017043 0.770519 0.939312 0.113237
H5    H     H_    0.194541 0.958510 0.790056 0.101525
H6    H     H_    0.273908 0.980665 0.671051 0.116336
H7    H     H_    0.234075 0.730481 0.562133 0.086123
C19   C     C_1   0.111873 0.863921 0.132619 -0.216296
C20   C     C_1   0.119322 0.821329 0.176169 0.001630
C21   C     C_1   0.128600 0.771085 0.228044 0.003832
C22   C     C_1   0.136513 0.728776 0.271839 0.004058
C23   C     C_1   0.145791 0.678550 0.323729 0.000908
C24   C     C_1   0.153240 0.635985 0.367302 -0.212153
C25   C     C_1   0.641318 0.364230 0.632815 -0.137721
C26   C     C_1   0.637181 0.321732 0.676469 0.040587
C27   C     C_1   0.633848 0.271538 0.728406 0.022128
C28   C     C_1   0.631355 0.229202 0.772220 0.028909
C29   C     C_1   0.627989 0.178896 0.824062 0.039908
C30   C     C_1   0.623810 0.136219 0.867564 -0.179314
H8    H     H_    0.326076 0.153787 0.437129 0.115473
C31   C     C_R   0.814384 0.395376 0.245144 -0.218381
C32   C     C_R   0.892072 0.403133 0.178857 -0.158086
C33   C     C_R   0.880156 0.339639 0.114316 0.445521
C34   C     C_R   0.790455 0.267903 0.115789 -0.177062
C35   C     C_R   0.712929 0.257717 0.182594 0.009952
C36   C     C_R   0.724839 0.322871 0.248664 0.073689
C37   C     C_R   0.620717 0.184803 0.183898 -0.160349
C38   C     C_R   0.539919 0.177203 0.251306 0.068936
C39   C     C_R   0.551778 0.242374 0.317383 0.066558
C40   C     C_R   0.644038 0.315282 0.316090 -0.161793
C41   C     C_R   0.450477 0.104652 0.254815 -0.144568
C42   C     C_R   0.372963 0.096896 0.321126 -0.122088
C43   C     C_R   0.384901 0.160378 0.385565 -0.119315
C44   C     C_R   0.474213 0.232137 0.384167 -0.134245
H9    H     H_    0.824251 0.447238 0.293215 0.130273
H10   H     H_    0.960342 0.459122 0.177680 0.155772
H11   H     H_    0.781007 0.220935 0.063843 0.139639
H12   H     H_    0.440652 0.052776 0.206758 0.107826
H13   H     H_    0.304775 0.041011 0.322622 0.116648
H14   H     H_    0.483114 0.278913 0.436254 0.101015
O11   O     O_R   0.775690 0.057750 0.940570 -0.521840
O12   O     O_R   0.441200 0.093570 0.087490 -0.532094
O13   O     O_R   0.265840 0.942320 0.059480 -0.525761
C45   C     C_R   0.610177 0.116331 0.115183 0.696183
O14   O     O_R   0.446270 0.067110 0.942790 -0.523401
O15   O     O_R   0.270950 0.915660 0.913750 -0.533407
C46   C     C_R   0.615244 0.084154 0.919481 0.716445
O16   O     O_R   0.770580 0.084400 0.086300 -0.535257
O17   O     O_3   0.602640 0.950400 0.990690 -0.361872
V3    V     V_3+5 0.329740 0.009200 0.001730 1.446853
O18   O     O_R   0.940900 0.906360 0.912450 -0.536906
C47   C     C_R   0.109697 0.883579 0.884827 0.690776
O19   O     O_R   0.935830 0.932820 0.057160 -0.526715
C48   C     C_R   0.103980 0.915931 0.080593 0.705234
V4    V     V_3+5 0.829130 0.990680 0.998180 1.432454
O20   O     O_3   0.106100 0.049590 0.009310 -0.353085
Cl1   Cl    Cl    0.976018 0.350155 0.030739 -0.633214
Cl2   Cl    Cl    0.132034 0.497110 0.697428 -0.674957

loop_
_geom_bond_atom_site_label_1
_geom_bond_atom_site_label_2
_ccdc_geom_bond_type
C35   C36   A    
H8    C43   S    
C22   C23   S    
C6    C7    A    
O11   C46   A    
C1    O6    A    
O18   C47   A    
C33   C34   A    
C25   C26   T    
C12   C15   A    
C16   H6    S    
C39   C44   A    
C16   C17   A    
C15   C16   A    
C5    C6    A    
C3    C24   S    
O5    C3    A    
C17   C18   A    
V2    O10   S    
C31   C36   A    
C31   H9    S    
C11   C47   S    
V3    O20   S    
C27   C28   T    
O8    V2    S    
O19   C48   A    
C15   H5    S    
O1    V2    S    
C44   H14   S    
C4    C14   S    
O7    V1    S    
O13   C48   A    
C38   C41   A    
C39   C40   A    
O11   V4    S    
C8    C9    A    
H1    C17   S    
C6    H2    S    
C5    C10   A    
C11   C12   A    
O12   C45   A    
O15   C47   A    
C20   C21   S    
O4    C2    A    
C8    H4    S    
C1    C25   S    
C38   C39   A    
V4    O20   S    
C5    Cl2   S    
C31   C32   A    
C42   H13   S    
C18   H7    S    
C37   C45   S    
O2    C1    A    
C42   C43   A    
C28   C29   S    
C13   C14   A    
C33   Cl1   S    
O14   C46   A    
O3    C4    A    
C7    H3    S    
O16   V4    S    
C29   C30   T    
O19   V4    S    
O6    V2    S    
C10   C14   A    
O9    V2    S    
C9    C11   A    
O17   V3    S    
C23   C24   T    
O2    V1    S    
C2    C40   S    
O17   V4    S    
C32   H10   S    
C32   C33   A    
O14   V3    S    
C34   C35   A    
C21   C22   T    
C19   C48   S    
O1    C2    A    
O15   V3    S    
O5    V1    S    
O8    C3    A    
C34   H11   S    
C35   C37   A    
C12   C13   A    
O4    V1    S    
O12   V3    S    
O3    V1    S    
V1    O10   S    
C41   H12   S    
C37   C38   A    
C19   C20   T    
O13   V3    S    
C30   C46   S    
O7    V2    S    
C41   C42   A    
C43   C44   A    
C26   C27   S    
C13   C18   A    
C36   C40   A    
C7    C8    A    
C45   O16   A    
C9    C10   A    
O9    C4    A    
O18   V4    S    
