data_mof_unit_52643.cif
_audit_creation_date              2013-03-05T16:02:40-0500
_audit_creation_method            fapswitch 2.2
_symmetry_space_group_name_H-M    P1
_symmetry_Int_Tables_number       1
_space_group_crystal_system       triclinic
_cell_length_a                    6.953114
_cell_length_b                    17.191165
_cell_length_c                    18.931435
_cell_angle_alpha                 106.125278
_cell_angle_beta                  89.396189
_cell_angle_gamma                 90.256001
_cell_volume                      2173.76073547

loop_
_atom_site_label
_atom_site_type_symbol
_atom_site_description
_atom_site_fract_x
_atom_site_fract_y
_atom_site_fract_z
_atom_type_partial_charge
O1    O     O_R   0.494360 0.415680 0.413760 -0.576565
O2    O     O_R   0.818810 0.432910 0.557230 -0.553022
O3    O     O_R   0.994290 0.584320 0.586240 -0.608683
C1    C     C_R   0.650127 0.419060 0.583166 1.020774
O4    O     O_R   0.823740 0.406440 0.412520 -0.550549
O5    O     O_R   0.999250 0.557660 0.440500 -0.539074
C2    C     C_R   0.655547 0.381165 0.386207 1.064004
O6    O     O_R   0.489400 0.442340 0.559500 -0.567392
O7    O     O_3   0.662500 0.549650 0.509350 -0.273337
V1    V     V_3+5 0.935340 0.490790 0.498270 1.275826
O8    O     O_R   0.329270 0.567090 0.442770 -0.557006
C3    C     C_R   0.161306 0.584230 0.419547 0.975684
O9    O     O_R   0.324340 0.593560 0.587480 -0.600063
C4    C     C_R   0.154392 0.616733 0.614703 0.896974
V2    V     V_3+5 0.435970 0.509210 0.501730 1.247295
O10   O     O_3   0.158940 0.450350 0.490650 -0.240484
H1    H     H_    0.252124 0.871232 0.554491 0.169302
C5    C     C_R   0.054459 0.590204 0.753817 -0.370574
C6    C     C_R   0.024626 0.571721 0.820320 0.242347
C7    C     C_R   0.064721 0.630738 0.886377 0.227964
C8    C     C_R   0.121603 0.709042 0.884722 0.236451
C9    C     C_R   0.115500 0.732422 0.818117 -0.035432
C10   C     C_R   0.101966 0.669396 0.751329 0.060639
C11   C     C_R   0.126754 0.815118 0.815898 -0.246464
C12   C     C_R   0.150897 0.832490 0.746284 -0.022117
C13   C     C_R   0.168308 0.766226 0.680838 0.087684
C14   C     C_R   0.141184 0.685320 0.683301 -0.188986
C15   C     C_R   0.161047 0.913185 0.737965 0.366769
C16   C     C_R   0.199132 0.925291 0.669163 -0.115128
C17   C     C_R   0.223427 0.860528 0.607339 -0.144485
C18   C     C_R   0.206158 0.782067 0.612620 -0.174199
H2    H     H_    0.033737 0.542005 0.703856 0.183814
H3    H     H_    0.208232 0.986097 0.663219 0.182552
H4    H     H_    0.221295 0.733907 0.562097 0.102399
C19   C     C_1   0.111096 0.864999 0.133592 -0.174742
C20   C     C_1   0.119009 0.822030 0.176802 0.204376
C21   C     C_1   0.128691 0.771547 0.228450 0.104886
C22   C     C_1   0.136834 0.729162 0.272159 0.057759
C23   C     C_1   0.146284 0.678907 0.324011 0.122114
C24   C     C_1   0.153727 0.636323 0.367562 -0.188932
C25   C     C_1   0.641263 0.367791 0.635874 -0.146501
C26   C     C_1   0.636885 0.325011 0.679279 0.191305
C27   C     C_1   0.633589 0.274164 0.730639 0.101961
C28   C     C_1   0.631208 0.231182 0.773889 0.059977
C29   C     C_1   0.627966 0.180103 0.825063 0.119313
C30   C     C_1   0.623863 0.136869 0.868087 -0.222816
C31   C     C_R   0.574917 0.410360 0.243150 0.287104
C32   C     C_R   0.488544 0.423340 0.180939 -0.134076
C33   C     C_R   0.441910 0.358792 0.121415 -0.119216
C34   C     C_R   0.486602 0.280423 0.122022 -0.195340
C35   C     C_R   0.565323 0.264184 0.185058 0.099713
C36   C     C_R   0.597290 0.329625 0.249334 -0.033445
C37   C     C_R   0.617817 0.184384 0.183584 -0.181740
C38   C     C_R   0.681926 0.167614 0.248411 0.068482
C39   C     C_R   0.689101 0.230094 0.316304 -0.086883
C40   C     C_R   0.649169 0.312668 0.316698 -0.238168
C41   C     C_R   0.730417 0.087184 0.246696 -0.383954
C42   C     C_R   0.784306 0.066716 0.309253 0.397631
C43   C     C_R   0.784878 0.125374 0.376489 0.390654
C44   C     C_R   0.735000 0.206030 0.380891 0.154729
H5    H     H_    0.468329 0.484331 0.176739 0.178782
H6    H     H_    0.380117 0.369847 0.072844 0.172203
H7    H     H_    0.457943 0.232925 0.072308 0.125614
H8    H     H_    0.723438 0.037877 0.196872 0.188967
O11   O     O_R   0.775690 0.057750 0.940570 -0.543448
O12   O     O_R   0.441200 0.093570 0.087490 -0.602257
O13   O     O_R   0.265840 0.942320 0.059480 -0.553081
C45   C     C_R   0.609399 0.117710 0.113898 0.895753
O14   O     O_R   0.446270 0.067110 0.942790 -0.555480
O15   O     O_R   0.270950 0.915660 0.913750 -0.542469
C46   C     C_R   0.615287 0.084324 0.919606 0.966721
O16   O     O_R   0.770580 0.084400 0.086300 -0.599285
O17   O     O_3   0.602640 0.950400 0.990690 -0.240979
V3    V     V_3+5 0.329740 0.009200 0.001730 1.247026
O18   O     O_R   0.940900 0.906360 0.912450 -0.578175
C47   C     C_R   0.111263 0.882297 0.885523 1.130606
O19   O     O_R   0.935830 0.932820 0.057160 -0.576462
C48   C     C_R   0.103431 0.917261 0.081726 1.008436
V4    V     V_3+5 0.829130 0.990680 0.998180 1.242755
O20   O     O_3   0.106100 0.049590 0.009310 -0.259897
N1    N     N_R   0.666987 0.478532 0.292370 0.215327
O21   O     O_R   0.576450 0.547238 0.314401 -0.413662
O22   O     O_R   0.853458 0.478295 0.297214 -0.417046
Cl1   Cl    Cl    0.839049 0.964913 0.302183 -0.601062
N2    N     N_R   0.712067 0.259538 0.452511 0.217972
O23   O     O_R   0.539835 0.268732 0.481027 -0.408031
O24   O     O_R   0.860286 0.274279 0.495604 -0.355270
N3    N     N_R   0.959303 0.492051 0.819858 0.259877
O25   O     O_R   0.837455 0.482565 0.869472 -0.330521
O26   O     O_R   0.005448 0.429601 0.765614 -0.408293
N4    N     N_R   0.063129 0.609732 0.954756 0.290105
O27   O     O_R   0.153039 0.545488 0.960308 -0.309571
O28   O     O_R   0.978984 0.656736 0.012595 -0.328371
Cl2   Cl    Cl    0.257293 0.764230 0.960244 -0.620290
Cl3   Cl    Cl    0.119801 0.004255 0.807559 -0.674395
Cl4   Cl    Cl    0.835365 0.096022 0.456842 -0.453206

loop_
_geom_bond_atom_site_label_1
_geom_bond_atom_site_label_2
_geom_bond_distance
_ccdc_geom_bond_type
O12   C45   1.297168 A    
C39   C40   1.445616 A    
O11   V4    1.835183 S    
O17   V3    2.134814 S    
C6    C7    1.403922 A    
C1    O6    1.313003 A    
N1    O21   1.301079 A    
C41   C42   1.381582 A    
O19   C48   1.314986 A    
C12   C15   1.440300 A    
C13   C14   1.416239 A    
C21   C22   1.247049 T    
C15   Cl3   1.766200 S    
C8    C9    1.426906 A    
C15   C16   1.397423 A    
O16   V4    2.010750 S    
O5    C3    1.312349 A    
C17   C18   1.384546 A    
C1    C25   1.504338 S    
V2    O10   2.156713 S    
O12   V3    2.012138 S    
C16   H3    1.083491 S    
C5    C6    1.394702 A    
C25   C26   1.245782 T    
O14   C46   1.311282 A    
C37   C45   1.489534 S    
O8    V2    1.851317 S    
C19   C20   1.246930 T    
O15   V3    2.011923 S    
O1    V2    2.006946 S    
C10   C14   1.412684 A    
C4    C14   1.494352 S    
O7    V1    2.134875 S    
O19   V4    1.851360 S    
C43   C44   1.410427 A    
V3    O20   1.694202 S    
C39   C44   1.434730 A    
H1    C17   1.082778 S    
O13   C48   1.313224 A    
C2    C40   1.503409 S    
N1    O22   1.300858 A    
C34   H7    1.080670 S    
N2    O24   1.300938 A    
C7    N4    1.437218 S    
C5    C10   1.412808 A    
C11   C12   1.437955 A    
C6    N3    1.438792 S    
C23   C24   1.246961 T    
O4    C2    1.300805 A    
C11   C47   1.495081 S    
C42   C43   1.387138 A    
O11   C46   1.313282 A    
C35   C36   1.427861 A    
C35   C37   1.413857 A    
C3    C24   1.504803 S    
O2    C1    1.312906 A    
O18   C47   1.307162 A    
C16   C17   1.382627 A    
C42   Cl1   1.760808 S    
N4    O28   1.301345 A    
C31   C32   1.399871 A    
C45   O16   1.297720 A    
C34   C35   1.414871 A    
O17   V4    1.708819 S    
C18   H4    1.081738 S    
O14   V3    1.866397 S    
O13   V3    1.843375 S    
N3    O25   1.301411 A    
C30   C46   1.502818 S    
O3    C4    1.296300 A    
C32   C33   1.384270 A    
N3    O26   1.301462 A    
O6    V2    1.834775 S    
O9    V2    2.004095 S    
C27   C28   1.245938 T    
O15   C47   1.297648 A    
C9    C11   1.435649 A    
C5    H2    1.080920 S    
C43   Cl4   1.769488 S    
O2    V1    1.866318 S    
N4    O27   1.301402 A    
C28   C29   1.477178 S    
C41   H8    1.080284 S    
C38   C39   1.429055 A    
C20   C21   1.478855 S    
C33   H6    1.082768 S    
O1    C2    1.304578 A    
N2    O23   1.300471 A    
O5    V1    1.843547 S    
O8    C3    1.315252 A    
C37   C38   1.413223 A    
C31   C36   1.434166 A    
C19   C48   1.505235 S    
C12   C13   1.435793 A    
O4    V1    2.012230 S    
O3    V1    2.011947 S    
V1    O10   1.694252 S    
C32   H5    1.083191 S    
C22   C23   1.478920 S    
C31   N1    1.432067 S    
O7    V2    1.710067 S    
V4    O20   2.156695 S    
C29   C30   1.245888 T    
C8    Cl2   1.761065 S    
C13   C18   1.413826 A    
C7    C8    1.409933 A    
C33   C34   1.387151 A    
C26   C27   1.476979 S    
C9    C10   1.422002 A    
C44   N2    1.419116 S    
O9    C4    1.303064 A    
O18   V4    2.003981 S    
C36   C40   1.434791 A    
C38   C41   1.416183 A    
