data_mof_unit_59587.cif
_audit_creation_date              2013-03-05T15:56:13-0500
_audit_creation_method            fapswitch 2.2
_symmetry_space_group_name_H-M    P1
_symmetry_Int_Tables_number       1
_space_group_crystal_system       triclinic
_cell_length_a                    12.425899
_cell_length_b                    13.16859
_cell_length_c                    19.347957
_cell_angle_alpha                 75.103796
_cell_angle_beta                  101.500526
_cell_angle_gamma                 117.365972
_cell_volume                      2704.95045493

loop_
_atom_site_label
_atom_site_type_symbol
_atom_site_description
_atom_site_fract_x
_atom_site_fract_y
_atom_site_fract_z
_atom_type_partial_charge
O1    O     O_R   0.972510 0.318130 0.520450 -0.593755
O2    O     O_R   0.806530 0.359650 0.492990 -0.502614
C1    C     C_R   0.854610 0.285064 0.510770 0.968998
O3    O     O_R   0.083010 0.479220 0.613590 -0.524630
O4    O     O_R   0.917030 0.520740 0.586130 -0.533226
C2    C     C_R   0.998915 0.496982 0.632696 0.942797
Cu1   Cu    Cu3+1 0.098280 0.475420 0.516260 1.112046
Cu2   Cu    Cu3+1 0.901720 0.524580 0.483740 1.115605
O5    O     O_R   0.193470 0.640350 0.507010 -0.517826
O6    O     O_R   0.027490 0.681870 0.479550 -0.558595
O7    O     O_R   0.082970 0.479260 0.413870 -0.570259
O8    O     O_R   0.916990 0.520780 0.386410 -0.530258
C3    C     C_R   0.145047 0.714070 0.488866 0.891231
C4    C     C_R   0.998048 0.498587 0.367381 0.926933
C5    C     C_R   0.066378 0.440317 0.761825 0.620556
C6    C     C_R   0.061968 0.429540 0.835266 0.172016
C7    C     C_R   0.987271 0.467970 0.857129 -0.283723
C8    C     C_R   0.915296 0.512749 0.805274 0.682942
C9    C     C_R   0.919523 0.522087 0.732470 -0.241713
H1    H     H_    0.863890 0.557860 0.693692 0.236552
C10   C     C_R   0.995770 0.487394 0.709931 -0.298274
N1    N     N_R   0.882955 0.434490 0.961359 -0.090070
N2    N     N_R   0.884133 0.436294 0.029867 -0.089591
C11   C     C_R   0.990353 0.471221 0.072733 0.518322
N3    N     N_R   0.095564 0.503761 0.044520 -0.096377
N4    N     N_R   0.094471 0.501963 0.975955 -0.140366
C12   C     C_R   0.988131 0.467348 0.933206 0.518641
C13   C     C_R   0.081494 0.463911 0.200398 0.642996
C14   C     C_R   0.081389 0.470686 0.271012 -0.221637
H2    H     H_    0.152084 0.458539 0.310190 0.256534
C15   C     C_R   0.992258 0.492480 0.291061 -0.312042
C16   C     C_R   0.901221 0.507950 0.237395 0.261067
C17   C     C_R   0.902108 0.500299 0.166647 0.565511
C18   C     C_R   0.991411 0.478059 0.147677 -0.288691
C19   C     C_R   0.304919 0.997321 0.368622 0.723673
H3    H     H_    0.128088 0.855743 0.363898 0.248697
C20   C     C_R   0.227790 0.836451 0.467178 -0.247338
C21   C     C_R   0.798861 0.082895 0.582880 0.161391
C22   C     C_R   0.710121 0.969753 0.604995 0.170790
C23   C     C_R   0.592401 0.933753 0.570102 0.668374
C24   C     C_R   0.560611 0.009315 0.512106 -0.087488
C25   C     C_R   0.655422 0.116505 0.483950 -0.199048
C26   C     C_R   0.440182 0.977470 0.477174 -0.090143
C27   C     C_R   0.421249 0.040086 0.407367 -0.291242
C28   C     C_R   0.520142 0.139578 0.376749 0.270122
C29   C     C_R   0.635216 0.175953 0.414550 0.576805
C30   C     C_R   0.337389 0.884211 0.508903 0.731103
C31   C     C_R   0.211367 0.893981 0.397548 -0.263448
C32   C     C_R   0.770995 0.158737 0.523825 -0.191654
C33   C     C_R   0.317984 0.296248 0.602102 0.280269
H4    H     H_    0.151436 0.295330 0.617739 0.235009
N5    N     N_R   0.246290 0.438200 0.540910 -0.287941
C34   C     C_R   0.756481 0.647493 0.401958 0.464206
C35   C     C_R   0.648460 0.652390 0.368576 -0.251499
C36   C     C_R   0.540225 0.580331 0.399579 0.693717
C37   C     C_R   0.540671 0.512103 0.468834 -0.170902
C38   C     C_R   0.646993 0.492691 0.494521 -0.001650
C39   C     C_R   0.436974 0.457082 0.510708 -0.127536
C40   C     C_R   0.426444 0.360078 0.566702 -0.213797
C41   C     C_R   0.527280 0.334108 0.588731 0.240382
C42   C     C_R   0.634927 0.401057 0.555337 0.563164
C43   C     C_R   0.346922 0.499591 0.502304 0.558244
C44   C     C_R   0.232299 0.340525 0.589690 0.053973
N6    N     N_R   0.754310 0.561190 0.459520 -0.234781
H5    H     H_    0.648518 0.712569 0.318452 0.228428
F1    F     F_    0.135617 0.399521 0.741674 -0.555374
N7    N     N_R   0.505704 0.206039 0.307175 0.231269
O9    O     O_R   0.565355 0.216274 0.255708 -0.192415
O10   O     O_R   0.448828 0.270928 0.298647 -0.199436
F2    F     F_    0.283052 0.047955 0.300182 -0.544039
F3    F     F_    0.338791 0.842667 0.580842 -0.558502
N8    N     N_R   0.917612 0.119897 0.620483 0.152102
O11   O     O_R   0.936982 0.152765 0.681492 -0.252321
O12   O     O_R   0.998362 0.098658 0.600933 -0.279049
F4    F     F_    0.516658 0.818958 0.586750 -0.531218
N9    N     N_R   0.738166 0.890417 0.663858 0.198287
O13   O     O_R   0.839874 0.881688 0.669847 -0.209538
O14   O     O_R   0.658553 0.821065 0.709445 -0.169417
F5    F     F_    0.730171 0.263442 0.379768 -0.631419
N10   N     N_R   0.529952 0.250260 0.652643 0.199389
O15   O     O_R   0.555647 0.166098 0.649960 -0.247809
O16   O     O_R   0.529067 0.270361 0.714910 -0.227276
N11   N     N_R   0.287820 0.182348 0.645710 0.184454
O17   O     O_R   0.287643 0.100729 0.619370 -0.251955
O18   O     O_R   0.237623 0.154043 0.704960 -0.181790
N12   N     N_R   0.129492 0.375022 0.886929 0.198469
O19   O     O_R   0.077270 0.294233 0.940499 -0.241866
O20   O     O_R   0.239333 0.397552 0.876829 -0.156769
N13   N     N_R   0.372271 0.616103 0.464254 0.163932
O21   O     O_R   0.304265 0.635546 0.406911 -0.301085
O22   O     O_R   0.473366 0.702219 0.481353 -0.315906
N14   N     N_R   0.868843 0.737106 0.377316 0.130220
O23   O     O_R   0.924033 0.827050 0.408474 -0.316714
O24   O     O_R   0.894040 0.747568 0.313123 -0.299931
F6    F     F_    0.435020 0.570675 0.358868 -0.583881
F7    F     F_    0.724849 0.372027 0.588030 -0.630924
F8    F     F_    0.843690 0.551331 0.824924 -0.545929
F9    F     F_    0.168457 0.440834 0.184232 -0.538874
N15   N     N_R   0.807731 0.532621 0.252228 0.196767
O25   O     O_R   0.725660 0.454773 0.294086 -0.229886
O26   O     O_R   0.784821 0.615853 0.209448 -0.186653
F10   F     F_    0.814963 0.515571 0.116021 -0.523891

loop_
_geom_bond_atom_site_label_1
_geom_bond_atom_site_label_2
_geom_bond_distance
_ccdc_geom_bond_type
C39   C43   1.431227 A    
C36   C37   1.409026 A    
C24   C25   1.417356 A    
C9    H1    1.083312 S    
C4    C15   1.485093 S    
C1    C32   1.486713 S    
C42   F7    1.334656 S    
Cu1   Cu2   2.722476 S    
C35   H5    1.083119 S    
C34   C35   1.391201 A    
Cu1   O7    1.941729 S    
N4    C12   1.357280 A    
N11   O17   1.301515 A    
O4    C2    1.314191 A    
C33   C40   1.422188 A    
C13   C14   1.392121 A    
C9    C10   1.400583 A    
N9    O14   1.301474 A    
Cu1   N5    2.051579 S    
C29   F5    1.356718 S    
C34   N6    1.365910 A    
N12   O20   1.301292 A    
C5    C6    1.400871 A    
C43   N13   1.436207 S    
C37   C38   1.428677 A    
C8    C9    1.391609 A    
C25   C29   1.408793 A    
O5    C3    1.305866 A    
C15   C16   1.426189 A    
C19   F2    1.356830 S    
C6    C7    1.412457 A    
C28   N7    1.432663 S    
N2    C11   1.357566 A    
C8    F8    1.358007 S    
N13   O22   1.300384 A    
C3    C20   1.459939 S    
C13   C18   1.402454 A    
C40   C41   1.405208 A    
C6    N12   1.438388 S    
C33   C44   1.388537 A    
C24   C26   1.427406 A    
O3    Cu1   1.945346 S    
C19   C31   1.389231 A    
C33   N11   1.435507 S    
C7    C8    1.406070 A    
C21   N8    1.427335 S    
N7    O9    1.301005 A    
C7    C12   1.467776 S    
H4    C44   1.077002 S    
C11   N3    1.356468 A    
C36   F6    1.354105 S    
N8    O12   1.300706 A    
C22   C23   1.397671 A    
C21   C32   1.412910 A    
N12   O19   1.301440 A    
N10   O15   1.301711 A    
C39   C40   1.419131 A    
C28   C29   1.393689 A    
C2    C10   1.473854 S    
O6    C3    1.308027 A    
C11   C18   1.472850 S    
C17   F10   1.359577 S    
C41   C42   1.396960 A    
N7    O10   1.301179 A    
C26   C27   1.427765 A    
C14   H2    1.083130 S    
N15   O25   1.299298 A    
Cu2   O8    1.945346 S    
C34   N14   1.425031 S    
N14   O24   1.298849 A    
C17   C18   1.402974 A    
C22   N9    1.440366 S    
N9    O13   1.300838 A    
C20   C31   1.392232 A    
C19   C27   1.416036 A    
C30   F3    1.358123 S    
Cu2   N6    2.039746 S    
N10   O16   1.301341 A    
C23   C24   1.419793 A    
N11   O18   1.301468 A    
O8    C4    1.307385 A    
N1    C12   1.354532 A    
O3    C2    1.306330 A    
C20   C30   1.391814 A    
C27   C28   1.410179 A    
C38   N6    1.410915 A    
C13   F9    1.357733 S    
Cu1   O5    1.915993 S    
C35   C36   1.387384 A    
C41   N10   1.436909 S    
N15   O26   1.301513 A    
O1    Cu1   1.930652 S    
O2    Cu2   1.915992 S    
N8    O11   1.300849 A    
N5    C44   1.345773 A    
O4    Cu2   1.941731 S    
C23   F4    1.355467 S    
C38   C42   1.427279 A    
C16   N15   1.437107 S    
C16   C17   1.400684 A    
O2    C1    1.312920 A    
N3    N4    1.330118 A    
C14   C15   1.407208 A    
N5    C43   1.381205 A    
C5    F1    1.359110 S    
C21   C22   1.403149 A    
N14   O23   1.300806 A    
O7    C4    1.318352 A    
C37   C39   1.448386 A    
H3    C31   1.081260 S    
C25   C32   1.418246 A    
C5    C10   1.411003 A    
Cu2   O6    1.930652 S    
N1    N2    1.328849 A    
O1    C1    1.310343 A    
N13   O21   1.299840 A    
C26   C30   1.414031 A    
