data_mof_unit_21850.cif
_audit_creation_date              2012-12-10T20:32:51-0500
_audit_creation_method            fapswitch 2.2
_symmetry_space_group_name_H-M    P1
_symmetry_Int_Tables_number       1
_space_group_crystal_system       triclinic
_cell_length_a                    19.232238
_cell_length_b                    19.014334
_cell_length_c                    19.556859
_cell_angle_alpha                 111.171261
_cell_angle_beta                  111.702665
_cell_angle_gamma                 104.246892
_cell_volume                      5569.71466845

loop_
_atom_site_label
_atom_site_type_symbol
_atom_type_description
_atom_site_fract_x
_atom_site_fract_y
_atom_site_fract_z
_atom_type_partial_charge
C1    C     C_R   0.891269 0.390680 0.000434 0.881238
C2    C     C_R   0.910398 0.755138 0.092301 0.216602
C3    C     C_R   0.756091 0.578039 0.758610 0.408089
C4    C     C_R   0.684347 0.501679 0.691833 -0.252383
C5    C     C_R   0.670470 0.426955 0.696952 -0.053763
C6    C     C_R   0.738692 0.422272 0.751270 0.476244
C7    C     C_R   0.809094 0.498862 0.817776 -0.215851
C8    C     C_R   0.810407 0.576929 0.828659 -0.073592
C9    C     C_R   0.558270 0.361988 0.720430 0.333667
C10   C     C_R   0.480202 0.299976 0.692554 0.244904
C11   C     C_R   0.431851 0.233227 0.608078 0.236341
C12   C     C_R   0.878177 0.499084 0.881068 0.934019
C13   C     C_R   0.454331 0.236275 0.547389 0.221548
C14   C     C_R   0.531827 0.299092 0.574799 0.355170
C15   C     C_R   0.584554 0.362177 0.662078 -0.035426
C16   C     C_1   0.829978 0.330454 0.999380 -0.069778
C17   C     C_1   0.778184 0.279960 0.998708 0.139911
C18   C     C_1   0.718545 0.221136 0.998853 0.172989
C19   C     C_1   0.668257 0.170487 0.999583 0.014201
C20   C     C_R   0.960044 0.444129 0.234000 0.171810
C21   C     C_R   0.041386 0.490182 0.251156 0.273634
C22   C     C_R   0.085365 0.444824 0.227452 -0.173630
C23   C     C_R   0.108800 0.609318 0.999612 0.916127
C24   C     C_R   0.049136 0.357341 0.189149 -0.372082
C25   C     C_R   0.973390 0.313375 0.179183 0.424775
C26   C     C_R   0.929891 0.356500 0.204093 0.231133
C27   C     C_R   0.238184 0.489682 0.311846 0.470592
C28   C     C_R   0.314418 0.503480 0.313867 -0.252958
C29   C     C_R   0.326320 0.513610 0.249989 -0.100643
C30   C     C_R   0.258255 0.500504 0.178716 0.413978
C31   C     C_R   0.184328 0.493809 0.181105 -0.280852
C32   C     C_R   0.171820 0.483745 0.244144 -0.010659
C33   C     C_R   0.448302 0.620070 0.269262 0.378902
C34   C     C_R   0.119710 0.498551 0.118551 0.922042
C35   C     C_R   0.525631 0.646442 0.272928 0.177518
C36   C     C_R   0.564910 0.592210 0.265278 0.264475
C37   C     C_R   0.524246 0.510584 0.249100 0.363262
C38   C     C_R   0.447085 0.484524 0.246005 0.326200
C39   C     C_R   0.409965 0.540226 0.257753 -0.042254
C40   C     C_1   0.169359 0.669218 0.999532 0.003348
C41   C     C_1   0.220693 0.718617 0.998641 0.167792
C42   C     C_1   0.280731 0.776045 0.997506 0.201440
C43   C     C_1   0.331665 0.826575 0.997246 -0.007529
C44   C     C_R   0.505738 0.379576 0.384991 0.991798
C45   C     C_R   0.829588 0.688297 0.042319 0.198341
C46   C     C_R   0.620215 0.500699 0.621981 0.936832
C47   C     C_R   0.499875 0.620723 0.620242 1.019656
C48   C     C_R   0.379758 0.502208 0.380764 0.971761
C49   C     C_R   0.499319 0.880085 0.879143 0.966447
C50   C     C_R   0.608895 0.110063 0.000404 0.982644
C51   C     C_R   0.502907 0.121984 0.121139 0.978584
C52   C     C_R   0.391155 0.888792 0.998427 0.871823
C53   C     C_R   0.767302 0.529501 0.487878 0.379292
C54   C     C_R   0.693858 0.463711 0.416665 -0.193329
C55   C     C_R   0.665862 0.382671 0.404826 -0.121091
C56   C     C_R   0.794556 0.641332 0.953324 0.347779
C57   C     C_R   0.717916 0.364963 0.463670 0.267903
C58   C     C_R   0.797928 0.430779 0.532987 0.283027
C59   C     C_R   0.821017 0.513269 0.546000 0.257850
C60   C     C_R   0.583207 0.258368 0.256172 0.385755
C61   C     C_R   0.505371 0.192953 0.185605 -0.177952
C62   C     C_R   0.429670 0.197367 0.174296 0.050495
C63   C     C_R   0.430681 0.256898 0.243257 0.550884
C64   C     C_R   0.507265 0.314843 0.318475 -0.142967
C65   C     C_R   0.584400 0.317321 0.325816 -0.071476
C66   C     C_R   0.326359 0.162811 0.027231 0.289892
C67   C     C_R   0.845062 0.647622 0.916882 -0.094357
C68   C     C_R   0.247386 0.111278 0.952138 0.104801
C69   C     C_R   0.201849 0.029481 0.932308 0.249979
C70   C     C_R   0.224502 0.004208 0.993258 0.307794
C71   C     C_R   0.297171 0.060646 0.075402 0.200499
C72   C     C_R   0.349491 0.139341 0.091154 -0.280200
C73   C     C_R   0.509683 0.800552 0.508730 0.218807
C74   C     C_R   0.534965 0.786883 0.577922 0.399201
C75   C     C_R   0.476283 0.759961 0.601227 -0.276471
C76   C     C_R   0.394728 0.751988 0.557431 0.228502
C77   C     C_R   0.379722 0.791415 0.507468 0.240030
C78   C     C_R   0.929268 0.709752 0.968884 0.318275
C79   C     C_R   0.435516 0.810474 0.477795 0.207693
C80   C     C_R   0.509568 0.827193 0.750382 0.436714
C81   C     C_R   0.505161 0.816342 0.816239 -0.193889
C82   C     C_R   0.510248 0.746574 0.825011 0.033559
C83   C     C_R   0.509488 0.681128 0.761019 0.413439
C84   C     C_R   0.503717 0.687895 0.689210 -0.201317
C85   C     C_R   0.502231 0.759768 0.683059 0.061269
C86   C     C_R   0.603739 0.792031 0.979400 0.340566
C87   C     C_R   0.611674 0.799723 0.057563 0.240305
C88   C     C_R   0.541466 0.752243 0.056382 0.204038
C89   C     C_R   0.959796 0.766032 0.055354 0.348501
C90   C     C_R   0.467344 0.694088 0.979503 0.280453
C91   C     C_R   0.453039 0.699923 0.906117 0.237319
C92   C     C_R   0.522442 0.745988 0.904682 -0.195022
H1    H     H_    0.082667 0.323469 0.170330 0.237824
H2    H     H_    0.656742 0.476955 0.370571 0.246957
O1    O     O_R   0.916810 0.468940 0.051330 -0.586073
O2    O     O_R   0.453980 0.361630 0.409070 -0.524167
O3    O     O_R   0.638350 0.546700 0.591580 -0.560880
O4    O     O_R   0.544890 0.453260 0.591610 -0.627197
O5    O     O_R   0.546020 0.638330 0.590880 -0.573940
O6    O     O_R   0.452560 0.544900 0.590910 -0.549687
O7    O     O_R   0.455110 0.546690 0.408340 -0.670459
O8    O     O_R   0.361650 0.453260 0.408370 -0.540774
O9    O     O_R   0.446640 0.909720 0.856320 -0.533269
O10   O     O_R   0.550070 0.907030 0.957060 -0.641381
O11   O     O_R   0.531060 0.084080 0.949590 -0.583367
O12   O     O_R   0.917640 0.365500 0.948670 -0.576461
O13   O     O_R   0.634490 0.081390 0.050330 -0.549900
O14   O     O_R   0.449930 0.092880 0.042850 -0.632525
O15   O     O_R   0.553360 0.090200 0.143600 -0.557426
O16   O     O_R   0.365510 0.918520 0.949590 -0.595218
O17   O     O_R   0.468940 0.915840 0.050330 -0.649182
O18   O     O_R   0.907960 0.551720 0.959710 -0.656820
O19   O     O_R   0.908790 0.448280 0.857050 -0.539860
O20   O     O_R   0.082360 0.634500 0.051330 -0.577756
O21   O     O_R   0.083190 0.531060 0.948670 -0.574865
O22   O     O_R   0.091210 0.551720 0.142950 -0.601746
O23   O     O_R   0.092040 0.448280 0.040290 -0.561080
O24   O     O_R   0.547440 0.455060 0.409050 -0.674033
Zn1   Zn    Zn3+2 0.999450 0.569070 0.068540 1.160467
Zn2   Zn    Zn3+2 0.000550 0.430930 0.931460 1.218047
Zn3   Zn    Zn3+2 0.562400 0.562360 0.499960 1.123482
Zn4   Zn    Zn3+2 0.437600 0.437590 0.500000 1.182470
Zn5   Zn    Zn3+2 0.430940 0.001750 0.932690 1.170047
Zn6   Zn    Zn3+2 0.569060 0.998160 0.067220 1.185505
O25   O     O_3   0.943157 0.809625 0.177474 -0.605917
H3    H     H_    0.897087 0.813585 0.187369 0.410928
S1    S     S_3+6 0.344468 0.146937 0.582012 0.199059
O26   O     O_2   0.268248 0.161414 0.550303 -0.187018
O27   O     O_2   0.331072 0.065983 0.514743 -0.179948
O28   O     O_3   0.359440 0.138303 0.668462 -0.422753
H4    H     H_    0.308216 0.089874 0.648589 0.405063
S2    S     S_3+6 0.386037 0.163847 0.436333 0.173185
O29   O     O_2   0.296590 0.139641 0.413071 -0.193043
O30   O     O_2   0.401886 0.201820 0.385288 -0.173101
O31   O     O_3   0.403039 0.077784 0.411502 -0.470371
H5    H     H_    0.353717 0.034109 0.355184 0.401378
O32   O     O_3   0.554656 0.295832 0.515012 -0.643426
H6    H     H_    0.609265 0.343033 0.541598 0.324139
O33   O     O_3   0.858051 0.311152 0.198631 -0.624911
H7    H     H_    0.854904 0.347155 0.247624 0.422425
S3    S     S_3+6 0.892676 0.491798 0.245710 0.112258
O34   O     O_2   0.910005 0.525721 0.335585 -0.214221
O35   O     O_2   0.904703 0.561630 0.226010 -0.178602
O36   O     O_3   0.792437 0.420522 0.178725 -0.527544
H8    H     H_    0.759725 0.451937 0.188592 0.413417
S4    S     S_3+6 0.089929 0.602480 0.307720 0.168086
O37   O     O_2   0.051717 0.635281 0.251533 -0.213684
O38   O     O_2   0.077237 0.634056 0.382416 -0.119092
O39   O     O_3   0.192804 0.641937 0.343662 -0.507435
H9    H     H_    0.200165 0.657700 0.302926 0.399603
S5    S     S_3+6 0.934662 0.203622 0.137848 0.114869
O40   O     O_2   0.001547 0.175940 0.138283 -0.237228
O41   O     O_2   0.904083 0.180489 0.190747 -0.184063
O42   O     O_3   0.855126 0.154569 0.037302 -0.537715
H10   H     H_    0.827971 0.095523 0.022532 0.399682
O43   O     O_3   0.230962 0.482640 0.377292 -0.685880
H11   H     H_    0.180867 0.488180 0.376422 0.377674
S6    S     S_3+6 0.263610 0.487508 0.084945 0.085947
O44   O     O_2   0.195419 0.404057 0.010004 -0.259915
O45   O     O_2   0.251370 0.556174 0.068818 -0.251796
O46   O     O_3   0.353301 0.488812 0.090603 -0.550536
H12   H     H_    0.338985 0.455161 0.031003 0.442041
S7    S     S_3+6 0.777382 0.654246 0.091165 0.113741
O47   O     O_2   0.715490 0.689651 0.089703 -0.217372
O48   O     O_2   0.732007 0.560022 0.042521 -0.235867
O49   O     O_3   0.845200 0.685484 0.192368 -0.461817
H13   H     H_    0.810849 0.662296 0.213144 0.422154
O50   O     O_3   0.405754 0.669083 0.272115 -0.706484
H14   H     H_    0.430801 0.715548 0.264296 0.414906
O51   O     O_3   0.560450 0.725263 0.283857 -0.670869
H15   H     H_    0.595102 0.725390 0.257120 0.429868
S8    S     S_3+6 0.664921 0.625895 0.275289 0.125829
O52   O     O_2   0.707384 0.573511 0.295448 -0.207976
O53   O     O_2   0.654025 0.618750 0.192519 -0.226338
O54   O     O_3   0.725532 0.726540 0.353571 -0.462553
H16   H     H_    0.774513 0.744285 0.347035 0.405909
O55   O     O_3   0.559601 0.456131 0.232291 -0.662021
H17   H     H_    0.528939 0.403738 0.228744 0.385013
O56   O     O_3   0.409058 0.403941 0.229576 -0.740193
H18   H     H_    0.349795 0.387726 0.212445 0.361734
O57   O     O_3   0.896634 0.576632 0.615377 -0.651091
H19   H     H_    0.919627 0.616494 0.599231 0.377919
O58   O     O_3   0.784014 0.608595 0.497927 -0.660613
H20   H     H_    0.820961 0.651003 0.559079 0.384024
S9    S     S_3+6 0.683854 0.261846 0.449883 0.126426
O59   O     O_2   0.724082 0.216083 0.409930 -0.146820
O60   O     O_2   0.708083 0.267128 0.534618 -0.197425
O61   O     O_3   0.580278 0.205262 0.387077 -0.515755
H21   H     H_    0.567990 0.155217 0.393788 0.410484
S10   S     S_3+6 0.872275 0.413177 0.604407 0.157865
O62   O     O_2   0.959340 0.478946 0.645677 -0.175956
O63   O     O_2   0.852376 0.417447 0.672689 -0.293898
O64   O     O_3   0.870568 0.319401 0.554542 -0.418470
H22   H     H_    0.902742 0.310279 0.600719 0.404293
O65   O     O_3   0.711919 0.584417 0.900235 -0.624937
H23   H     H_    0.680330 0.600920 0.927929 0.412807
S11   S     S_3+6 0.675691 0.273558 0.248866 0.096946
O66   O     O_2   0.707063 0.212203 0.262799 -0.151127
O67   O     O_2   0.654367 0.257878 0.161069 -0.317937
O68   O     O_3   0.753844 0.370577 0.318833 -0.519306
H24   H     H_    0.740584 0.405270 0.293109 0.396621
O69   O     O_3   0.358511 0.260482 0.240473 -0.697503
H25   H     H_    0.308422 0.214836 0.186203 0.355559
S12   S     S_3+6 0.397824 0.250742 0.035406 0.105719
O70   O     O_2   0.383013 0.326001 0.071518 -0.235640
O71   O     O_2   0.487119 0.272086 0.090482 -0.290685
O72   O     O_3   0.383283 0.229501 0.938611 -0.438421
H26   H     H_    0.416399 0.283775 0.946608 0.412121
S13   S     S_3+6 0.199426 0.148064 0.883930 0.151109
O73   O     O_2   0.219601 0.126273 0.813943 -0.173240
O74   O     O_2   0.106425 0.106087 0.844260 -0.206978
O75   O     O_3   0.230980 0.252100 0.936497 -0.409357
H27   H     H_    0.213453 0.261364 0.979433 0.374410
O76   O     O_3   0.133219 0.971821 0.852365 -0.594481
H28   H     H_    0.143212 0.981614 0.809701 0.388747
S14   S     S_3+6 0.157556 0.898975 0.957345 0.167845
O77   O     O_2   0.165000 0.840670 0.887095 -0.271013
O78   O     O_2   0.174908 0.873901 0.023824 -0.187017
O79   O     O_3   0.058919 0.887439 0.916928 -0.394777
H29   H     H_    0.023735 0.826301 0.878126 0.420409
S15   S     S_3+6 0.321995 0.033798 0.157631 0.074759
O80   O     O_2   0.251881 0.020600 0.175743 -0.171805
O81   O     O_2   0.332182 0.954516 0.128570 -0.343569
O82   O     O_3   0.410207 0.105773 0.249451 -0.512565
H30   H     H_    0.426023 0.074797 0.279078 0.400993
S16   S     S_3+6 0.416994 0.852785 0.407803 0.129521
O83   O     O_2   0.338422 0.788439 0.324702 -0.256291
O84   O     O_2   0.406540 0.930854 0.445540 -0.161491
O85   O     O_3   0.494964 0.878955 0.388389 -0.478250
H31   H     H_    0.473545 0.892908 0.343002 0.389858
O86   O     O_3   0.564072 0.814559 0.479988 -0.585443
H32   H     H_    0.531209 0.778540 0.417515 0.397128
S17   S     S_3+6 0.643683 0.817844 0.640320 0.188523
O87   O     O_2   0.666278 0.752841 0.595046 -0.206956
O88   O     O_2   0.691866 0.899516 0.649793 -0.151275
O89   O     O_3   0.671606 0.831755 0.738105 -0.486771
H33   H     H_    0.733262 0.857973 0.769400 0.423594
O90   O     O_3   0.983359 0.716833 0.938153 -0.666864
H34   H     H_    0.954385 0.673787 0.877291 0.354869
S18   S     S_3+6 0.315747 0.697872 0.572005 0.118469
O91   O     O_2   0.318221 0.758382 0.648901 -0.195245
O92   O     O_2   0.231155 0.659684 0.495812 -0.157489
O93   O     O_3   0.329984 0.619269 0.585810 -0.559333
H35   H     H_    0.286797 0.596677 0.598170 0.410853
S19   S     S_3+6 0.309702 0.839445 0.504438 0.208552
O94   O     O_2   0.254673 0.814209 0.537506 -0.136225
O95   O     O_2   0.361871 0.932726 0.560034 -0.207823
O96   O     O_3   0.248418 0.817742 0.405023 -0.441410
H36   H     H_    0.222470 0.856898 0.411620 0.413639
S20   S     S_3+6 0.527401 0.926813 0.755098 0.076499
O97   O     O_2   0.447807 0.936198 0.731128 -0.223535
O98   O     O_2   0.592059 0.995002 0.844542 -0.332737
O99   O     O_3   0.562390 0.941032 0.692007 -0.527114
H37   H     H_    0.558868 0.992453 0.692978 0.407312
S21   S     S_3+6 0.515975 0.591584 0.770447 0.076343
O100  O     O_2   0.434167 0.515461 0.705315 -0.226993
O101  O     O_2   0.581952 0.575973 0.753382 -0.299911
O102  O     O_3   0.539384 0.601973 0.866378 -0.557896
H38   H     H_    0.522514 0.544132 0.856863 0.407383
S22   S     S_3+6 0.693702 0.843714 0.976563 0.107778
O103  O     O_2   0.749771 0.801483 0.991553 -0.267232
O104  O     O_2   0.674102 0.841248 0.893812 -0.309392
O105  O     O_3   0.744488 0.945289 0.053330 -0.457615
H39   H     H_    0.798195 0.966784 0.055592 0.401821
S23   S     S_3+6 0.706322 0.868876 0.158408 0.150442
O106  O     O_2   0.708161 0.954374 0.192369 -0.258052
O107  O     O_2   0.709111 0.839353 0.220681 -0.203448
O108  O     O_3   0.792725 0.876763 0.152890 -0.458408
H40   H     H_    0.838941 0.925586 0.208307 0.401596
O109  O     O_3   0.542990 0.761854 0.130221 -0.672466
H41   H     H_    0.565981 0.822839 0.169367 0.381592
S24   S     S_3+6 0.397898 0.611910 0.978411 0.176631
O110  O     O_2   0.344834 0.642285 0.009940 -0.269414
O111  O     O_2   0.342806 0.536065 0.890880 -0.138250
O112  O     O_3   0.454081 0.583462 0.043133 -0.458902
H42   H     H_    0.457292 0.614307 0.098050 0.409520
S25   S     S_3+6 0.349097 0.654107 0.819246 0.088906
O113  O     O_2   0.288290 0.649338 0.850251 -0.251545
O114  O     O_2   0.340412 0.705147 0.775996 -0.298668
O115  O     O_3   0.324508 0.556626 0.747939 -0.430281
H43   H     H_    0.267677 0.536493 0.701072 0.396746
S26   S     S_3+6 0.061347 0.850162 0.117117 0.206255
O116  O     O_2   0.064297 0.904419 0.077373 -0.142087
O117  O     O_2   0.084580 0.903254 0.207749 -0.171938
O118  O     O_3   0.130445 0.810700 0.116678 -0.489951
H44   H     H_    0.185495 0.857729 0.163074 0.405732
S27   S     S_3+6 0.775401 0.675577 0.759647 0.094926
O119  O     O_2   0.850088 0.748633 0.840931 -0.271269
O120  O     O_2   0.790409 0.670009 0.688152 -0.229127
O121  O     O_3   0.692295 0.694870 0.746042 -0.480547
H45   H     H_    0.698058 0.718383 0.803054 0.405540
S28   S     S_3+6 0.730419 0.323278 0.744551 0.086571
O122  O     O_2   0.796130 0.303710 0.729189 -0.184763
O123  O     O_2   0.742928 0.329659 0.827407 -0.340749
O124  O     O_3   0.638167 0.241723 0.665657 -0.539625
H46   H     H_    0.638751 0.194006 0.675054 0.409476
O125  O     O_3   0.612258 0.420945 0.805439 -0.663402
H47   H     H_    0.602610 0.397053 0.840292 0.375248
O126  O     O_3   0.449286 0.303771 0.746628 -0.627090
H48   H     H_    0.471492 0.363301 0.789821 0.362335

loop_
_geom_bond_atom_site_label_1
_geom_bond_atom_site_label_2
_ccdc_geom_bond_type
C66   C68   A    
C87   C88   A    
S21   O101  D    
S19   O95   D    
S10   O62   D    
C71   S15   S    
C63   O69   S    
S11   O68   S    
C13   S2    S    
C41   C42   S    
C35   C36   A    
C51   C61   S    
S14   O79   S    
C12   O18   A    
O58   H20   S    
O9    Zn5   S    
O82   H30   S    
C49   O10   A    
O46   H12   S    
C53   C59   A    
C82   C92   S    
O105  H39   S    
C4    C46   S    
C53   C54   A    
C44   C64   S    
C3    S27   S    
S26   O116  D    
C62   C63   A    
C22   C32   S    
C83   C84   A    
C28   C29   A    
S7    O48   D    
C37   C38   A    
S14   O78   D    
C18   C19   T    
S15   O82   S    
C53   O58   S    
O99   H37   S    
C43   C52   S    
S9    O60   D    
O125  H47   S    
O51   H15   S    
C34   O22   A    
O93   H35   S    
S4    O39   S    
S21   O100  D    
S13   O75   S    
C47   O5    A    
O89   H33   S    
O11   Zn5   S    
C59   O57   S    
O121  H45   S    
C73   C74   A    
S5    O42   S    
C49   C81   S    
C91   S25   S    
S15   O80   D    
O3    Zn3   S    
S10   O64   S    
C55   C65   S    
C10   O126  S    
O90   H34   S    
S3    O34   D    
C75   C85   S    
C66   C72   A    
O112  H42   S    
C45   C56   A    
S8    O53   D    
S24   O110  D    
S23   O108  S    
C58   S10   S    
C50   O11   A    
S24   O111  D    
S5    O40   D    
S27   O120  D    
S1    O26   D    
O55   H17   S    
C70   C71   A    
S24   O112  S    
C44   O24   A    
C29   C30   A    
S17   O87   D    
C79   S16   S    
C9    O125  S    
O20   Zn1   S    
S6    O46   S    
S8    O54   S    
C1    O12   A    
O5    Zn3   S    
C66   S12   S    
C61   C62   A    
S20   O99   S    
S19   O94   D    
O25   H3    S    
C46   O4    A    
S21   O102  S    
C78   O90   S    
S15   O81   D    
C80   S20   S    
S25   O113  D    
S6    O45   D    
C28   C48   S    
C80   C85   A    
C69   C70   A    
C67   C78   A    
O13   Zn6   S    
S22   O105  S    
C68   S13   S    
C25   C26   A    
O85   H31   S    
C6    S28   S    
C81   C82   A    
S4    O38   D    
C76   C77   A    
C77   C79   A    
C78   C89   A    
C73   C79   A    
C38   C39   A    
S13   O73   D    
C36   S8    S    
S23   O106  D    
C54   H2    S    
C74   C75   A    
S4    O37   D    
C63   C64   A    
O72   H26   S    
O50   H14   S    
O31   H5    S    
S7    O49   S    
C84   C85   A    
S22   O104  D    
C26   O33   S    
O69   H25   S    
O23   Zn2   S    
C91   C92   A    
O109  H41   S    
O126  H48   S    
O76   H28   S    
C16   C17   T    
S9    O61   S    
C52   O17   A    
O1    Zn1   S    
S20   O97   D    
O57   H19   S    
C82   C83   A    
S18   O93   S    
O7    Zn3   S    
C47   O6    A    
O56   H18   S    
S25   O115  S    
C83   S21   S    
O61   H21   S    
O24   Zn3   S    
O43   H11   S    
S6    O44   D    
C2    C89   A    
C11   S1    S    
C75   C76   A    
S1    O27   D    
C55   C57   A    
O118  H44   S    
C44   O2    A    
O16   Zn5   S    
C56   O65   S    
S23   O107  D    
S3    O35   D    
C31   C32   A    
S12   O72   S    
C52   O16   A    
C30   C31   A    
C1    O1    A    
S14   O77   D    
C48   O8    A    
C29   C39   S    
S18   O92   D    
C17   C18   S    
C89   S26   S    
S27   O121  S    
C62   C72   S    
S16   O83   D    
C1    C16   S    
C33   C39   A    
C47   C84   S    
C24   C25   A    
C74   S17   S    
C51   O14   A    
S17   O88   D    
C86   S22   S    
O42   H10   S    
O8    Zn4   S    
C60   S11   S    
C87   S23   S    
O4    Zn4   S    
S2    O30   D    
C40   C41   T    
C46   O3    A    
C88   C90   A    
C60   C65   A    
C3    C8    A    
S16   O84   D    
C10   C11   A    
S25   O114  D    
S27   O119  D    
C25   S5    S    
C50   O13   A    
C13   C14   A    
C22   C24   A    
C7    C12   S    
S3    O36   S    
C33   O50   S    
C42   C43   T    
O14   Zn5   S    
C90   C91   A    
C3    C4    A    
S16   O85   S    
C73   O86   S    
C31   C34   S    
S8    O52   D    
C12   O19   A    
C9    C10   A    
C88   O109  S    
C27   O43   S    
O79   H29   S    
C54   C55   A    
S28   O122  D    
S10   O63   D    
C38   O56   S    
O12   Zn2   S    
O17   Zn6   S    
C86   C87   A    
C57   S9    S    
C20   S3    S    
C68   C69   A    
S28   O124  S    
C90   S24   S    
C69   O76   S    
C30   S6    S    
S12   O71   D    
C80   C81   A    
C14   O32   S    
C49   O9    A    
O18   Zn1   S    
O33   H7    S    
O21   Zn2   S    
O15   Zn6   S    
C6    C7    A    
O10   Zn6   S    
C56   C67   A    
C37   O55   S    
O32   H6    S    
S26   O117  D    
O22   Zn1   S    
O2    Zn4   S    
C76   S18   S    
C70   S14   S    
C64   C65   A    
C77   S19   S    
S11   O67   D    
O28   H4    S    
C58   C59   A    
S1    O28   S    
C8    C67   S    
C71   C72   A    
O124  H46   S    
O54   H16   S    
C86   C92   A    
O39   H9    S    
S22   O103  D    
C23   O20   A    
C11   C13   A    
C19   C50   S    
S9    O59   D    
C5    C6    A    
O49   H13   S    
C20   C26   A    
C36   C37   A    
C34   O23   A    
S2    O31   S    
C48   O7    A    
O68   H24   S    
S28   O123  D    
S18   O91   D    
C33   C35   A    
O96   H36   S    
C24   H1    S    
S2    O29   D    
O6    Zn4   S    
S5    O41   D    
C45   S7    S    
S11   O66   D    
S17   O89   S    
C5    C15   S    
S7    O47   D    
C7    C8    A    
C2    C45   A    
C27   C32   A    
C23   O21   A    
O65   H23   S    
C2    O25   S    
O36   H8    S    
C4    C5    A    
C21   S4    S    
S12   O70   D    
S26   O118  S    
C20   C21   A    
O64   H22   S    
S19   O96   S    
O102  H38   S    
O86   H32   S    
O115  H43   S    
C35   O51   S    
S13   O74   D    
C14   C15   A    
C60   C61   A    
O19   Zn2   S    
C51   O15   A    
C57   C58   A    
C21   C22   A    
S20   O98   D    
C23   C40   S    
C9    C15   A    
O75   H27   S    
O108  H40   S    
C27   C28   A    
