data_mof_unit_47764.cif
_audit_creation_date              2012-12-11T17:19:10-0500
_audit_creation_method            fapswitch 2.2
_symmetry_space_group_name_H-M    P1
_symmetry_Int_Tables_number       1
_space_group_crystal_system       triclinic
_cell_length_a                    14.687466
_cell_length_b                    7.252571
_cell_length_c                    13.489014
_cell_angle_alpha                 90.002792
_cell_angle_beta                  99.849864
_cell_angle_gamma                 89.999255
_cell_volume                      1415.69485066

loop_
_atom_site_label
_atom_site_type_symbol
_atom_type_description
_atom_site_fract_x
_atom_site_fract_y
_atom_site_fract_z
_atom_type_partial_charge
O1    O     O_R   0.648180 0.355050 0.151550 -0.522571
O2    O     O_R   0.351820 0.644950 0.848450 -0.522546
O3    O     O_R   0.851820 0.855050 0.348450 -0.522872
O4    O     O_R   0.148180 0.144950 0.651550 -0.522840
O5    O     O_R   0.835240 0.681980 0.154280 -0.531489
O6    O     O_R   0.164760 0.318020 0.845720 -0.531502
O7    O     O_R   0.664760 0.181980 0.345720 -0.531333
O8    O     O_R   0.335240 0.818020 0.654280 -0.531297
C1    C     C_R   0.862872 0.515995 0.132181 0.940107
C2    C     C_R   0.137128 0.484004 0.867820 0.940100
C3    C     C_R   0.637103 0.016006 0.367791 0.940163
C4    C     C_R   0.362897 0.983995 0.632209 0.940170
O9    O     O_R   0.647870 0.684600 0.139630 -0.525765
O10   O     O_R   0.352130 0.315400 0.860370 -0.525789
O11   O     O_R   0.852130 0.184600 0.360370 -0.525216
O12   O     O_R   0.147870 0.815400 0.639630 -0.525234
O13   O     O_R   0.663110 0.857440 0.333700 -0.530354
O14   O     O_R   0.336890 0.142560 0.666300 -0.530389
O15   O     O_R   0.836890 0.357440 0.166300 -0.530245
O16   O     O_R   0.163110 0.642560 0.833700 -0.530232
C5    C     C_R   0.614527 0.516046 0.113744 0.808227
C6    C     C_R   0.385473 0.483954 0.886256 0.808222
C7    C     C_R   0.885477 0.016047 0.386252 0.808449
C8    C     C_R   0.114523 0.983953 0.613748 0.808450
O17   O     O_3   0.755220 0.522230 0.313690 -0.395628
O18   O     O_3   0.244780 0.477770 0.686310 -0.395645
O19   O     O_3   0.744780 0.022230 0.186310 -0.395546
O20   O     O_3   0.255220 0.977770 0.813690 -0.395545
V1    V     V_3+5 0.749030 0.796100 0.238190 1.627596
V2    V     V_3+5 0.250970 0.203900 0.761810 1.627541
V3    V     V_3+5 0.750970 0.296100 0.261810 1.628810
V4    V     V_3+5 0.249030 0.703900 0.738190 1.628853
C9    C     C_1   0.966238 0.005373 0.466568 -0.038730
C10   C     C_1   0.033762 0.994627 0.533432 -0.038748
C11   C     C_1   0.533763 0.505366 0.033431 -0.038545
C12   C     C_1   0.466237 0.494634 0.966569 -0.038542
H1    H     H_    0.207559 0.000856 0.280847 0.195060
H2    H     H_    0.792440 0.999292 0.719156 0.195065
H3    H     H_    0.292372 0.499323 0.219257 0.195005
H4    H     H_    0.707627 0.500802 0.780749 0.195009
C13   C     C_R   0.560096 0.988742 0.713196 0.524209
C14   C     C_R   0.439905 0.011260 0.286803 0.524211
C15   C     C_R   0.939961 0.489547 0.786781 0.524259
C16   C     C_R   0.060036 0.510467 0.213217 0.524201
C17   C     C_R   0.654775 0.991220 0.754281 -0.162252
C18   C     C_R   0.345225 0.008825 0.245720 -0.162264
C19   C     C_R   0.845295 0.492508 0.745668 -0.162144
C20   C     C_R   0.154697 0.507556 0.254330 -0.162162
C21   C     C_R   0.719058 0.997792 0.689496 -0.294490
C22   C     C_R   0.280942 0.002312 0.310506 -0.294468
C23   C     C_R   0.780999 0.498937 0.810439 -0.294555
C24   C     C_R   0.219000 0.501156 0.189564 -0.294540
C25   C     C_R   0.691158 0.002548 0.585885 0.592726
C26   C     C_R   0.308841 0.997553 0.414118 0.592790
C27   C     C_R   0.808871 0.503257 0.914061 0.592623
C28   C     C_R   0.191130 0.496802 0.085942 0.592631
C29   C     C_R   0.595996 0.001686 0.541794 -0.084115
C30   C     C_R   0.404003 0.998354 0.458207 -0.084124
C31   C     C_R   0.904017 0.502078 0.958178 -0.084054
C32   C     C_R   0.095983 0.497940 0.041822 -0.084052
C33   C     C_R   0.528908 0.994395 0.606780 -0.125066
C34   C     C_R   0.471093 0.005617 0.393219 -0.125075
C35   C     C_R   0.971120 0.494814 0.893209 -0.125049
C36   C     C_R   0.028878 0.505191 0.106791 -0.125038
C37   C     C_R   0.567093 0.007410 0.435339 -0.104191
C38   C     C_R   0.432908 0.992599 0.564662 -0.104198
C39   C     C_R   0.932891 0.507391 0.064644 -0.104176
C40   C     C_R   0.067108 0.492610 0.935355 -0.104176
C41   C     C_2   0.687625 0.987027 0.865187 0.882009
O21   O     O_2   0.770474 0.987752 0.898803 -0.575295
O22   O     O_R   0.624421 0.982657 0.931778 -0.594876
H5    H     H_    0.655533 0.980513 0.004756 0.325184
C42   C     C_2   0.312375 0.013014 0.134814 0.882009
O23   O     O_2   0.229526 0.012327 0.101198 -0.575296
O24   O     O_R   0.375579 0.017336 0.068221 -0.594875
H6    H     H_    0.344464 0.019481 0.995244 0.325182
C43   C     C_2   0.812480 0.488939 0.634748 0.881959
O25   O     O_2   0.729649 0.487004 0.601120 -0.575249
O26   O     O_R   0.875732 0.488459 0.568167 -0.594958
H7    H     H_    0.844667 0.486246 0.495184 0.325066
C44   C     C_2   0.187493 0.511187 0.365239 0.881943
O27   O     O_2   0.270334 0.513793 0.398868 -0.575228
O28   O     O_R   0.124259 0.510974 0.431837 -0.594928
H8    H     H_    0.155362 0.513361 0.504827 0.325016
F1    F     F_    0.499262 0.980253 0.778313 -0.678304
F2    F     F_    0.500739 0.019691 0.221686 -0.678305
F3    F     F_    0.000798 0.480620 0.721684 -0.678318
F4    F     F_    0.999201 0.519436 0.278317 -0.678331
F5    F     F_    0.759653 0.007882 0.530393 -0.733004
F6    F     F_    0.240346 0.992289 0.469610 -0.733003
F7    F     F_    0.740362 0.508527 0.969544 -0.733042
F8    F     F_    0.259640 0.491552 0.030460 -0.733041

loop_
_geom_bond_atom_site_label_1
_geom_bond_atom_site_label_2
_ccdc_geom_bond_type
O17   V3    S    
C16   C20   A    
C30   C34   A    
O1    C5    A    
C27   C31   A    
O19   V1    S    
O13   V1    S    
C42   O23   D    
O3    C7    A    
C11   C12   T    
C13   C33   A    
O15   V3    S    
C44   O27   D    
C15   C35   A    
H2    C21   S    
C43   O25   D    
C16   C36   A    
O7    C3    A    
C22   C26   A    
O9    V1    S    
C26   F6    S    
C26   C30   A    
O4    C8    A    
O1    V3    S    
C20   C44   S    
O2    V4    S    
C14   C18   A    
C41   O22   S    
C27   F7    S    
C31   C39   A    
C33   C38   A    
C30   C38   A    
C2    O16   A    
C7    C9    S    
O2    C6    A    
C14   F2    S    
C14   C34   A    
O11   C7    A    
H3    C24   S    
O12   C8    A    
C42   O24   S    
O10   V2    S    
C44   O28   S    
C1    O15   A    
O5    V1    S    
C43   O26   S    
O7    V3    S    
C17   C41   S    
O8    V4    S    
C36   C39   A    
C25   C29   A    
O18   V4    S    
C19   C23   A    
C4    C38   S    
C8    C10   S    
C28   C32   A    
O24   H6    S    
C1    C39   S    
O5    C1    A    
O28   H8    S    
C17   C21   A    
O8    C4    A    
C9    C10   T    
O9    C5    A    
C29   C33   A    
O14   V2    S    
O6    V2    S    
C25   F5    S    
C19   C43   S    
C13   F1    S    
O16   V4    S    
C35   C40   A    
C3    O13   A    
C34   C37   A    
C29   C37   A    
O6    C2    A    
O11   V3    S    
C5    C11   S    
C2    C40   S    
O12   V4    S    
H4    C23   S    
C6    C12   S    
C18   C22   A    
C31   C35   A    
C32   C36   A    
C15   F3    S    
O10   C6    A    
O20   V2    S    
O22   H5    S    
H1    C22   S    
O3    V1    S    
C21   C25   A    
C23   C27   A    
C41   O21   D    
O26   H7    S    
C24   C28   A    
C20   C24   A    
C32   C40   A    
C4    O14   A    
C13   C17   A    
C16   F4    S    
C28   F8    S    
C15   C19   A    
C18   C42   S    
O4    V2    S    
C3    C37   S    
