data_mof_unit_40812.cif
_audit_creation_date              2012-10-26T20:32:57-0400
_audit_creation_method            fapswitch 2.2
_symmetry_space_group_name_H-M    P1
_symmetry_Int_Tables_number       1
_space_group_crystal_system       triclinic
_cell_length_a                    27.738063
_cell_length_b                    10.872304
_cell_length_c                    9.620056
_cell_angle_alpha                 92.149664
_cell_angle_beta                  91.131753
_cell_angle_gamma                 92.601628
_cell_volume                      2895.48548119

loop_
_atom_site_label
_atom_site_type_symbol
_atom_type_description
_atom_site_fract_x
_atom_site_fract_y
_atom_site_fract_z
_atom_type_partial_charge
C1    C     C_R   0.499985 0.262381 0.497038 0.555705
C2    C     C_R   0.973181 0.339647 0.494468 0.019419
C3    C     C_R   0.973141 0.552635 0.417019 0.026149
C4    C     C_R   0.407630 0.498877 0.499521 0.597913
C5    C     C_R   0.947851 0.444310 0.457472 -0.023129
C6    C     C_R   0.946397 0.224407 0.498315 0.093422
C7    C     C_R   0.895608 0.221480 0.501508 0.147487
C8    C     C_R   0.870549 0.330779 0.487213 0.046039
C9    C     C_R   0.896809 0.440514 0.457240 -0.090379
C10   C     C_R   0.872060 0.547299 0.426229 0.007230
C11   C     C_R   0.822637 0.548912 0.456166 0.413950
C12   C     C_R   0.277153 0.385492 0.467209 -0.023671
C13   C     C_R   0.819663 0.333151 0.492345 0.414421
C14   C     C_R   0.720615 0.418044 0.615577 0.196362
C15   C     C_R   0.669995 0.423011 0.617373 0.123295
C16   C     C_R   0.497312 0.736919 0.502229 0.557305
C17   C     C_R   0.670190 0.490309 0.379781 -0.164318
C18   C     C_R   0.719553 0.476667 0.374609 -0.070512
C19   C     C_R   0.745534 0.444540 0.492605 0.206858
C20   C     C_R   0.023996 0.354146 0.519776 0.023738
C21   C     C_R   0.049107 0.465825 0.486757 0.006480
C22   C     C_R   0.023642 0.567514 0.442763 0.050933
C23   C     C_R   0.252921 0.491267 0.507424 0.172545
C24   C     C_R   0.050060 0.266180 0.590491 -0.135771
C25   C     C_R   0.099510 0.693362 0.446943 0.124031
C26   C     C_R   0.947136 0.637548 0.340886 0.132777
C27   C     C_R   0.897029 0.643451 0.357629 0.130834
C28   C     C_R   0.592202 0.490295 0.501011 0.529357
C29   C     C_R   0.048568 0.684738 0.445080 0.113021
C30   C     C_R   0.522226 0.069538 0.599985 -0.026991
C31   C     C_R   0.501409 0.128514 0.489611 0.000695
C32   C     C_R   0.480278 0.054883 0.377375 0.080498
C33   C     C_R   0.472850 0.927715 0.391182 0.141496
C34   C     C_R   0.100030 0.477275 0.502751 -0.055732
C35   C     C_R   0.493804 0.870031 0.505476 0.006611
C36   C     C_R   0.519409 0.942952 0.607613 0.014430
C37   C     C_3   0.513777 0.955638 0.763240 -0.052492
C38   C     C_3   0.518181 0.094009 0.752172 -0.198495
C39   C     C_R   0.538849 0.550547 0.077116 0.151175
C40   C     C_R   0.175977 0.391770 0.568840 0.412774
C41   C     C_R   0.463268 0.443715 0.065494 0.181676
C42   C     C_R   0.464073 0.442756 0.918840 0.022715
C43   C     C_R   0.539137 0.547568 0.929298 0.090609
C44   C     C_3   0.558655 0.676638 0.922533 0.012820
C45   C     C_R   0.125494 0.380825 0.558171 0.039217
C46   C     C_3   0.559808 0.682812 0.081476 0.208738
C47   C     C_R   0.176171 0.583373 0.456534 0.427811
C48   C     C_R   0.280295 0.598375 0.549659 -0.025687
C49   C     C_R   0.330593 0.602363 0.544298 0.054742
C50   C     C_R   0.327450 0.385770 0.471988 0.051071
C51   C     C_R   0.099951 0.277882 0.606701 -0.086554
C52   C     C_R   0.125488 0.585958 0.466040 0.014942
C53   C     C_R   0.354667 0.496650 0.500709 0.025828
C54   C     C_R   0.644772 0.469449 0.501757 -0.022987
Cu1   Cu    Cu3+1 0.500000 0.499980 0.640670 0.947133
Cu2   Cu    Cu3+1 0.500000 0.500020 0.359330 1.017478
H1    H     H_    0.262462 0.679016 0.588037 0.189252
H2    H     H_    0.118376 0.205750 0.657859 0.186148
H3    H     H_    0.032408 0.189737 0.639634 0.129356
H4    H     H_    0.031782 0.834858 0.562589 0.248368
H5    H     H_    0.031276 0.856827 0.389317 0.278746
H6    H     H_    0.492920 0.150367 0.203744 0.243733
H7    H     H_    0.437965 0.169238 0.276648 0.295451
H8    H     H_    0.462969 0.819363 0.803727 0.270206
H9    H     H_    0.463173 0.942066 0.913633 0.257231
H10   H     H_    0.600929 0.693950 0.751219 0.253943
H11   H     H_    0.627464 0.618321 0.879591 0.234505
H12   H     H_    0.651825 0.515794 0.286615 0.130557
H13   H     H_    0.606049 0.691726 0.251697 0.239171
H14   H     H_    0.629151 0.623934 0.110503 0.218526
H15   H     H_    0.526924 0.849397 0.070779 0.214099
H16   H     H_    0.542821 0.815381 0.228919 0.250891
H17   H     H_    0.627215 0.434762 0.787014 0.240605
H18   H     H_    0.619898 0.301447 0.690336 0.236132
H19   H     H_    0.772840 0.458862 0.762471 0.242827
H20   H     H_    0.762309 0.305943 0.726468 0.280530
H21   H     H_    0.881575 0.066476 0.607302 0.248918
H22   H     H_    0.877301 0.046914 0.431503 0.290945
H23   H     H_    0.738075 0.494306 0.278780 0.156464
H24   H     H_    0.973359 0.065401 0.568855 0.235303
H25   H     H_    0.000281 0.117594 0.419618 0.259327
H26   H     H_    0.256925 0.300716 0.437897 0.192011
H27   H     H_    0.544217 0.921116 0.824617 0.136157
H28   H     H_    0.484927 0.141741 0.780770 0.191404
H29   H     H_    0.552230 0.135999 0.799482 0.119902
H30   H     H_    0.434558 0.398655 0.857712 0.162980
H31   H     H_    0.531422 0.732364 0.873657 0.142667
I1    I     I_    0.358561 0.211321 0.465959 -0.233550
I2    I     I_    0.134472 0.874091 0.449474 -0.237675
I3    I     I_    0.979506 0.715631 0.160700 -0.278399
I4    I     I_    0.860475 0.786906 0.256941 -0.190289
I5    I     I_    0.421721 0.832404 0.249671 -0.178120
I6    I     I_    0.397510 0.361571 0.130934 -0.262918
I7    I     I_    0.367298 0.768631 0.614988 -0.210621
N1    N     N_R   0.200697 0.488592 0.510874 -0.397066
N2    N     N_3   0.527676 0.775305 0.136858 -0.547055
N3    N     N_3   0.645197 0.368284 0.730788 -0.579240
N4    N     N_3   0.745968 0.389831 0.740952 -0.566217
N5    N     N_3   0.869604 0.105578 0.515908 -0.510821
N6    N     N_3   0.968291 0.108167 0.474557 -0.629042
N7    N     N_R   0.797342 0.442431 0.485462 -0.415310
N8    N     N_R   0.500300 0.500930 0.147930 -0.220806
N9    N     N_R   0.500310 0.500890 0.852020 -0.272105
N10   N     N_3   0.022001 0.794291 0.465257 -0.597294
N11   N     N_3   0.463723 0.106307 0.251478 -0.577574
N12   N     N_3   0.465762 0.915408 0.808578 -0.570000
N13   N     N_3   0.606034 0.691985 0.858944 -0.598321
N14   N     N_3   0.608637 0.697134 0.143863 -0.572977
O1    O     O_R   0.500000 0.319640 0.618810 -0.509604
O2    O     O_R   0.569730 0.499960 0.618810 -0.520389
O3    O     O_R   0.569740 0.500000 0.381220 -0.515437
O4    O     O_2   0.200033 0.306178 0.636653 -0.466843
O5    O     O_2   0.792523 0.227878 0.502192 -0.441138
O6    O     O_2   0.200519 0.671164 0.387557 -0.425350
O7    O     O_2   0.799864 0.655784 0.459273 -0.438014
O8    O     O_R   0.500010 0.319680 0.381230 -0.509697
O9    O     O_R   0.430260 0.500000 0.618780 -0.491634
O10   O     O_R   0.430270 0.500040 0.381190 -0.445914
O11   O     O_R   0.499990 0.680320 0.618770 -0.511697
O12   O     O_R   0.500000 0.680360 0.381190 -0.470254

loop_
_geom_bond_atom_site_label_1
_geom_bond_atom_site_label_2
_ccdc_geom_bond_type
C10   C27   A    
C47   O6    S    
Cu1   Cu2   S    
C8    C13   A    
C22   C29   A    
C4    C53   S    
C41   C42   A    
C35   C36   A    
H10   N13   S    
C42   N9    A    
C7    C8    A    
C40   O4    S    
H6    N11   S    
Cu1   O11   S    
H17   N3    S    
C12   C23   A    
C26   C27   A    
C7    N5    S    
C36   C37   S    
C16   O12   A    
C16   C35   S    
C30   C31   A    
C45   C51   A    
H20   N4    S    
Cu1   N9    S    
C1    C31   S    
C41   N8    A    
C30   C38   S    
C18   C19   A    
C34   C52   A    
C1    O1    A    
C41   I6    S    
C20   C24   A    
C18   H23   S    
C46   N14   S    
C27   I4    S    
C42   H30   S    
C1    O8    A    
C49   I7    S    
H7    N11   S    
C44   H31   S    
C11   O7    S    
C9    C10   A    
Cu2   O3    S    
C50   I1    S    
C24   C51   A    
C21   C22   A    
Cu1   O1    S    
Cu2   O12   S    
C4    O10   A    
C2    C6    A    
C15   N3    S    
H13   N14   S    
C44   C46   S    
C14   N4    S    
H18   N3    S    
C28   O3    A    
C25   C29   A    
C40   C45   A    
H24   N6    S    
C50   C53   A    
C38   H29   S    
C2    C20   A    
C15   C54   A    
C48   H1    S    
H5    N10   S    
C33   I5    S    
C34   C45   A    
C28   C54   S    
C8    C9    A    
C39   C43   A    
C21   C34   A    
C28   O2    A    
H19   N4    S    
C29   N10   S    
C6    N6    S    
C43   C44   S    
C5    C9    A    
C37   C38   S    
C31   C32   A    
C17   C18   A    
Cu2   O8    S    
C12   H26   S    
C11   N7    A    
C51   H2    S    
C47   C52   A    
C39   C46   S    
C48   C49   A    
C32   N11   S    
Cu1   O2    S    
C4    O9    A    
C16   O11   A    
C2    C5    A    
C40   N1    A    
C13   N7    A    
H9    N12   S    
C39   N8    A    
Cu1   O9    S    
C44   N13   S    
C17   H12   S    
C23   C48   A    
C38   H28   S    
Cu2   O10   S    
C14   C19   A    
C3    C26   A    
C3    C5    A    
C12   C50   A    
H8    N12   S    
C6    C7    A    
H15   N2    S    
H25   N6    S    
C26   I3    S    
C25   I2    S    
C30   C36   A    
C32   C33   A    
C25   C52   A    
Cu2   N8    S    
C37   N12   S    
H14   N14   S    
C19   N7    S    
H11   N13   S    
C24   H3    S    
C49   C53   A    
C33   C35   A    
C23   N1    S    
H21   N5    S    
C43   N9    A    
C10   C11   A    
H16   N2    S    
C46   N2    S    
C20   C21   A    
H22   N5    S    
C47   N1    A    
C14   C15   A    
C37   H27   S    
C3    C22   A    
H4    N10   S    
C17   C54   A    
C13   O5    S    
