data_mof_unit_57271.cif
_audit_creation_date              2012-10-26T21:24:47-0400
_audit_creation_method            fapswitch 2.2
_symmetry_space_group_name_H-M    P1
_symmetry_Int_Tables_number       1
_space_group_crystal_system       triclinic
_cell_length_a                    9.576772
_cell_length_b                    10.846666
_cell_length_c                    15.640645
_cell_angle_alpha                 88.966921
_cell_angle_beta                  73.873774
_cell_angle_gamma                 89.340918
_cell_volume                      1560.47095568

loop_
_atom_site_label
_atom_site_type_symbol
_atom_type_description
_atom_site_fract_x
_atom_site_fract_y
_atom_site_fract_z
_atom_type_partial_charge
C1    C     C_R   0.000015 0.262566 0.501216 0.548616
C2    C     C_R   0.223406 0.459846 0.045280 0.050664
C3    C     C_R   0.326212 0.483338 0.092718 0.033561
C4    C     C_R   0.917790 0.500217 0.671594 0.543543
C5    C     C_R   0.075085 0.449999 0.090505 -0.141840
C6    C     C_R   0.027077 0.465822 0.182333 -0.140178
C7    C     C_R   0.276030 0.487677 0.185920 -0.134585
C8    C     C_R   0.129866 0.062443 0.487912 0.036214
C9    C     C_R   0.000832 0.129448 0.499019 0.011021
C10   C     C_R   0.872050 0.065928 0.503151 -0.162505
C11   C     C_R   0.871425 0.937809 0.503959 -0.170514
C12   C     C_R   0.671462 0.501040 0.905625 0.034480
C13   C     C_R   0.000245 0.871065 0.497522 0.002576
C14   C     C_R   0.130240 0.935391 0.485140 0.004869
C15   C     C_3   0.243797 0.923264 0.533982 -0.243080
C16   C     C_R   0.999270 0.737557 0.500680 0.547466
C17   C     C_3   0.242397 0.063479 0.538362 -0.130168
C18   C     C_R   0.607316 0.520874 0.422802 0.168348
C19   C     C_R   0.540954 0.466718 0.573977 -0.018158
C20   C     C_R   0.392548 0.466913 0.574009 -0.024609
C21   C     C_R   0.460247 0.520501 0.423273 0.148382
C22   C     C_3   0.474481 0.630344 0.363834 -0.245036
C23   C     C_R   0.770240 0.540315 0.952358 0.050284
C24   C     C_3   0.634995 0.630540 0.359483 -0.154698
C25   C     C_R   0.082197 0.495991 0.328236 0.545319
C26   C     C_R   0.871423 0.506866 0.768775 -0.000594
C27   C     C_R   0.127874 0.484702 0.230687 -0.002221
C28   C     C_R   0.916451 0.562330 0.907330 -0.144913
C29   C     C_R   0.966854 0.545791 0.815995 -0.144765
C30   C     C_R   0.726474 0.481623 0.813773 -0.131455
C31   C     C_3   0.187733 0.111192 0.633726 -0.408850
C32   C     C_3   0.678771 0.750206 0.394125 -0.381904
C33   C     C_R   0.521554 0.484774 0.951963 0.034181
C34   C     C_R   0.475338 0.500773 0.045821 0.033824
C35   C     C_R   0.578335 0.539181 0.089325 -0.138434
C36   C     C_R   0.722154 0.559280 0.043378 -0.140554
C37   C     C_R   0.415544 0.457198 0.907520 -0.138460
C38   C     C_R   0.269544 0.446038 0.953425 -0.140423
Cu1   Cu    Cu3+1 0.140670 0.499980 0.500000 0.926081
Cu2   Cu    Cu3+1 0.859330 0.500020 0.500000 0.929720
H1    H     H_    0.796101 0.591014 0.079574 0.103308
H2    H     H_    0.454712 0.610245 0.299605 0.102426
H3    H     H_    0.350931 0.488969 0.225448 0.115386
H4    H     H_    0.410273 0.709966 0.398274 0.151539
H5    H     H_    0.705400 0.606630 0.292316 0.121593
H6    H     H_    0.911959 0.459651 0.215596 0.121068
H7    H     H_    0.192083 0.426591 0.916479 0.106240
H8    H     H_    0.991272 0.594870 0.942570 0.109496
H9    H     H_    0.079280 0.566289 0.782138 0.121556
H10   H     H_    0.659161 0.446727 0.775115 0.107418
H11   H     H_    0.550846 0.559436 0.158781 0.091684
H12   H     H_    0.996194 0.430311 0.054770 0.111198
H13   H     H_    0.440256 0.447201 0.836553 0.091414
H14   H     H_    0.266050 0.084165 0.671508 0.125089
H15   H     H_    0.179688 0.213230 0.633063 0.159856
H16   H     H_    0.079412 0.072522 0.668491 0.144197
H17   H     H_    0.628195 0.757199 0.466927 0.151093
H18   H     H_    0.798762 0.754781 0.377098 0.173686
H19   H     H_    0.642274 0.830245 0.360346 0.110889
H20   H     H_    0.770233 0.114558 0.509849 0.137242
H21   H     H_    0.768801 0.891927 0.513934 0.126613
H22   H     H_    0.203202 0.874653 0.599353 0.147918
H23   H     H_    0.347928 0.886278 0.491175 0.112960
H24   H     H_    0.346202 0.105877 0.499188 0.144249
H25   H     H_    0.568074 0.440627 0.634382 0.112314
H26   H     H_    0.310655 0.441486 0.634414 0.109072
N1    N     N_R   0.648210 0.500930 0.499430 -0.229192
N2    N     N_R   0.352300 0.500890 0.499430 -0.234804
O1    O     O_R   0.118810 0.319640 0.500000 -0.499510
O2    O     O_R   0.881230 0.319680 0.499990 -0.506837
O3    O     O_R   0.055580 0.499970 0.629840 -0.517545
O4    O     O_R   0.818000 0.500010 0.629830 -0.513167
O5    O     O_R   0.118770 0.680320 0.500010 -0.499944
O6    O     O_R   0.881190 0.680360 0.500000 -0.510455
O7    O     O_R   0.182000 0.499990 0.370170 -0.506394
O8    O     O_R   0.944420 0.500030 0.370160 -0.502864

loop_
_geom_bond_atom_site_label_1
_geom_bond_atom_site_label_2
_ccdc_geom_bond_type
C18   C21   A    
Cu1   N2    S    
C35   C36   A    
C32   H18   S    
C29   H9    S    
C12   C23   A    
Cu2   O2    S    
C16   O6    A    
C24   H5    S    
C20   H26   S    
C28   C29   A    
C3    C7    A    
C17   H24   S    
C5    C6    A    
C7    C27   A    
C34   C35   A    
C22   H4    S    
C19   C20   A    
C8    C9    A    
Cu2   N1    S    
C8    C14   A    
C5    H12   S    
C19   N1    A    
C18   C24   S    
Cu1   O7    S    
C31   H16   S    
C6    H6    S    
C9    C10   A    
C37   H13   S    
C30   H10   S    
C13   C14   A    
C36   H1    S    
C32   H17   S    
C16   O5    A    
C1    C9    S    
Cu1   Cu2   S    
C3    C34   A    
C18   N1    A    
C1    O1    A    
Cu2   O8    S    
C25   O7    A    
C10   H20   S    
C24   C32   S    
C37   C38   A    
C2    C38   A    
C6    C27   A    
C33   C34   A    
Cu1   O1    S    
C23   C28   A    
C38   H7    S    
C26   C30   A    
C7    H3    S    
C21   N2    A    
C35   H11   S    
C17   C31   S    
C22   C24   S    
C2    C5    A    
C4    O4    A    
C15   C17   S    
C28   H8    S    
C15   H23   S    
Cu2   O4    S    
C12   C30   A    
C20   N2    A    
C1    O2    A    
C11   H21   S    
C4    C26   S    
C25   C27   S    
C8    C17   S    
C25   O8    A    
C2    C3    A    
C11   C13   A    
C22   H2    S    
C15   H22   S    
Cu2   O6    S    
C19   H25   S    
Cu1   O5    S    
C31   H14   S    
C33   C37   A    
C10   C11   A    
C26   C29   A    
C23   C36   A    
C13   C16   S    
Cu1   O3    S    
C14   C15   S    
C32   H19   S    
C31   H15   S    
C12   C33   A    
C21   C22   S    
C4    O3    A    
