data_mof_unit_51259.cif
_audit_creation_date              2012-12-11T16:09:25-0500
_audit_creation_method            fapswitch 2.2
_symmetry_space_group_name_H-M    P1
_symmetry_Int_Tables_number       1
_space_group_crystal_system       triclinic
_cell_length_a                    7.211438
_cell_length_b                    21.166651
_cell_length_c                    23.663409
_cell_angle_alpha                 90.050294
_cell_angle_beta                  87.94566
_cell_angle_gamma                 91.260821
_cell_volume                      3608.83437904

loop_
_atom_site_label
_atom_site_type_symbol
_atom_type_description
_atom_site_fract_x
_atom_site_fract_y
_atom_site_fract_z
_atom_type_partial_charge
O1    O     O_R   0.494270 0.443530 0.442350 -0.529759
O2    O     O_R   0.824060 0.436290 0.557250 -0.522996
O3    O     O_R   0.994370 0.556470 0.557650 -0.533632
C1    C     C_R   0.650981 0.421469 0.575839 0.701337
O4    O     O_R   0.823990 0.436120 0.442760 -0.528567
O5    O     O_R   0.994300 0.556300 0.442340 -0.532657
C2    C     C_R   0.656493 0.421433 0.423814 0.706350
O6    O     O_R   0.494350 0.443700 0.557660 -0.530748
O7    O     O_3   0.660800 0.539430 0.500000 -0.379972
V1    V     V_3+5 0.935650 0.492690 0.500000 1.607443
O8    O     O_R   0.324020 0.563710 0.442750 -0.534588
C3    C     C_R   0.158827 0.578512 0.423623 0.712209
O9    O     O_R   0.324090 0.563880 0.557240 -0.529922
C4    C     C_R   0.154729 0.578653 0.576087 0.714921
V2    V     V_3+5 0.435660 0.507310 0.500000 1.600054
O10   O     O_3   0.160640 0.460570 0.500000 -0.370355
C5    C     C_3   0.031948 0.721292 0.795975 -0.223276
C6    C     C_3   0.213400 0.702184 0.764149 0.620922
H1    H     H_    0.968005 0.697471 0.833876 0.207664
H2    H     H_    0.423699 0.789639 0.770670 0.200440
C7    C     C_1   0.143654 0.624474 0.621555 -0.077363
C8    C     C_1   0.075956 0.875038 0.877459 -0.139344
C9    C     C_3   0.941285 0.728609 0.738123 0.580095
C10   C     C_3   0.121177 0.708566 0.706954 -0.220726
C11   C     C_3   0.004014 0.798929 0.734692 -0.226953
C12   C     C_3   0.098564 0.791195 0.791897 -0.152874
C13   C     C_3   0.186063 0.778157 0.704171 0.612596
C14   C     C_3   0.282044 0.771925 0.761288 -0.206557
C15   C     C_1   0.133729 0.662495 0.659918 0.221825
C16   C     C_1   0.085966 0.837153 0.838995 0.131559
H3    H     H_    0.917026 0.838888 0.722272 0.208967
C17   C     C_3   0.249835 0.808405 0.243080 -0.537539
C18   C     C_3   0.912853 0.790439 0.247556 0.454502
C19   C     C_3   0.927346 0.739916 0.295831 0.739711
H4    H     H_    0.278746 0.785420 0.332657 0.196857
H5    H     H_    0.221750 0.855334 0.262504 0.184930
H6    H     H_    0.909262 0.838667 0.266295 0.112881
C20   C     C_1   0.156270 0.624354 0.377804 -0.052594
C21   C     C_3   0.084042 0.788097 0.205423 -0.323746
C22   C     C_3   0.278092 0.760402 0.291538 0.426884
C23   C     C_3   0.123633 0.708185 0.291968 -0.388121
C24   C     C_3   0.145922 0.672925 0.233912 0.448592
C25   C     C_3   0.109046 0.717710 0.182047 0.526417
C26   C     C_1   0.145907 0.662321 0.339397 0.274219
C27   C     C_1   0.068757 0.835566 0.158906 0.210369
C28   C     C_1   0.062290 0.874231 0.120916 -0.093956
H7    H     H_    0.290029 0.655444 0.230119 0.206683
H8    H     H_    0.380452 0.817295 0.218679 0.300978
C29   C     C_3   0.424249 0.245347 0.709771 0.935438
C30   C     C_3   0.759506 0.248424 0.693259 0.329186
C31   C     C_3   0.771792 0.195513 0.739201 0.398617
H9    H     H_    0.733907 0.226971 0.651246 0.141668
C32   C     C_1   0.593586 0.122395 0.877401 -0.026032
C33   C     C_3   0.597307 0.291143 0.706578 -0.525065
C34   C     C_3   0.432409 0.194905 0.761855 0.762881
C35   C     C_3   0.617045 0.203172 0.788407 -0.580887
C36   C     C_3   0.627570 0.273804 0.813380 0.358097
C37   C     C_3   0.624316 0.325036 0.765226 0.815963
C38   C     C_1   0.615719 0.158603 0.837837 0.356366
C39   C     C_1   0.601444 0.337782 0.659147 0.385283
C40   C     C_1   0.625182 0.375641 0.620924 -0.036921
H10   H     H_    0.752660 0.280865 0.838093 0.184327
C41   C     C_3   0.445346 0.307896 0.253307 0.093308
C42   C     C_3   0.791423 0.295331 0.251425 0.452955
C43   C     C_3   0.788089 0.240485 0.207495 0.364052
H11   H     H_    0.793350 0.340882 0.228255 0.225325
H12   H     H_    0.884380 0.203031 0.218829 0.191189
C44   C     C_1   0.569613 0.124570 0.120457 -0.077881
C45   C     C_3   0.614991 0.292019 0.291956 -0.475163
C46   C     C_3   0.448932 0.266600 0.197223 0.123683
C47   C     C_3   0.588398 0.211296 0.204775 -0.376857
C48   C     C_3   0.538918 0.177508 0.263044 0.900977
C49   C     C_3   0.584782 0.221641 0.315638 0.427424
C50   C     C_1   0.577244 0.163549 0.158195 0.308962
C51   C     C_1   0.635726 0.338252 0.339405 0.328678
C52   C     C_1   0.648492 0.375882 0.378033 -0.027597
H13   H     H_    0.318492 0.290432 0.275209 0.216676
H14   H     H_    0.308249 0.244441 0.193692 0.148464
O11   O     O_R   0.724990 0.055630 0.941600 -0.534251
O12   O     O_R   0.395220 0.063160 0.056480 -0.534830
O13   O     O_R   0.225040 0.942970 0.056870 -0.537551
C53   C     C_R   0.562660 0.078035 0.075351 0.698754
O14   O     O_R   0.395270 0.063000 0.941990 -0.517986
O15   O     O_R   0.225080 0.942800 0.941570 -0.533608
C54   C     C_R   0.568305 0.077726 0.923352 0.706022
O16   O     O_R   0.724940 0.055790 0.056910 -0.530935
O17   O     O_3   0.558580 0.959880 0.999250 -0.377857
V3    V     V_3+5 0.283680 0.006590 0.999220 1.555230
O18   O     O_R   0.895380 0.935350 0.941950 -0.531771
C55   C     C_R   0.064770 0.920685 0.923054 0.724126
O19   O     O_R   0.895330 0.935520 0.056440 -0.531953
C56   C     C_R   0.060507 0.920594 0.075480 0.705591
V4    V     V_3+5 0.783690 0.991900 0.999180 1.549990
O20   O     O_3   0.058660 0.038680 0.999200 -0.368815
F1    F     F_    0.321536 0.652200 0.779201 -0.557327
S1    S     S_3+6 0.871638 0.776448 0.363563 0.104413
O21   O     O_2   0.003685 0.830363 0.375286 -0.308839
O22   O     O_2   0.679071 0.802062 0.362405 -0.240370
O23   O     O_3   0.877642 0.723692 0.416506 -0.479057
H15   H     H_    0.775383 0.693016 0.409382 0.361437
F2    F     F_    0.793692 0.692835 0.289360 -0.504202
S2    S     S_3+6 0.300045 0.713189 0.129362 0.129426
O24   O     O_2   0.356659 0.645579 0.122670 -0.212587
O25   O     O_2   0.237360 0.735896 0.073038 -0.326839
O26   O     O_3   0.488236 0.756081 0.145854 -0.403465
H16   H     H_    0.485917 0.794648 0.122209 0.358891
S3    S     S_3+6 0.907729 0.688012 0.144237 0.294956
O27   O     O_2   0.746792 0.669858 0.183298 -0.118927
O28   O     O_2   0.846465 0.737075 0.103367 -0.294927
O29   O     O_3   0.966568 0.622556 0.107826 -0.384090
H17   H     H_    0.964959 0.634427 0.067373 0.402312
F3    F     F_    0.450710 0.733713 0.284532 -0.518385
F4    F     F_    0.034425 0.618617 0.234213 -0.542245
S4    S     S_3+6 0.367481 0.108119 0.751145 0.233163
O30   O     O_2   0.301551 0.095213 0.692605 -0.156913
O31   O     O_2   0.517725 0.063043 0.763627 -0.313175
O32   O     O_3   0.197001 0.084624 0.796673 -0.416808
H18   H     H_    0.175291 0.039149 0.788686 0.377105
F5    F     F_    0.407017 0.213406 0.658967 -0.587860
F6    F     F_    0.922483 0.283677 0.683111 -0.485395
S5    S     S_3+6 0.802119 0.121296 0.696764 0.227730
O33   O     O_2   0.855165 0.067295 0.733647 -0.224791
O34   O     O_2   0.638219 0.102962 0.662852 -0.246492
O35   O     O_3   0.974611 0.131017 0.647097 -0.365826
H19   H     H_    0.915943 0.146296 0.612608 0.380889
S6    S     S_3+6 0.973683 0.207611 0.773756 0.218574
O36   O     O_2   0.101988 0.188081 0.727990 -0.181418
O37   O     O_2   0.017927 0.275209 0.787327 -0.202138
O38   O     O_3   0.987427 0.164493 0.833159 -0.455325
H20   H     H_    0.987369 0.195295 0.864711 0.365465
S7    S     S_3+6 0.461994 0.387626 0.782084 0.256810
O39   O     O_2   0.552279 0.431860 0.823120 -0.223206
O40   O     O_2   0.417994 0.424498 0.730200 -0.302141
O41   O     O_3   0.262807 0.360264 0.812574 -0.347020
H21   H     H_    0.188476 0.398295 0.820400 0.420907
F7    F     F_    0.794372 0.356803 0.762322 -0.559948
F8    F     F_    0.494262 0.284102 0.855967 -0.530257
F9    F     F_    0.276590 0.285320 0.715048 -0.469745
F10   F     F_    0.313696 0.213828 0.804753 -0.522757
S8    S     S_3+6 0.483391 0.308976 0.130274 0.229134
O42   O     O_2   0.620440 0.362955 0.135015 -0.172993
O43   O     O_2   0.553432 0.265894 0.084123 -0.280171
O44   O     O_3   0.280074 0.337067 0.109912 -0.378708
H22   H     H_    0.200959 0.299084 0.103458 0.386025
S9    S     S_3+6 0.393726 0.391331 0.247860 0.145490
O45   O     O_2   0.325810 0.414322 0.304898 -0.338016
O46   O     O_2   0.562913 0.429824 0.229652 -0.248937
O47   O     O_3   0.223050 0.402573 0.202743 -0.391567
H23   H     H_    0.200781 0.448575 0.203946 0.424512
F11   F     F_    0.954380 0.295550 0.280498 -0.589201
F12   F     F_    0.853820 0.262359 0.155243 -0.594001
S10   S     S_3+6 0.400142 0.216545 0.371631 0.205533
O48   O     O_2   0.324665 0.149843 0.375316 -0.159445
O49   O     O_2   0.479398 0.232693 0.427959 -0.289337
O50   O     O_3   0.221226 0.264661 0.363152 -0.413375
H24   H     H_    0.256638 0.304981 0.381561 0.353841
S11   S     S_3+6 0.788145 0.192451 0.351410 0.242873
O51   O     O_2   0.946607 0.176147 0.311601 -0.225629
O52   O     O_2   0.854070 0.240879 0.393069 -0.261440
O53   O     O_3   0.725443 0.126245 0.387217 -0.380267
H25   H     H_    0.834318 0.116134 0.409640 0.414388
F13   F     F_    0.351479 0.161061 0.263904 -0.592021
F14   F     F_    0.265588 0.807368 0.656729 -0.565838
F15   F     F_    0.633571 0.121216 0.265583 -0.585092
F16   F     F_    0.765490 0.706233 0.726084 -0.593313
F17   F     F_    0.747311 0.784441 0.220460 -0.528477

loop_
_geom_bond_atom_site_label_1
_geom_bond_atom_site_label_2
_ccdc_geom_bond_type
C11   H3    S    
O17   V3    S    
C46   S8    S    
V4    O20   S    
C46   H14   S    
S3    O28   D    
C23   C24   S    
C18   F17   S    
S8    O44   S    
C1    O6    A    
S7    O41   S    
S4    O30   D    
C32   C38   T    
C36   H10   S    
C22   F3    S    
C33   C39   S    
C27   C28   T    
C30   C33   S    
C6    C10   S    
C5    C12   S    
C17   H5    S    
C4    C7    S    
S8    O43   D    
O11   V4    S    
C33   C37   S    
C28   C56   S    
C44   C50   T    
C29   C33   S    
S1    O23   S    
C49   S11   S    
C34   F10   S    
C35   C36   S    
S2    O26   S    
C31   C35   S    
C17   C21   S    
O29   H17   S    
S5    O35   S    
C13   F14   S    
C9    F16   S    
O13   C56   A    
O8    V2    S    
S11   O51   D    
C41   C45   S    
C43   H12   S    
S1    O22   D    
C30   H9    S    
S3    O27   D    
S10   O50   S    
C45   C49   S    
C46   C47   S    
O1    V2    S    
O7    V1    S    
C21   C27   S    
C9    C11   S    
O14   V3    S    
S11   O52   D    
O9    C4    A    
C3    C20   S    
C6    F1    S    
C17   H8    S    
C19   C23   S    
O15   C55   A    
O4    V1    S    
S9    O46   D    
S9    O45   D    
C8    C55   S    
V3    O20   S    
C25   S3    S    
C19   F2    S    
V2    O10   S    
S4    O32   S    
C6    C14   S    
S8    O42   D    
O12   C53   A    
O19   C56   A    
O4    C2    A    
C5    H1    S    
C21   C25   S    
H2    C14   S    
S6    O38   S    
C37   F7    S    
C11   C12   S    
C53   O16   A    
C7    C15   T    
C1    C40   S    
C18   H6    S    
C42   F11   S    
C39   C40   T    
C42   H11   S    
C43   F12   S    
O2    C1    A    
C51   C52   T    
C20   C26   T    
O16   V4    S    
O19   V4    S    
C24   F4    S    
O23   H15   S    
C5    C9    S    
C41   C46   S    
C37   S7    S    
C9    C10   S    
C10   C13   S    
C29   C34   S    
S1    O21   D    
C34   C35   S    
C5    C6    S    
C48   F15   S    
C36   F8    S    
C30   C31   S    
C18   C21   S    
C42   C45   S    
O47   H23   S    
S2    O25   D    
S5    O33   D    
O41   H21   S    
O3    C4    A    
C22   C23   S    
O14   C54   A    
S10   O49   D    
C12   C16   S    
O6    V2    S    
O9    V2    S    
C49   S10   S    
C31   S5    S    
C23   C26   S    
C30   F6    S    
C11   C13   S    
C24   C25   S    
S7    O39   D    
O2    V1    S    
O11   C54   A    
S9    O47   S    
O38   H20   S    
C41   H13   S    
S6    O37   D    
C8    C16   T    
O1    C2    A    
C31   S6    S    
O15   V3    S    
C19   S1    S    
C48   C49   S    
S7    O40   D    
O5    V1    S    
C47   C50   S    
S4    O31   D    
O8    C3    A    
C2    C52   S    
C34   S4    S    
S11   O53   S    
O26   H16   S    
C12   C14   S    
C35   C38   S    
C44   C53   S    
C42   C43   S    
C32   C54   S    
H4    C22   S    
O7    V2    S    
C25   S2    S    
C47   C48   S    
O12   V3    S    
O3    V1    S    
C43   C47   S    
O32   H18   S    
O53   H25   S    
O5    C3    A    
C36   C37   S    
C29   F5    S    
S6    O36   D    
O17   V4    S    
S3    O29   S    
C18   C19   S    
C45   C51   S    
C24   H7    S    
C17   C22   S    
O18   V4    S    
S2    O24   D    
S5    O34   D    
O13   V3    S    
C10   C15   S    
S10   O48   D    
O50   H24   S    
C48   F13   S    
V1    O10   S    
O18   C55   A    
C29   F9    S    
C41   S9    S    
O44   H22   S    
O35   H19   S    
C13   C14   S    
