data_mof_unit_67617.cif
_audit_creation_date              2013-03-05T16:14:30-0500
_audit_creation_method            fapswitch 2.2
_symmetry_space_group_name_H-M    P1
_symmetry_Int_Tables_number       1
_space_group_crystal_system       triclinic
_cell_length_a                    10.768334
_cell_length_b                    10.833755
_cell_length_c                    9.6993
_cell_angle_alpha                 88.782225
_cell_angle_beta                  90.422885
_cell_angle_gamma                 92.091723
_cell_volume                      1130.50074041

loop_
_atom_site_label
_atom_site_type_symbol
_atom_site_description
_atom_site_fract_x
_atom_site_fract_y
_atom_site_fract_z
_atom_type_partial_charge
O1    O     O_R   0.500060 0.316850 0.620870 -0.512424
O2    O     O_R   0.499940 0.683150 0.379130 -0.512425
O3    O     O_R   0.500000 0.316860 0.379090 -0.551664
O4    O     O_R   0.500000 0.683140 0.620910 -0.551664
C1    C     C_R   0.501731 0.260282 0.500481 0.926703
C2    C     C_R   0.498270 0.739718 0.499519 0.926701
O5    O     O_R   0.316880 0.499960 0.620870 -0.525368
O6    O     O_R   0.683120 0.500040 0.379130 -0.525368
O7    O     O_R   0.316830 0.499970 0.379090 -0.549158
O8    O     O_R   0.683170 0.500030 0.620910 -0.549159
C3    C     C_R   0.260251 0.500255 0.499614 0.879725
C4    C     C_R   0.739749 0.499745 0.500386 0.879725
Cu1   Cu    Cu3+1 0.500030 0.499990 0.643150 1.107961
Cu2   Cu    Cu3+1 0.499970 0.500010 0.356850 1.107961
C5    C     C_3   0.038434 0.411700 0.583177 0.449710
C6    C     C_3   0.961566 0.588300 0.416823 0.449711
C7    C     C_3   0.955223 0.390051 0.456188 0.234171
C8    C     C_3   0.044777 0.609948 0.543812 0.234165
C9    C     C_3   0.877110 0.498513 0.501105 -0.185822
C10   C     C_3   0.122890 0.501487 0.498895 -0.185823
C11   C     C_3   0.960081 0.519203 0.630079 -0.383707
C12   C     C_3   0.039919 0.480796 0.369922 -0.383703
H1    H     H_    0.924936 0.524285 0.736125 0.220757
H2    H     H_    0.075065 0.475715 0.263876 0.220758
C13   C     C_3   0.578980 0.041106 0.594840 0.390608
C14   C     C_3   0.421021 0.958894 0.405160 0.390605
C15   C     C_3   0.613946 0.961394 0.472810 0.125167
C16   C     C_3   0.386055 0.038606 0.527190 0.125164
C17   C     C_3   0.497953 0.877119 0.500852 -0.308499
C18   C     C_3   0.502048 0.122881 0.499147 -0.308498
C19   C     C_3   0.463536 0.957123 0.624397 0.214553
C20   C     C_3   0.536465 0.042877 0.375603 0.214557
C21   C     C_3   0.508908 0.611514 0.047201 0.141123
C22   C     C_3   0.491092 0.388485 0.952799 0.141123
C23   C     C_3   0.407999 0.559541 0.949312 0.258045
C24   C     C_3   0.592001 0.440459 0.050688 0.258045
N1    N     N_3   0.500090 0.499970 0.858290 -0.259553
N2    N     N_3   0.499910 0.500030 0.141710 -0.259553
C25   C     C_3   0.599466 0.550968 0.948675 0.390548
C26   C     C_3   0.400534 0.449032 0.051325 0.390549
Br1   Br    Br    0.891338 0.228121 0.404117 -0.399056
Br2   Br    Br    0.108661 0.771879 0.595883 -0.399059
O9    O     O_3   0.086560 0.317727 0.668323 -0.528441
C27   C     C_3   0.994826 0.271501 0.760957 0.118727
H3    H     H_    0.901022 0.261381 0.712204 0.188343
H4    H     H_    0.989493 0.334403 0.849513 0.157851
C28   C     C_3   0.031132 0.144863 0.814540 -0.698969
H5    H     H_    0.130010 0.146722 0.846669 0.271619
H6    H     H_    0.972804 0.115558 0.903450 0.180659
H7    H     H_    0.018570 0.075923 0.732645 0.295512
O10   O     O_3   0.913439 0.682271 0.331676 -0.528442
C29   C     C_3   0.005175 0.728501 0.239046 0.118726
H8    H     H_    0.010514 0.665600 0.150490 0.157851
H9    H     H_    0.098977 0.738625 0.287802 0.188343
C30   C     C_3   0.968864 0.855137 0.185461 -0.698968
H10   H     H_    0.981431 0.924080 0.267352 0.295507
H11   H     H_    0.027187 0.884440 0.096545 0.180658
H12   H     H_    0.869984 0.853277 0.153338 0.271624
Br3   Br    Br    0.776625 0.900662 0.443500 -0.416555
Br4   Br    Br    0.223377 0.099340 0.556502 -0.416555
O11   O     O_3   0.662594 0.093399 0.690894 -0.516827
C31   C     C_3   0.728780 0.000585 0.759848 0.076082
H13   H     H_    0.824735 0.003040 0.720599 0.195963
H14   H     H_    0.689847 0.904898 0.745795 0.157889
C32   C     C_3   0.730586 0.027272 0.912122 -0.636265
H15   H     H_    0.638590 0.998891 0.954138 0.318283
H16   H     H_    0.802249 0.974736 0.966989 0.173857
H17   H     H_    0.749867 0.127214 0.929053 0.302446
O12   O     O_3   0.337408 0.906602 0.309104 -0.516826
C33   C     C_3   0.271219 0.999416 0.240155 0.076085
H18   H     H_    0.310155 0.095102 0.254203 0.157892
H19   H     H_    0.175266 0.996962 0.279412 0.195966
C34   C     C_3   0.269400 0.972727 0.087882 -0.636280
H20   H     H_    0.250117 0.872787 0.070955 0.302442
H21   H     H_    0.197735 0.025263 0.033021 0.173852
H22   H     H_    0.361392 0.001108 0.045856 0.318282
Br5   Br    Br    0.405389 0.897161 0.798795 -0.388134
Br6   Br    Br    0.594609 0.102841 0.201204 -0.388139
Br7   Br    Br    0.253248 0.628290 0.887917 -0.404537
Br8   Br    Br    0.746754 0.371713 0.112082 -0.404542
Br9   Br    Br    0.516153 0.780067 0.107541 -0.420921
Br10  Br    Br    0.483845 0.219933 0.892458 -0.420928
O13   O     O_3   0.713027 0.587407 0.885096 -0.538256
C35   C     C_3   0.765411 0.693646 0.945350 0.035950
H23   H     H_    0.783000 0.676778 0.057167 0.207773
H24   H     H_    0.703319 0.771344 0.928765 0.190517
C36   C     C_3   0.886914 0.729148 0.873417 -0.751449
H25   H     H_    0.871486 0.732555 0.760176 0.285986
H26   H     H_    0.921962 0.821754 0.903320 0.209012
H27   H     H_    0.958752 0.662168 0.901561 0.270088
O14   O     O_3   0.286974 0.412592 0.114904 -0.538260
C37   C     C_3   0.234589 0.306354 0.054650 0.035944
H28   H     H_    0.296681 0.228658 0.071233 0.190523
H29   H     H_    0.216998 0.323224 0.942836 0.207774
C38   C     C_3   0.113084 0.270851 0.126583 -0.751451
H30   H     H_    0.041248 0.337835 0.098442 0.270089
H31   H     H_    0.078031 0.178247 0.096674 0.209015
H32   H     H_    0.128515 0.267437 0.239823 0.285986

loop_
_geom_bond_atom_site_label_1
_geom_bond_atom_site_label_2
_geom_bond_distance
_ccdc_geom_bond_type
C13   C19   1.538511 S    
C18   C20   1.548755 S    
C30   H10   1.106040 S    
C14   C20   1.538512 S    
C15   C17   1.542382 S    
C8    C11   1.552181 S    
C34   H20   1.110412 S    
C38   H30   1.108584 S    
C35   C36   1.520505 S    
C36   H25   1.109680 S    
C38   H32   1.109681 S    
C28   H6    1.104894 S    
C27   H3    1.114903 S    
O5    C3    1.320785 A    
C21   C25   1.543215 S    
O1    C1    1.330760 A    
C9    C11   1.547322 S    
C35   H24   1.102381 S    
C8    Br2   1.936588 S    
C22   N1    1.501385 S    
C8    C10   1.541874 S    
O4    Cu1   1.991342 S    
C31   H14   1.114644 S    
C21   C23   1.536909 S    
O13   C35   1.400284 S    
C27   H4    1.110821 S    
C32   H16   1.102622 S    
O6    Cu2   1.982428 S    
C6    O10   1.408381 S    
C33   H18   1.114638 S    
Cu1   N1    2.086697 S    
O11   C31   1.408196 S    
C29   C30   1.520231 S    
Cu1   Cu2   2.776900 S    
C17   C19   1.548755 S    
C34   H21   1.102620 S    
O2    C2    1.330760 A    
C29   H9    1.114909 S    
C19   Br5   1.901213 S    
C28   H7    1.106043 S    
C16   Br4   1.918829 S    
C5    C10   1.534328 S    
C3    C10   1.479661 S    
O10   C29   1.411290 S    
C35   H23   1.112014 S    
O4    C2    1.316127 A    
C24   Br8   1.934788 S    
O14   C37   1.400277 S    
O7    Cu2   1.985439 S    
C24   C25   1.537084 S    
C37   C38   1.520518 S    
O9    C27   1.411287 S    
C31   H13   1.103029 S    
Cu2   N2    2.086699 S    
C28   H5    1.106803 S    
C5    C11   1.541167 S    
O6    C4    1.320784 A    
C32   H17   1.110429 S    
C33   C34   1.510845 S    
C37   H29   1.111998 S    
C30   H11   1.104893 S    
C13   O11   1.404440 S    
O7    C3    1.322332 A    
O3    Cu2   1.991342 S    
O8    C4    1.322332 A    
C10   C12   1.547322 S    
C36   H26   1.102831 S    
C34   H22   1.104702 S    
C12   H2    1.101772 S    
C36   H27   1.108571 S    
O1    Cu1   2.000400 S    
C24   N2    1.504390 S    
C29   H8    1.110823 S    
C1    C18   1.489027 S    
C13   C18   1.529672 S    
C5    C7    1.534810 S    
C38   H31   1.102842 S    
C6    C12   1.541166 S    
C31   C32   1.510851 S    
C23   N1    1.504391 S    
C15   C20   1.539849 S    
C16   C19   1.539849 S    
C21   N2    1.501386 S    
O3    C1    1.316126 A    
O8    Cu1   1.985440 S    
C27   C28   1.520231 S    
C13   C15   1.536953 S    
C14   C16   1.536953 S    
C7    C12   1.552181 S    
C11   H1    1.101772 S    
C23   C26   1.537084 S    
C5    O9    1.408382 S    
C16   C18   1.542380 S    
N1    C25   1.477336 S    
C15   Br3   1.918830 S    
N2    C26   1.477336 S    
C6    C9    1.534328 S    
C4    C9    1.479662 S    
C23   Br7   1.934784 S    
C37   H28   1.102362 S    
C7    C9    1.541874 S    
C22   C24   1.536909 S    
C26   O14   1.413171 S    
O12   C33   1.408194 S    
O2    Cu2   2.000400 S    
C7    Br1   1.936586 S    
C25   O13   1.413176 S    
C20   Br6   1.901217 S    
O5    Cu1   1.982428 S    
C2    C17   1.489027 S    
C14   C17   1.529673 S    
C6    C8    1.534811 S    
C32   H15   1.104716 S    
C30   H12   1.106806 S    
C14   O12   1.404440 S    
C22   C26   1.543215 S    
C33   H19   1.103029 S    
C22   Br10  1.928076 S    
C21   Br9   1.928076 S    
