data_mof_unit_62810.cif
_audit_creation_date              2012-10-26T21:22:21-0400
_audit_creation_method            fapswitch 2.2
_symmetry_space_group_name_H-M    P1
_symmetry_Int_Tables_number       1
_space_group_crystal_system       monoclinic
_cell_length_a                    15.997852
_cell_length_b                    14.75744
_cell_length_c                    17.772009
_cell_angle_alpha                 90.0
_cell_angle_beta                  89.98972
_cell_angle_gamma                 90.0
_cell_volume                      4195.74628184

loop_
_atom_site_label
_atom_site_type_symbol
_atom_type_description
_atom_site_fract_x
_atom_site_fract_y
_atom_site_fract_z
_atom_type_partial_charge
C1    C     C_R   0.340819 0.500000 0.500012 0.552998
C2    C     C_R   0.524755 0.047911 0.564145 -0.104803
C3    C     C_R   0.500000 0.902869 0.500000 0.002084
C4    C     C_R   0.500000 0.097131 0.500000 0.002245
C5    C     C_1   0.500000 0.802738 0.500000 0.126769
C6    C     C_1   0.500000 0.197263 0.500000 0.126852
C7    C     C_R   0.499996 0.500000 0.355225 0.547543
C8    C     C_R   0.500004 0.500000 0.644775 0.547543
C9    C     C_R   0.487870 0.581584 0.845732 -0.013567
C10   C     C_R   0.487836 0.418412 0.154274 -0.013426
C11   C     C_R   0.512130 0.581584 0.154268 -0.013566
C12   C     C_R   0.659181 0.500000 0.499987 0.552998
C13   C     C_R   0.512163 0.418411 0.845726 -0.013425
C14   C     C_R   0.488243 0.581151 0.767184 -0.134355
C15   C     C_R   0.488211 0.418847 0.232822 -0.134163
C16   C     C_R   0.511756 0.581151 0.232816 -0.134349
C17   C     C_R   0.511789 0.418847 0.767178 -0.134157
C18   C     C_R   0.500012 0.499999 0.727475 -0.015194
C19   C     C_R   0.499988 0.499999 0.272525 -0.015194
C20   C     C_R   0.500014 0.499996 0.885390 0.010503
C21   C     C_R   0.499986 0.499996 0.114610 0.010503
C22   C     C_1   0.500004 0.499994 0.966269 0.011397
C23   C     C_1   0.823343 0.500000 0.499990 -0.052324
C24   C     C_1   0.499995 0.499994 0.033731 0.011397
C25   C     C_R   0.956380 0.582246 0.500298 -0.101011
C26   C     C_R   0.043619 0.417754 0.499702 -0.101007
C27   C     C_R   0.043619 0.582246 0.500303 -0.101011
C28   C     C_R   0.956380 0.417754 0.499697 -0.101007
C29   C     C_R   0.912792 0.500000 0.499994 0.038809
C30   C     C_R   0.087208 0.500000 0.500006 0.038809
C31   C     C_1   0.474568 0.666532 0.884362 0.207741
C32   C     C_1   0.474530 0.333462 0.115650 0.207654
C33   C     C_1   0.525431 0.666532 0.115638 0.207745
C34   C     C_1   0.176657 0.500000 0.500010 -0.052324
C35   C     C_1   0.525469 0.333462 0.884350 0.207658
C36   C     C_1   0.251701 0.500000 0.500012 -0.019743
C37   C     C_1   0.748299 0.500000 0.499987 -0.019743
C38   C     C_R   0.524754 0.952090 0.564145 -0.104863
C39   C     C_R   0.475245 0.047911 0.435855 -0.104807
C40   C     C_R   0.475246 0.952090 0.435855 -0.104860
Cu1   Cu    Cu3+1 0.500000 0.589220 0.500000 0.994986
Cu2   Cu    Cu3+1 0.500000 0.410780 0.500000 0.995108
H1    H     H_    0.478777 0.644228 0.737069 0.139902
H2    H     H_    0.455834 0.916376 0.385551 0.118991
H3    H     H_    0.455832 0.083625 0.385552 0.118724
H4    H     H_    0.544166 0.916376 0.614448 0.118987
H5    H     H_    0.478742 0.355771 0.262942 0.139425
H6    H     H_    0.521223 0.644228 0.262931 0.139907
H7    H     H_    0.521257 0.355771 0.737058 0.139429
H8    H     H_    0.077012 0.646126 0.500539 0.118384
H9    H     H_    0.922988 0.353874 0.499462 0.118391
H10   H     H_    0.922987 0.646126 0.500529 0.118382
H11   H     H_    0.077012 0.353874 0.499470 0.118387
H12   H     H_    0.544168 0.083625 0.614448 0.118729
N1    N     N_1   0.500000 0.276710 0.500000 -0.192555
N2    N     N_1   0.500000 0.723290 0.500000 -0.192565
N3    N     N_1   0.463812 0.734636 0.915148 -0.248590
N4    N     N_1   0.463770 0.265359 0.084868 -0.248858
N5    N     N_1   0.536188 0.734636 0.084852 -0.248587
N6    N     N_1   0.536230 0.265359 0.915132 -0.248856
O1    O     O_R   0.380310 0.575320 0.500010 -0.487827
O2    O     O_R   0.619690 0.424680 0.499990 -0.487824
O3    O     O_R   0.619690 0.575320 0.499990 -0.487827
O4    O     O_R   0.380310 0.424680 0.500010 -0.487824
O5    O     O_R   0.500000 0.575370 0.391250 -0.497239
O6    O     O_R   0.500000 0.424630 0.608750 -0.497139
O7    O     O_R   0.500000 0.575370 0.608750 -0.497245
O8    O     O_R   0.500000 0.424630 0.391250 -0.497145

loop_
_geom_bond_atom_site_label_1
_geom_bond_atom_site_label_2
_ccdc_geom_bond_type
Cu2   O4    S    
C2    C4    A    
C9    C14   A    
C26   H11   S    
Cu1   N2    S    
C8    O6    A    
C12   C37   S    
C15   H5    S    
Cu2   N1    S    
C7    O5    A    
C12   O2    A    
Cu1   Cu2   S    
C14   C18   A    
C5    N2    T    
C26   C28   A    
C27   H8    S    
C23   C37   T    
C4    C39   A    
Cu1   O1    S    
C32   N4    T    
C39   H3    S    
C2    C38   A    
C31   N3    T    
C17   C18   A    
C25   H10   S    
C33   N5    T    
C2    H12   S    
C27   C30   A    
Cu2   O8    S    
C16   H6    S    
Cu2   O2    S    
C6    N1    T    
C23   C29   S    
C4    C6    S    
C28   C29   A    
C34   C36   T    
C20   C22   S    
C3    C40   A    
C13   C35   S    
C9    C31   S    
C40   H2    S    
C10   C15   A    
C16   C19   A    
C10   C21   A    
C25   C29   A    
C28   H9    S    
C22   C24   T    
C38   H4    S    
C25   C27   A    
Cu1   O3    S    
C13   C17   A    
C1    O4    A    
C10   C32   S    
C11   C33   S    
C3    C38   A    
C8    O7    A    
Cu1   O7    S    
C11   C16   A    
C21   C24   S    
C17   H7    S    
C39   C40   A    
Cu2   O6    S    
C12   O3    A    
C30   C34   S    
C14   H1    S    
C7    C19   S    
Cu1   O5    S    
C9    C20   A    
C13   C20   A    
C7    O8    A    
C15   C19   A    
C11   C21   A    
C8    C18   S    
C1    C36   S    
C35   N6    T    
C3    C5    S    
C26   C30   A    
C1    O1    A    
