data_mof_unit_31015.cif
_audit_creation_date              2013-03-05T16:31:36-0500
_audit_creation_method            fapswitch 2.2
_symmetry_space_group_name_H-M    P1
_symmetry_Int_Tables_number       1
_space_group_crystal_system       triclinic
_cell_length_a                    9.594605
_cell_length_b                    10.911054
_cell_length_c                    15.295182
_cell_angle_alpha                 88.824136
_cell_angle_beta                  74.947031
_cell_angle_gamma                 91.153298
_cell_volume                      1545.40377097

loop_
_atom_site_label
_atom_site_type_symbol
_atom_site_description
_atom_site_fract_x
_atom_site_fract_y
_atom_site_fract_z
_atom_type_partial_charge
O1    O     O_R   0.118810 0.319640 0.500000 -0.615259
O2    O     O_R   0.881230 0.319680 0.499990 -0.580411
C1    C     C_R   0.998091 0.263119 0.501117 0.789774
O3    O     O_R   0.055580 0.499970 0.629840 -0.603610
O4    O     O_R   0.818000 0.500010 0.629830 -0.581405
C2    C     C_R   0.918772 0.498640 0.672627 0.810141
Cu1   Cu    Cu3+1 0.140670 0.499980 0.500000 0.926628
Cu2   Cu    Cu3+1 0.859330 0.500020 0.500000 0.940479
O5    O     O_R   0.118770 0.680320 0.500010 -0.573950
O6    O     O_R   0.881190 0.680360 0.500000 -0.595260
O7    O     O_R   0.182000 0.499990 0.370170 -0.579600
O8    O     O_R   0.944420 0.500030 0.370160 -0.571136
C3    C     C_R   0.000660 0.737596 0.500742 0.800340
C4    C     C_R   0.081509 0.498244 0.327554 0.787149
C5    C     C_R   0.874466 0.492371 0.772366 -0.122199
C6    C     C_R   0.128361 0.511046 0.228309 -0.116829
C7    C     C_R   0.922067 0.437141 0.916511 0.255523
C8    C     C_R   0.969724 0.455895 0.822550 -0.207788
C9    C     C_R   0.731940 0.517000 0.817120 -0.238375
C10   C     C_R   0.680963 0.505142 0.911803 0.057277
C11   C     C_R   0.775787 0.459620 0.961861 0.073387
C12   C     C_R   0.536111 0.533209 0.957154 0.075064
C13   C     C_R   0.480173 0.497483 0.049736 0.053011
C14   C     C_R   0.577085 0.454670 0.097996 -0.128420
C15   C     C_R   0.721286 0.436184 0.055174 -0.219232
C16   C     C_R   0.447646 0.601010 0.913934 -0.187628
C17   C     C_R   0.308781 0.631432 0.959912 -0.178797
C18   C     C_R   0.250365 0.590531 0.048925 0.113959
C19   C     C_R   0.331327 0.515063 0.093019 0.062359
C20   C     C_R   0.111879 0.625970 0.094678 -0.221032
C21   C     C_R   0.054280 0.590133 0.184555 -0.241343
C22   C     C_R   0.259923 0.461679 0.179109 0.206876
H1    H     H_    0.787834 0.401105 0.096625 0.155568
H2    H     H_    0.953658 0.627167 0.220847 0.199550
H3    H     H_    0.246719 0.687906 0.925483 0.144933
H4    H     H_    0.080908 0.438144 0.788602 0.194921
H5    H     H_    0.660154 0.540371 0.776018 0.166819
H6    H     H_    0.545220 0.440532 0.170587 0.194359
H7    H     H_    0.485983 0.639371 0.846200 0.140936
H8    H     H_    0.050515 0.685731 0.062070 0.163349
C23   C     C_R   0.119558 0.067361 0.493829 0.133448
C24   C     C_R   0.993877 0.131012 0.504107 -0.102698
C25   C     C_R   0.864018 0.061801 0.517953 -0.208728
H9    H     H_    0.761463 0.106479 0.528072 0.168686
C26   C     C_R   0.866389 0.932835 0.518541 -0.222791
H10   H     H_    0.764834 0.882531 0.530015 0.157782
C27   C     C_R   0.998602 0.870905 0.504276 -0.110741
C28   C     C_R   0.123001 0.943860 0.493564 0.137438
C29   C     C_3   0.284080 0.947148 0.472799 -0.502144
C30   C     C_3   0.277935 0.087144 0.473098 -0.457722
H11   H     H_    0.323579 0.910163 0.529984 0.200431
H12   H     H_    0.335064 0.913242 0.404206 0.204173
H13   H     H_    0.312510 0.128778 0.530022 0.201523
H14   H     H_    0.323242 0.131666 0.405321 0.200571
C31   C     C_R   0.603197 0.557075 0.431053 0.246210
N1    N     N_R   0.648210 0.500930 0.499430 -0.230116
C32   C     C_R   0.548727 0.434140 0.562665 -0.054932
H15   H     H_    0.585091 0.381907 0.613090 0.188062
C33   C     C_R   0.399832 0.433161 0.563680 0.065129
N2    N     N_R   0.352300 0.500890 0.499430 -0.237181
C34   C     C_R   0.455539 0.556101 0.431190 0.238685
C35   C     C_3   0.458417 0.688028 0.408405 -0.493852
C36   C     C_3   0.616357 0.691637 0.408004 -0.241921
H16   H     H_    0.433540 0.706175 0.342319 0.223998
H17   H     H_    0.391092 0.734791 0.466762 0.197111
H18   H     H_    0.638190 0.747450 0.463001 0.135296
C37   C     C_2   0.300431 0.357525 0.636099 0.309280
H19   H     H_    0.196112 0.326544 0.630984 0.138943
O9    O     O_2   0.336263 0.325654 0.703990 -0.591916
N3    N     N_2   0.309269 0.350135 0.210310 -0.454791
H20   H     H_    0.273834 0.329826 0.278588 0.266159
C38   C     C_3   0.295568 0.244239 0.157355 -0.709836
H21   H     H_    0.341912 0.163464 0.183865 0.230603
H22   H     H_    0.355002 0.259943 0.085237 0.247685
H23   H     H_    0.179841 0.223776 0.162056 0.225540
C39   C     C_2   0.715534 0.723097 0.316610 0.384715
H24   H     H_    0.808394 0.783693 0.311927 0.059313
O10   O     O_2   0.693743 0.681293 0.247658 -0.569883
N4    N     N_2   0.023933 0.395839 0.963036 -0.429334
H25   H     H_    0.011373 0.426805 0.027529 0.260915
C40   C     C_3   0.053926 0.266671 0.955175 -0.651976
H26   H     H_    0.140244 0.244871 0.988891 0.228228
H27   H     H_    0.091911 0.242269 0.882835 0.255244
H28   H     H_    0.955305 0.211118 0.988341 0.215264

loop_
_geom_bond_atom_site_label_1
_geom_bond_atom_site_label_2
_geom_bond_distance
_ccdc_geom_bond_type
C5    C8    1.396208 A    
C31   N1    1.369142 A    
C1    C24   1.440626 S    
C23   C24   1.378721 A    
Cu1   N2    2.028083 S    
C9    C10   1.405371 A    
Cu2   N1    2.028119 S    
C40   H26   1.110475 S    
Cu1   Cu2   2.699354 S    
C26   H10   1.080358 S    
C6    C21   1.394914 A    
Cu1   O7    1.921333 S    
C16   C17   1.385853 A    
C30   H14   1.111917 S    
C13   C19   1.428187 A    
C18   C19   1.418233 A    
C39   O10   1.222475 D    
C19   C22   1.423519 A    
C38   H23   1.111667 S    
C20   C21   1.386608 A    
O7    C4    1.296563 A    
C16   H7    1.077899 S    
C32   C33   1.424457 A    
C36   C39   1.501200 S    
C7    N4    1.424968 S    
N1    C32   1.356895 A    
O5    C3    1.302717 A    
C35   H16   1.112152 S    
C9    H5    1.077057 S    
C33   C37   1.483106 S    
C2    C5    1.473210 S    
C29   H11   1.111468 S    
C31   C36   1.498018 S    
C14   H6    1.079240 S    
C13   C14   1.409799 A    
N3    H20   1.028761 S    
C36   H18   1.108945 S    
C33   N2    1.391542 A    
O3    Cu1   1.941199 S    
C40   H27   1.111070 S    
C26   C27   1.417804 A    
C30   H13   1.111145 S    
C37   H19   1.072537 S    
C14   C15   1.389190 A    
O3    C2    1.305413 A    
N4    C40   1.445296 S    
C22   N3    1.431732 S    
C17   H3    1.084381 S    
C7    C11   1.423471 A    
N2    C34   1.358898 A    
O1    C1    1.297190 A    
C5    C9    1.395316 A    
C25   H9    1.083095 S    
C35   C36   1.513509 S    
C27   C28   1.392799 A    
Cu2   O8    1.941199 S    
C29   H12   1.110627 S    
C7    C8    1.399703 A    
C21   H2    1.072389 S    
C20   H8    1.084066 S    
C39   H24   1.085017 S    
C25   C26   1.407681 A    
C38   H22   1.110345 S    
C28   C29   1.494330 S    
C10   C12   1.425337 A    
C4    C6    1.469746 S    
C24   C25   1.409261 A    
C23   C30   1.479843 S    
C40   H28   1.111328 S    
C3    C27   1.456998 S    
Cu1   O5    1.983086 S    
C11   C15   1.402794 A    
C35   H17   1.098530 S    
O1    Cu1   1.974644 S    
O2    Cu2   1.983085 S    
O8    C4    1.308217 A    
C38   H21   1.110690 S    
O6    C3    1.297032 A    
O4    Cu2   1.921330 S    
C6    C22   1.414349 A    
C18   C20   1.397695 A    
O2    C1    1.294520 A    
C32   H15   1.082179 S    
O4    C2    1.300948 A    
C31   C34   1.416004 A    
C23   C28   1.348657 A    
C34   C35   1.472100 S    
N4    H25   1.027277 S    
C10   C11   1.423041 A    
Cu2   O6    1.974644 S    
C29   C30   1.529882 S    
C12   C16   1.414699 A    
C17   C18   1.391240 A    
C12   C13   1.421047 A    
N3    C38   1.447737 S    
C37   O9    1.221817 D    
C8    H4    1.081593 S    
C15   H1    1.079943 S    
