data_mof_unit_45768.cif
_audit_creation_date              2012-12-10T18:03:58-0500
_audit_creation_method            fapswitch 2.2
_symmetry_space_group_name_H-M    P1
_symmetry_Int_Tables_number       1
_space_group_crystal_system       triclinic
_cell_length_a                    10.88979
_cell_length_b                    9.498356
_cell_length_c                    10.825735
_cell_angle_alpha                 89.480673
_cell_angle_beta                  91.370992
_cell_angle_gamma                 89.480394
_cell_volume                      1119.34617887

loop_
_atom_site_label
_atom_site_type_symbol
_atom_type_description
_atom_site_fract_x
_atom_site_fract_y
_atom_site_fract_z
_atom_type_partial_charge
C1    C     C_R   0.261846 0.501141 0.498573 0.807836
C2    C     C_R   0.737939 0.499595 0.504288 0.820580
C3    C     C_R   0.426373 0.075981 0.419034 -0.032681
C4    C     C_R   0.576034 0.072854 0.578724 -0.029777
C5    C     C_R   0.428039 0.927098 0.417577 -0.019483
C6    C     C_R   0.574448 0.923948 0.580230 -0.028262
C7    C     C_R   0.491077 0.500866 0.262497 0.833433
C8    C     C_R   0.495519 0.499172 0.738186 0.836779
C9    C     C_R   0.492393 0.625393 0.062670 0.064648
C10   C     C_R   0.496025 0.623053 0.936272 0.087040
C11   C     C_R   0.467919 0.503933 0.129848 -0.174996
C12   C     C_R   0.477573 0.498423 0.871511 -0.184345
C13   C     C_R   0.417772 0.387517 0.066423 0.193589
C14   C     C_R   0.428960 0.380868 0.936107 0.163830
C15   C     C_3   0.599800 0.724763 0.934444 -0.470200
C16   C     C_3   0.594329 0.728381 0.074307 -0.433461
C17   C     C_R   0.063685 0.380852 0.472941 -0.247364
C18   C     C_R   0.936711 0.379615 0.475111 -0.251827
C19   C     C_R   0.871862 0.500341 0.509250 -0.095770
C20   C     C_R   0.127710 0.504764 0.498937 -0.098657
C21   C     C_R   0.935424 0.623308 0.543511 0.216945
C22   C     C_R   0.062773 0.629103 0.529295 0.203347
Cu1   Cu    Cu3+1 0.500000 0.640660 0.500000 0.958687
Cu2   Cu    Cu3+1 0.500000 0.359340 0.500000 0.956461
H1    H     H_    0.685476 0.675192 0.902462 0.190327
H2    H     H_    0.562410 0.831509 0.109943 0.195408
H3    H     H_    0.573532 0.826406 0.889035 0.194787
H4    H     H_    0.677589 0.683209 0.121808 0.193287
H5    H     H_    0.111697 0.285081 0.448406 0.167684
H6    H     H_    0.889274 0.283938 0.449862 0.171278
H7    H     H_    0.366795 0.133279 0.354901 0.143629
H8    H     H_    0.637925 0.127767 0.640692 0.113063
H9    H     H_    0.371768 0.872106 0.350525 0.117375
H10   H     H_    0.633238 0.866442 0.644976 0.140570
N1    N     N_R   0.500000 0.852070 0.500000 -0.149882
N2    N     N_R   0.500000 0.147940 0.500000 -0.148672
O1    O     O_R   0.319640 0.618740 0.499990 -0.548555
O2    O     O_R   0.680360 0.618740 0.500010 -0.549535
O3    O     O_R   0.319620 0.381170 0.499990 -0.588100
O4    O     O_R   0.680380 0.381170 0.500010 -0.602182
O5    O     O_R   0.499990 0.618810 0.319660 -0.597050
O6    O     O_R   0.500010 0.618810 0.680340 -0.583944
O7    O     O_R   0.499960 0.381240 0.319650 -0.552995
O8    O     O_R   0.500040 0.381240 0.680350 -0.552092
N3    N     N_2   0.356322 0.280147 0.133453 -0.420235
H11   H     H_    0.360472 0.180314 0.097820 0.248851
C23   C     C_3   0.233391 0.318922 0.169011 -0.712290
H12   H     H_    0.193652 0.232655 0.224732 0.211444
H13   H     H_    0.173821 0.337099 0.085473 0.219151
H14   H     H_    0.234948 0.415704 0.225855 0.227565
N4    N     N_2   0.392005 0.258107 0.871044 -0.396349
H15   H     H_    0.305722 0.223055 0.892629 0.247943
C24   C     C_3   0.483288 0.146139 0.871657 -0.670655
H16   H     H_    0.452103 0.061341 0.808778 0.224273
H17   H     H_    0.497359 0.100281 0.965541 0.196107
H18   H     H_    0.572755 0.186404 0.840232 0.230291
N5    N     N_2   0.872182 0.737261 0.599472 -0.416533
H19   H     H_    0.895688 0.836452 0.569754 0.252273
C25   C     C_3   0.868806 0.725366 0.732475 -0.741021
H20   H     H_    0.962960 0.730561 0.773843 0.218815
H21   H     H_    0.827068 0.623602 0.759095 0.227134
H22   H     H_    0.813557 0.813355 0.769624 0.217106
N6    N     N_2   0.124860 0.759231 0.546317 -0.400164
H23   H     H_    0.103697 0.811899 0.625916 0.251819
C26   C     C_3   0.121423 0.849654 0.437846 -0.697805
H24   H     H_    0.025539 0.879483 0.411308 0.203974
H25   H     H_    0.163582 0.795023 0.358864 0.229730
H26   H     H_    0.172992 0.947463 0.457492 0.217821

loop_
_geom_bond_atom_site_label_1
_geom_bond_atom_site_label_2
_ccdc_geom_bond_type
C16   H4    S    
C13   N3    S    
Cu1   Cu2   S    
C4    N2    A    
C21   N5    S    
C18   H6    S    
C7    O7    A    
C4    H8    S    
Cu1   O2    S    
C17   H5    S    
C9    C10   A    
C2    O2    A    
C15   H3    S    
C14   N4    S    
Cu1   O5    S    
C25   H21   S    
C1    O1    A    
C8    C12   S    
C26   H26   S    
C17   C20   A    
N6    C26   S    
C17   C18   A    
C2    C19   S    
C25   H20   S    
C23   H13   S    
Cu1   O1    S    
N3    H11   S    
C3    H7    S    
C7    C11   S    
C11   C13   A    
C9    C11   A    
N5    H19   S    
Cu2   N2    S    
Cu1   O6    S    
C10   C12   A    
C3    N2    A    
C5    N1    A    
C21   C22   A    
C19   C21   A    
C9    C16   S    
C12   C14   A    
C18   C19   A    
C23   H14   S    
Cu1   N1    S    
C10   C15   S    
C24   H17   S    
C16   H2    S    
C8    O8    A    
Cu2   O8    S    
C7    O5    A    
N5    C25   S    
C15   H1    S    
C15   C16   S    
C1    O3    A    
N4    C24   S    
N4    H15   S    
C23   H12   S    
C2    O4    A    
C20   C22   A    
Cu2   O3    S    
N3    C23   S    
C6    N1    A    
C4    C6    A    
C26   H24   S    
C24   H18   S    
Cu2   O7    S    
C1    C20   S    
C25   H22   S    
Cu2   O4    S    
C22   N6    S    
C13   C14   A    
C26   H25   S    
C6    H10   S    
C24   H16   S    
C8    O6    A    
N6    H23   S    
C3    C5    A    
C5    H9    S    
