data_mof_unit_48379.cif
_audit_creation_date              2012-12-11T14:06:36-0500
_audit_creation_method            fapswitch 2.2
_symmetry_space_group_name_H-M    P1
_symmetry_Int_Tables_number       1
_space_group_crystal_system       triclinic
_cell_length_a                    6.924231
_cell_length_b                    17.272309
_cell_length_c                    24.062717
_cell_angle_alpha                 104.340957
_cell_angle_beta                  90.543805
_cell_angle_gamma                 89.614818
_cell_volume                      2788.00920867

loop_
_atom_site_label
_atom_site_type_symbol
_atom_type_description
_atom_site_fract_x
_atom_site_fract_y
_atom_site_fract_z
_atom_type_partial_charge
O1    O     O_R   0.494290 0.391990 0.999150 -0.533815
O2    O     O_R   0.827170 0.534410 0.082350 -0.540813
O3    O     O_R   0.994360 0.608010 0.000850 -0.526102
C1    C     C_R   0.658672 0.549591 0.106138 0.702327
O4    O     O_R   0.824210 0.388010 0.004470 -0.538065
O5    O     O_R   0.991370 0.460560 0.922410 -0.517616
C2    C     C_R   0.654820 0.354860 0.001666 0.824294
O6    O     O_R   0.497270 0.539440 0.077590 -0.552734
O7    O     O_3   0.659770 0.523970 0.973170 -0.370901
V1    V     V_3+5 0.935840 0.495550 0.004980 1.454533
O8    O     O_R   0.320910 0.465590 0.917650 -0.533132
C3    C     C_R   0.151299 0.448528 0.894103 0.783577
O9    O     O_R   0.323870 0.611990 0.995530 -0.565138
C4    C     C_R   0.152842 0.644536 0.997089 0.798820
V2    V     V_3+5 0.435470 0.504450 0.995020 1.414991
O10   O     O_3   0.161670 0.476030 0.026830 -0.382790
C5    C     C_2   0.130540 0.726559 0.989646 -0.422537
H1    H     H_    0.230973 0.746131 0.961535 0.087467
C6    C     C_2   0.980686 0.773959 0.013461 0.251883
C7    C     C_R   0.240630 0.280056 0.620162 0.719909
N1    N     N_R   0.095241 0.327946 0.648450 -0.552982
C8    C     C_R   0.934740 0.344640 0.619719 0.588275
C9    C     C_R   0.918184 0.315199 0.559983 0.018720
C10   C     C_R   0.065603 0.265717 0.529955 -0.047023
C11   C     C_R   0.228767 0.246402 0.560039 -0.131430
C12   C     C_R   0.756181 0.333490 0.529808 -0.118918
C13   C     C_R   0.739001 0.302629 0.470633 -0.146083
C14   C     C_R   0.883810 0.253004 0.440008 -0.018833
C15   C     C_R   0.047667 0.234716 0.469707 -0.004352
C16   C     C_R   0.192828 0.185164 0.439195 -0.084875
C17   C     C_R   0.352929 0.165326 0.469086 -0.173425
C18   C     C_R   0.371218 0.193955 0.528619 0.294288
C19   C     C_R   0.868327 0.220823 0.380270 0.611141
N2    N     N_R   0.012769 0.173457 0.350871 -0.545063
C20   C     C_R   0.173733 0.155769 0.379272 0.627848
O11   O     O_2   0.394862 0.265297 0.650522 -0.444570
O12   O     O_2   0.791534 0.390033 0.648897 -0.500688
H2    H     H_    0.640879 0.371183 0.551915 0.163569
H3    H     H_    0.611313 0.317596 0.449037 0.169079
O13   O     O_2   0.709198 0.236256 0.351972 -0.501573
O14   O     O_2   0.316271 0.110509 0.349620 -0.500255
H4    H     H_    0.464524 0.126126 0.446260 0.193462
C21   C     C_R   0.000412 0.059862 0.264714 -0.070209
H5    H     H_    0.011827 0.018863 0.292133 0.180445
C22   C     C_R   0.990460 0.029698 0.205079 0.173418
C23   C     C_R   0.975722 0.082124 0.168697 -0.188978
C24   C     C_R   0.977784 0.165317 0.192966 0.308287
C25   C     C_R   0.982408 0.194699 0.253110 -0.154796
H6    H     H_    0.978384 0.258546 0.271743 0.162831
C26   C     C_R   0.996568 0.142466 0.289279 0.261680
C27   C     C_R   0.243275 0.419442 0.734311 0.494523
C28   C     C_R   0.260721 0.445693 0.794545 -0.316117
H7    H     H_    0.369042 0.489791 0.812981 0.151134
C29   C     C_R   0.137156 0.416571 0.830786 -0.165315
C30   C     C_R   0.999123 0.357858 0.805594 0.231238
C31   C     C_R   0.987210 0.329807 0.745902 -0.130774
H8    H     H_    0.883763 0.283749 0.727140 0.208998
C32   C     C_R   0.108890 0.359445 0.709963 0.219965
C33   C     C_R   0.499419 0.874647 0.613090 0.602574
N3    N     N_R   0.513857 0.824093 0.648854 -0.558044
C34   C     C_R   0.548215 0.743957 0.627355 0.530377
C35   C     C_R   0.563332 0.711366 0.567716 -0.019324
C36   C     C_R   0.550518 0.762681 0.530530 -0.006090
C37   C     C_R   0.519620 0.845129 0.553295 -0.046420
C38   C     C_R   0.590929 0.628976 0.544415 -0.173995
C39   C     C_R   0.604850 0.598033 0.485052 -0.121130
C40   C     C_R   0.594965 0.648858 0.447540 -0.034273
C41   C     C_R   0.569350 0.731544 0.470463 -0.017429
C42   C     C_R   0.562090 0.783170 0.433447 -0.035415
C43   C     C_R   0.532760 0.865468 0.456720 -0.124468
C44   C     C_R   0.510517 0.895974 0.515836 -0.114874
C45   C     C_R   0.609542 0.619109 0.387565 0.675651
N4    N     N_R   0.608212 0.670313 0.352008 -0.545772
C46   C     C_R   0.584661 0.751132 0.373986 0.608599
O15   O     O_2   0.467896 0.953359 0.635308 -0.486542
O16   O     O_2   0.567613 0.695923 0.663548 -0.554286
H9    H     H_    0.600538 0.588033 0.571940 0.159177
H10   H     H_    0.624916 0.534211 0.468713 0.167027
O17   O     O_2   0.623488 0.539595 0.365027 -0.491564
O18   O     O_2   0.583672 0.800549 0.338463 -0.505896
H11   H     H_    0.525959 0.906610 0.429313 0.181542
H12   H     H_    0.487220 0.959609 0.532085 0.201828
C47   C     C_R   0.467335 0.646105 0.254763 -0.086428
H13   H     H_    0.336189 0.675521 0.273186 0.183623
C48   C     C_R   0.477838 0.615974 0.195352 -0.207545
H14   H     H_    0.352487 0.621977 0.169493 0.150336
C49   C     C_R   0.648375 0.579904 0.169648 -0.099469
C50   C     C_R   0.807376 0.573626 0.205221 -0.221892
H15   H     H_    0.940477 0.546003 0.186617 0.156423
C51   C     C_R   0.795606 0.602099 0.265149 0.311655
C52   C     C_R   0.624256 0.638880 0.290471 0.322240
C53   C     C_R   0.662974 0.863373 0.745125 -0.086016
H16   H     H_    0.802712 0.845440 0.726254 0.112434
C54   C     C_R   0.649015 0.894078 0.804475 -0.194559
H17   H     H_    0.779862 0.898809 0.830078 0.126779
C55   C     C_R   0.469054 0.917786 0.830387 -0.053282
C56   C     C_R   0.303371 0.909917 0.795014 -0.192447
H18   H     H_    0.162658 0.927337 0.813321 0.132789
C57   C     C_R   0.317963 0.879480 0.735400 -0.095556
H19   H     H_    0.189115 0.873802 0.708871 0.120709
C58   C     C_R   0.497941 0.855925 0.710118 0.386678
C59   C     C_2   0.643109 0.269605 0.002161 -0.307018
H20   H     H_    0.777626 0.238500 0.005954 0.152918
C60   C     C_2   0.472555 0.230404 0.997869 -0.327202
H21   H     H_    0.338109 0.261567 0.994129 0.154680
O19   O     O_R   0.618210 0.960470 0.922400 -0.543517
O20   O     O_R   0.291310 0.111960 0.995450 -0.546067
O21   O     O_R   0.124210 0.039530 0.077580 -0.536266
C61   C     C_R   0.460684 0.145189 0.998455 0.781496
O22   O     O_R   0.288310 0.965490 0.917650 -0.544858
O23   O     O_R   0.121180 0.892010 0.999220 -0.546321
C62   C     C_R   0.456990 0.949567 0.893864 0.697180
O24   O     O_R   0.621230 0.107990 0.000760 -0.532089
O25   O     O_3   0.455770 0.976060 0.026840 -0.368347
V3    V     V_3+5 0.179680 0.004440 0.995020 1.444980
O26   O     O_R   0.791670 0.888040 0.004570 -0.551932
C63   C     C_R   0.962229 0.855646 0.003971 0.686777
O27   O     O_R   0.794680 0.034510 0.082370 -0.531601
C64   C     C_R   0.964018 0.050801 0.105703 0.834195
V4    V     V_3+5 0.680070 0.995560 0.005010 1.457141
O28   O     O_3   0.953840 0.023940 0.973160 -0.372449
O29   O     O_3   0.365961 0.447612 0.698670 -0.537083
C65   C     C_3   0.321154 0.528128 0.699714 0.093029
H22   H     H_    0.444501 0.552079 0.680076 0.202353
H23   H     H_    0.307466 0.566517 0.744123 0.096764
C66   C     C_3   0.138071 0.534198 0.664400 -0.358413
H24   H     H_    0.148778 0.491636 0.621521 0.206410
H25   H     H_    0.010370 0.518402 0.686817 0.219339
C67   C     C_3   0.108009 0.618369 0.656384 -0.741882
H26   H     H_    0.107532 0.662932 0.698529 0.232947
H27   H     H_    0.967225 0.621660 0.634563 0.244699
H28   H     H_    0.223868 0.633039 0.629215 0.245665
Br1   Br    Br    0.830779 0.308992 0.849937 -0.512270
O30   O     O_3   0.894816 0.757466 0.061220 -0.548341
C68   C     C_3   0.692257 0.749546 0.055835 0.106768
H29   H     H_    0.657715 0.684881 0.042712 0.147735
H30   H     H_    0.624835 0.777856 0.023655 0.098966
C69   C     C_3   0.605548 0.785412 0.114950 -0.291795
H31   H     H_    0.676167 0.757808 0.147098 0.230130
H32   H     H_    0.633549 0.850678 0.127334 0.244504
C70   C     C_3   0.388861 0.772526 0.116224 -0.732966
H33   H     H_    0.314190 0.806692 0.088924 0.259378
H34   H     H_    0.336883 0.794336 0.160893 0.276420
H35   H     H_    0.354148 0.708133 0.101354 0.213555
Br2   Br    Br    0.017667 0.591352 0.310852 -0.541348
Br3   Br    Br    0.591954 0.153783 0.562216 -0.460901
Br4   Br    Br    0.004898 0.916418 0.175108 -0.562788
O31   O     O_3   0.966055 0.217817 0.157884 -0.574747
C71   C     C_3   0.145642 0.256783 0.159091 0.082612
H36   H     H_    0.257770 0.213182 0.137729 0.120179
H37   H     H_    0.193824 0.284999 0.203807 0.142770
C72   C     C_3   0.126699 0.322727 0.127157 -0.289469
H38   H     H_    0.097846 0.295614 0.080930 0.181136
H39   H     H_    0.003241 0.362500 0.144735 0.206373
C73   C     C_3   0.310472 0.372711 0.133627 -0.793587
H40   H     H_    0.337477 0.402653 0.179475 0.247579
H41   H     H_    0.294203 0.419452 0.109652 0.247362
H42   H     H_    0.436628 0.334485 0.116538 0.222693

loop_
_geom_bond_atom_site_label_1
_geom_bond_atom_site_label_2
_ccdc_geom_bond_type
C68   C69   S    
C49   C50   A    
C66   H24   S    
V3    O28   S    
C17   H4    S    
C73   H41   S    
N4    C46   A    
C29   C30   A    
O21   C64   A    
C1    O6    A    
O25   V3    S    
C65   H22   S    
C1    C49   S    
O19   C62   A    
C48   H14   S    
C31   H8    S    
C6    O30   S    
C55   C62   S    
C12   C13   A    
C35   C36   A    
C16   C20   A    
O21   V3    S    
C14   C15   A    
N2    C20   A    
C45   O17   S    
C70   H34   S    
O5    C3    A    
C16   C17   A    
C59   C60   D    
C9    C12   A    
C18   Br3   S    
C7    C11   A    
V2    O10   S    
O26   C63   A    
C40   C45   A    
C23   C24   A    
C37   C44   A    
C43   H11   S    
O27   C64   A    
O1    C2    A    
C10   C15   A    
O8    V2    S    
C24   C25   A    
C13   H3    S    
C41   C42   A    
C2    C59   S    
C9    C10   A    
C10   C11   A    
C43   C44   A    
O1    V2    S    
O9    C4    A    
C31   C32   A    
O7    V1    S    
C34   C35   A    
C61   O24   A    
C67   H28   S    
C11   C18   A    
C25   C26   A    
C39   C40   A    
C33   N3    A    
C46   O18   S    
N1    C8    A    
C73   H42   S    
O20   C61   A    
C4    C5    S    
C59   H20   S    
C8    C9    A    
C60   H21   S    
C56   C57   A    
C28   C29   A    
C56   H18   S    
O22   C62   A    
C48   C49   A    
C34   O16   S    
C39   H10   S    
N2    C26   S    
C19   O13   S    
C38   H9    S    
C40   C41   A    
C68   H29   S    
O31   C71   S    
N4    C52   S    
C71   C72   S    
O4    C2    A    
C12   H2    S    
C65   C66   S    
C66   C67   S    
C30   Br1   S    
C8    O12   S    
C27   C28   A    
N3    C34   A    
O2    C1    A    
C21   H5    S    
C15   C16   A    
O24   V4    S    
C47   H13   S    
C72   C73   S    
C55   C56   A    
C30   C31   A    
C53   C54   A    
C5    H1    S    
C33   C37   A    
C42   C46   A    
C27   C32   A    
C7    N1    A    
C54   C55   A    
C21   C22   A    
O20   V3    S    
O3    C4    A    
C69   H32   S    
C53   C58   A    
C25   H6    S    
C47   C48   A    
C72   H39   S    
C14   C19   A    
C54   H17   S    
O9    V2    S    
C70   H35   S    
C3    C29   S    
N3    C58   S    
O2    V1    S    
C33   O15   S    
C73   H40   S    
C28   H7    S    
C67   H26   S    
C68   H30   S    
C24   O31   S    
C66   H25   S    
C35   C38   A    
O19   V4    S    
C22   Br4   S    
C17   C18   A    
C50   C51   A    
C45   N4    A    
C69   C70   S    
O5    V1    S    
C22   C23   A    
O8    C3    A    
C21   C26   A    
O30   C68   S    
O6    V2    S    
C47   C52   A    
C36   C41   A    
C57   H19   S    
O23   C63   A    
C44   H12   S    
C71   H37   S    
O7    V2    S    
O4    V1    S    
O3    V1    S    
V1    O10   S    
C71   H36   S    
C51   C52   A    
C60   C61   S    
C53   H16   S    
C5    C6    D    
C19   N2    A    
C23   C64   S    
C51   Br2   S    
C42   C43   A    
C20   O14   S    
O27   V4    S    
C65   H23   S    
C69   H31   S    
C36   C37   A    
C7    O11   S    
O26   V4    S    
N1    C32   S    
C50   H15   S    
C6    C63   S    
C38   C39   A    
C13   C14   A    
C27   O29   S    
V4    O28   S    
O23   V3    S    
C72   H38   S    
O29   C65   S    
C70   H33   S    
O22   V3    S    
C57   C58   A    
O25   V4    S    
C67   H27   S    
