data_mof_unit_62526.cif
_audit_creation_date              2013-03-05T16:13:40-0500
_audit_creation_method            fapswitch 2.2
_symmetry_space_group_name_H-M    P1
_symmetry_Int_Tables_number       1
_space_group_crystal_system       triclinic
_cell_length_a                    30.421822
_cell_length_b                    30.401779
_cell_length_c                    35.783302
_cell_angle_alpha                 90.145998
_cell_angle_beta                  90.133315
_cell_angle_gamma                 90.005324
_cell_volume                      33094.9740324

loop_
_atom_site_label
_atom_site_type_symbol
_atom_site_description
_atom_site_fract_x
_atom_site_fract_y
_atom_site_fract_z
_atom_type_partial_charge
O1    O     O_R   0.064210 0.462880 0.500070 -0.582030
O2    O     O_R   0.462880 0.935790 0.500070 -0.554409
O3    O     O_R   0.935790 0.537120 0.500070 -0.584000
O4    O     O_R   0.537120 0.064210 0.500070 -0.553506
O5    O     O_R   0.064210 0.537120 0.499930 -0.528756
O6    O     O_R   0.462880 0.064210 0.499930 -0.553302
O7    O     O_R   0.935790 0.462880 0.499930 -0.528811
O8    O     O_R   0.537120 0.935790 0.499930 -0.554045
O9    O     O_R   0.564210 0.962880 0.000070 -0.535823
O10   O     O_R   0.962880 0.435790 0.000070 -0.576125
O11   O     O_R   0.435790 0.037120 0.000070 -0.557323
O12   O     O_R   0.037120 0.564210 0.000070 -0.559971
O13   O     O_R   0.564210 0.037120 0.999930 -0.576190
O14   O     O_R   0.962880 0.564210 0.999930 -0.556110
O15   O     O_R   0.435790 0.962880 0.999930 -0.559468
O16   O     O_R   0.037120 0.435790 0.999930 -0.536305
C1    C     C_R   0.084866 0.500043 0.499613 0.907284
C2    C     C_R   0.499999 0.915125 0.500014 0.907913
C3    C     C_R   0.915129 0.499942 0.499803 0.909333
C4    C     C_R   0.500004 0.084884 0.500070 0.902074
C5    C     C_R   0.584880 0.999999 0.999623 0.920979
C6    C     C_R   0.999998 0.415127 0.000416 0.923183
C7    C     C_R   0.415125 0.999995 0.000125 0.912320
C8    C     C_R   0.999989 0.584862 0.000088 0.909706
O17   O     O_R   0.999940 0.462880 0.445700 -0.562694
O18   O     O_R   0.462880 0.000060 0.445700 -0.561086
O19   O     O_R   0.000060 0.537120 0.445700 -0.560546
O20   O     O_R   0.537120 0.999940 0.445700 -0.559771
O21   O     O_R   0.999940 0.537120 0.554300 -0.567578
O22   O     O_R   0.462880 0.999940 0.554300 -0.559807
O23   O     O_R   0.000060 0.462880 0.554300 -0.562205
O24   O     O_R   0.537120 0.000060 0.554300 -0.560756
O25   O     O_R   0.499940 0.962880 0.945700 -0.561457
O26   O     O_R   0.962880 0.500060 0.945700 -0.573853
O27   O     O_R   0.500060 0.037120 0.945700 -0.563038
O28   O     O_R   0.037120 0.499940 0.945700 -0.552989
O29   O     O_R   0.499940 0.037120 0.054300 -0.573228
O30   O     O_R   0.962880 0.499940 0.054300 -0.562924
O31   O     O_R   0.500060 0.962880 0.054300 -0.554309
O32   O     O_R   0.037120 0.500060 0.054300 -0.562602
C9    C     C_R   0.999965 0.499971 0.427533 0.897657
C10   C     C_R   0.499930 0.000275 0.427787 0.910681
C11   C     C_R   0.999566 0.500087 0.572307 0.928665
C12   C     C_R   0.500053 0.000144 0.572237 0.910336
C13   C     C_R   0.500293 0.999939 0.927732 0.914076
C14   C     C_R   0.999987 0.500911 0.927697 0.933896
C15   C     C_R   0.499218 0.000018 0.072342 0.934941
C16   C     C_R   0.000063 0.499798 0.072195 0.915426
Cu1   Cu    Cu3+1 0.000000 0.456020 0.500000 1.154590
Cu2   Cu    Cu3+1 0.456020 0.000000 0.500000 1.160992
Cu3   Cu    Cu3+1 0.000000 0.543980 0.500000 1.154122
Cu4   Cu    Cu3+1 0.543980 0.000000 0.500000 1.161102
Cu5   Cu    Cu3+1 0.500000 0.956020 0.000000 1.165495
Cu6   Cu    Cu3+1 0.956020 0.500000 0.000000 1.146921
Cu7   Cu    Cu3+1 0.500000 0.043980 0.000000 1.147283
Cu8   Cu    Cu3+1 0.043980 0.500000 0.000000 1.165741
C17   C     C_R   0.032858 0.522994 0.173101 0.268054
C18   C     C_R   0.515082 0.966333 0.174599 0.258110
C19   C     C_R   0.967140 0.477157 0.172970 0.272404
C20   C     C_R   0.476131 0.036173 0.172788 0.265384
C21   C     C_R   0.033251 0.485513 0.825367 0.259249
C22   C     C_R   0.526832 0.032164 0.827325 0.266960
C23   C     C_R   0.963668 0.524858 0.827585 0.266560
C24   C     C_R   0.479263 0.967751 0.825981 0.263822
C25   C     C_R   0.531779 0.027291 0.672810 0.266481
C26   C     C_R   0.015590 0.466849 0.674474 0.263810
C27   C     C_R   0.469008 0.977564 0.673675 0.266866
C28   C     C_R   0.975008 0.535751 0.672496 0.263431
C29   C     C_R   0.530509 0.978827 0.326045 0.268088
C30   C     C_R   0.008583 0.539034 0.325863 0.258997
C31   C     C_R   0.468193 0.029097 0.327775 0.267020
C32   C     C_R   0.991304 0.461017 0.325595 0.262502
C33   C     C_R   0.033418 0.522587 0.133822 0.114452
C34   C     C_R   0.515937 0.964925 0.135249 0.124216
C35   C     C_R   0.967235 0.476411 0.133674 0.104970
C36   C     C_R   0.477101 0.035655 0.133467 0.104765
C37   C     C_R   0.034890 0.484538 0.864692 0.124879
C38   C     C_R   0.525748 0.032373 0.866651 0.103645
C39   C     C_R   0.964404 0.523756 0.866872 0.104042
C40   C     C_R   0.478218 0.967266 0.865341 0.110898
C41   C     C_R   0.532042 0.026186 0.633487 0.104633
C42   C     C_R   0.017249 0.465831 0.635143 0.113276
C43   C     C_R   0.468606 0.976499 0.634310 0.105257
C44   C     C_R   0.976879 0.535695 0.633244 0.113456
C45   C     C_R   0.531034 0.977225 0.365382 0.104126
C46   C     C_R   0.008037 0.539651 0.365180 0.116538
C47   C     C_R   0.467974 0.027372 0.367051 0.105252
C48   C     C_R   0.991574 0.460386 0.364931 0.116759
C49   C     C_R   0.000262 0.499542 0.113660 -0.214663
C50   C     C_R   0.497595 0.000189 0.114071 -0.216918
C51   C     C_R   0.999787 0.502886 0.886033 -0.219841
C52   C     C_R   0.501278 0.999893 0.886142 -0.214941
C53   C     C_R   0.500276 0.000822 0.613788 -0.214205
C54   C     C_R   0.998036 0.500529 0.613957 -0.218020
C55   C     C_R   0.499610 0.001493 0.386292 -0.215200
C56   C     C_R   0.999881 0.499981 0.385587 -0.238270
C57   C     C_R   0.999602 0.500710 0.192425 -0.179952
C58   C     C_R   0.495291 0.001828 0.193150 -0.179896
C59   C     C_R   0.997756 0.505548 0.807050 -0.179619
C60   C     C_R   0.503569 0.000061 0.807147 -0.181392
C61   C     C_R   0.500416 0.003032 0.692756 -0.181463
C62   C     C_R   0.994357 0.501600 0.692907 -0.179952
C63   C     C_R   0.499272 0.004857 0.307430 -0.181038
C64   C     C_R   0.000081 0.500022 0.306400 -0.177137
C65   C     C_1   0.999944 0.500331 0.232623 0.218925
C66   C     C_1   0.496233 0.003726 0.233473 0.212242
C67   C     C_1   0.995621 0.504728 0.766784 0.212282
C68   C     C_1   0.502865 0.001511 0.766782 0.210521
C69   C     C_1   0.501878 0.002427 0.733124 0.210119
C70   C     C_1   0.994613 0.503485 0.733184 0.212292
C71   C     C_1   0.497487 0.004627 0.267105 0.210249
C72   C     C_1   0.000077 0.500115 0.266184 0.222223
C73   C     C_R   0.201828 0.487398 0.532587 -0.083870
C74   C     C_R   0.500523 0.797791 0.533874 -0.080660
C75   C     C_R   0.798011 0.509131 0.532848 -0.084419
C76   C     C_R   0.498540 0.202250 0.534399 -0.080839
C77   C     C_R   0.202483 0.506917 0.467137 -0.080465
C78   C     C_R   0.502365 0.202510 0.466967 -0.082076
C79   C     C_R   0.797623 0.495590 0.466260 -0.080777
C80   C     C_R   0.499331 0.797509 0.466328 -0.080997
C81   C     C_R   0.702527 0.003959 0.033006 -0.089452
C82   C     C_R   0.997118 0.298514 0.035643 -0.077277
C83   C     C_R   0.298108 0.004378 0.034397 -0.080830
C84   C     C_R   0.003325 0.702217 0.034154 -0.081985
C85   C     C_R   0.702032 0.000669 0.965580 -0.079902
C86   C     C_R   0.996850 0.702303 0.966818 -0.082214
C87   C     C_R   0.297373 0.996189 0.967192 -0.083722
C88   C     C_R   0.997301 0.296914 0.968170 -0.091184
H1    H     H_    0.219631 0.479417 0.557935 0.211400
H2    H     H_    0.501072 0.779757 0.559947 0.208310
H3    H     H_    0.780114 0.514777 0.558553 0.211666
H4    H     H_    0.497236 0.220250 0.560537 0.211380
H5    H     H_    0.220741 0.514410 0.441979 0.206999
H6    H     H_    0.503877 0.220710 0.441016 0.209588
H7    H     H_    0.779517 0.490111 0.440558 0.209120
H8    H     H_    0.498761 0.779254 0.440287 0.208259
H9    H     H_    0.720674 0.004776 0.059079 0.209969
H10   H     H_    0.996268 0.281116 0.062007 0.213398
H11   H     H_    0.280349 0.007548 0.060471 0.211138
H12   H     H_    0.005850 0.720266 0.060210 0.212054
H13   H     H_    0.719859 0.000110 0.939419 0.211147
H14   H     H_    0.994404 0.720386 0.940848 0.209178
H15   H     H_    0.279021 0.993161 0.941331 0.209227
H16   H     H_    0.997652 0.278235 0.942354 0.208963
C89   C     C_R   0.155969 0.490333 0.533286 0.282702
C90   C     C_R   0.501967 0.843786 0.534357 0.278808
C91   C     C_R   0.843864 0.506044 0.533704 0.282199
C92   C     C_R   0.496497 0.156272 0.534621 0.278059
C93   C     C_R   0.156545 0.508345 0.466473 0.274545
C94   C     C_R   0.503818 0.156524 0.466238 0.279414
C95   C     C_R   0.843585 0.494559 0.465794 0.274749
C96   C     C_R   0.498001 0.843508 0.465763 0.278460
C97   C     C_R   0.656598 0.004282 0.033723 0.277997
C98   C     C_R   0.000549 0.344409 0.035452 0.272373
C99   C     C_R   0.344057 0.002567 0.034747 0.280483
C100  C     C_R   0.001394 0.656257 0.034644 0.278322
C101  C     C_R   0.656137 0.997501 0.965293 0.274436
C102  C     C_R   0.998305 0.656335 0.966078 0.281899
C103  C     C_R   0.343325 0.997516 0.966277 0.279655
C104  C     C_R   0.997401 0.342858 0.966823 0.277957
C105  C     C_R   0.132989 0.500333 0.499898 -0.244716
C106  C     C_R   0.499994 0.866970 0.500042 -0.245929
C107  C     C_R   0.867001 0.499544 0.499825 -0.243698
C108  C     C_R   0.500044 0.133050 0.500302 -0.246284
C109  C     C_R   0.633032 0.999852 0.999632 -0.246681
C110  C     C_R   0.000107 0.366965 0.000797 -0.246193
C111  C     C_R   0.366988 0.999996 0.000376 -0.245099
C112  C     C_R   0.999934 0.632996 0.000278 -0.244912
C113  C     C_R   0.225186 0.496498 0.499948 0.064466
C114  C     C_R   0.499907 0.774617 0.500122 0.065244
C115  C     C_R   0.774734 0.502883 0.499543 0.063499
C116  C     C_R   0.500712 0.225467 0.500814 0.062818
C117  C     C_R   0.725410 0.002459 0.999237 0.063383
C118  C     C_R   0.996573 0.274615 0.002243 0.062560
C119  C     C_R   0.274671 0.000524 0.000922 0.063577
C120  C     C_R   0.000336 0.725337 0.000549 0.062608
C121  C     C_R   0.297221 0.470476 0.474506 0.240810
C122  C     C_R   0.465656 0.702767 0.482129 0.244557
C123  C     C_R   0.702393 0.529507 0.474794 0.234602
C124  C     C_R   0.534750 0.297164 0.482058 0.242096
C125  C     C_R   0.296580 0.523503 0.526101 0.235659
C126  C     C_R   0.467739 0.297577 0.519921 0.235519
C127  C     C_R   0.703410 0.474619 0.524773 0.232781
C128  C     C_R   0.534142 0.702925 0.518262 0.244363
C129  C     C_R   0.796907 0.969149 0.978808 0.239806
C130  C     C_R   0.965150 0.202556 0.980898 0.239551
C131  C     C_R   0.202964 0.031158 0.978379 0.240728
C132  C     C_R   0.031172 0.796990 0.978240 0.241326
C133  C     C_R   0.797830 0.033308 0.020373 0.233014
C134  C     C_R   0.970439 0.797366 0.023069 0.234988
C135  C     C_R   0.202751 0.970892 0.023668 0.235892
C136  C     C_R   0.028085 0.202824 0.023721 0.235713
C137  C     C_R   0.343337 0.472749 0.473449 0.231772
C138  C     C_R   0.466204 0.656529 0.481492 0.224851
C139  C     C_R   0.656263 0.527582 0.474020 0.227122
C140  C     C_R   0.533642 0.343356 0.480494 0.223907
C141  C     C_R   0.342735 0.523861 0.526366 0.227947
C142  C     C_R   0.468431 0.343760 0.520323 0.227761
C143  C     C_R   0.657273 0.475140 0.525732 0.228275
C144  C     C_R   0.533656 0.656684 0.518918 0.227515
C145  C     C_R   0.843064 0.969643 0.977741 0.228386
C146  C     C_R   0.967617 0.156472 0.978480 0.228891
C147  C     C_R   0.156814 0.029813 0.976941 0.228473
C148  C     C_R   0.029848 0.843154 0.976884 0.227838
C149  C     C_R   0.843920 0.031152 0.021903 0.227916
C150  C     C_R   0.971247 0.843542 0.023565 0.227964
C151  C     C_R   0.156580 0.971494 0.023896 0.227462
C152  C     C_R   0.028282 0.156653 0.023492 0.226928
C153  C     C_R   0.366270 0.499091 0.499640 -0.306216
C154  C     C_R   0.499969 0.633483 0.500160 -0.308982
C155  C     C_R   0.633599 0.501036 0.499958 -0.309649
C156  C     C_R   0.500601 0.366609 0.499807 -0.308995
C157  C     C_R   0.866588 0.000337 0.999622 -0.308238
C158  C     C_R   0.998854 0.133476 0.000156 -0.306155
C159  C     C_R   0.133554 0.000270 0.999971 -0.307997
C160  C     C_R   0.000151 0.866477 0.999783 -0.308474
C161  C     C_R   0.273749 0.496495 0.500390 -0.187773
C162  C     C_R   0.499904 0.726023 0.500166 -0.197789
C163  C     C_R   0.726103 0.502470 0.499775 -0.180340
C164  C     C_R   0.501175 0.274132 0.501052 -0.188161
C165  C     C_R   0.774101 0.001781 0.999302 -0.184011
C166  C     C_R   0.996199 0.225934 0.002716 -0.185428
C167  C     C_R   0.226058 0.001016 0.001139 -0.187231
C168  C     C_R   0.000750 0.773966 0.000696 -0.186682
O33   O     O_R   0.499910 0.564360 0.468610 -0.537570
O34   O     O_R   0.564360 0.500090 0.468610 -0.544598
O35   O     O_R   0.500090 0.435640 0.468610 -0.543574
O36   O     O_R   0.435640 0.499910 0.468610 -0.543364
O37   O     O_R   0.499910 0.435640 0.531390 -0.547253
O38   O     O_R   0.564360 0.499910 0.531390 -0.545158
O39   O     O_R   0.500090 0.564360 0.531390 -0.540379
O40   O     O_R   0.435640 0.500090 0.531390 -0.541714
O41   O     O_R   0.999910 0.064360 0.968610 -0.543151
O42   O     O_R   0.064360 0.000090 0.968610 -0.543879
O43   O     O_R   0.000090 0.935640 0.968610 -0.544173
O44   O     O_R   0.935640 0.999910 0.968610 -0.544356
O45   O     O_R   0.999910 0.935640 0.031390 -0.543573
O46   O     O_R   0.064360 0.999910 0.031390 -0.544173
O47   O     O_R   0.000090 0.064360 0.031390 -0.545401
O48   O     O_R   0.935640 0.000090 0.031390 -0.543526
C169  C     C_R   0.500027 0.585175 0.500048 0.896743
C170  C     C_R   0.585212 0.500276 0.500013 0.897734
C171  C     C_R   0.500616 0.414866 0.499934 0.900845
C172  C     C_R   0.414739 0.499655 0.499903 0.902798
C173  C     C_R   0.999388 0.085165 0.000010 0.905896
C174  C     C_R   0.085197 0.000357 0.999995 0.902852
C175  C     C_R   0.000334 0.914816 0.999930 0.901351
C176  C     C_R   0.914849 0.999638 0.999917 0.902986
Cu9   Cu    Cu3+1 0.500000 0.500000 0.462810 1.246811
Cu10  Cu    Cu3+1 0.500000 0.500000 0.537190 1.240025
Cu11  Cu    Cu3+1 0.000000 0.000000 0.962810 1.246994
Cu12  Cu    Cu3+1 0.000000 0.000000 0.037190 1.237076
N1    N     N_R   0.066326 0.546103 0.193534 0.153823
O49   O     O_R   0.106799 0.532339 0.192628 -0.245789
O50   O     O_R   0.055788 0.578433 0.215646 -0.224603
N2    N     N_R   0.534856 0.931647 0.195958 0.159572
O51   O     O_R   0.577312 0.926540 0.195727 -0.214726
O52   O     O_R   0.511146 0.908571 0.218914 -0.256839
N3    N     N_R   0.934282 0.453331 0.193306 0.157540
O53   O     O_R   0.934364 0.410542 0.192910 -0.211345
O54   O     O_R   0.907846 0.474071 0.215800 -0.261180
N4    N     N_R   0.455145 0.071668 0.192232 0.160665
O55   O     O_R   0.472496 0.110775 0.191973 -0.237239
O56   O     O_R   0.420300 0.064257 0.212254 -0.223733
N5    N     N_R   0.067663 0.465581 0.803798 0.158620
O57   O     O_R   0.072588 0.423076 0.803995 -0.214193
O58   O     O_R   0.090609 0.489195 0.780674 -0.260173
N6    N     N_R   0.552006 0.064575 0.807721 0.162494
O59   O     O_R   0.540102 0.105664 0.808446 -0.233792
O60   O     O_R   0.584997 0.052599 0.786991 -0.226659
N7    N     N_R   0.928222 0.546138 0.808354 0.158759
O61   O     O_R   0.889087 0.528896 0.808558 -0.240343
O62   O     O_R   0.935623 0.581392 0.788837 -0.221039
N8    N     N_R   0.455125 0.935511 0.804957 0.161032
O63   O     O_R   0.412373 0.935486 0.805697 -0.208327
O64   O     O_R   0.475537 0.909444 0.781913 -0.253059
N9    N     N_R   0.563371 0.053482 0.692646 0.162355
O65   O     O_R   0.604763 0.042767 0.692146 -0.233269
O66   O     O_R   0.550390 0.086175 0.713384 -0.227105
N10   N     N_R   0.036124 0.432679 0.695917 0.159102
O67   O     O_R   0.078726 0.428969 0.696174 -0.208093
O68   O     O_R   0.012851 0.408933 0.718701 -0.260895
N11   N     N_R   0.437648 0.952275 0.694436 0.161471
O69   O     O_R   0.439087 0.909521 0.693458 -0.208703
O70   O     O_R   0.410936 0.971745 0.717502 -0.252956
N12   N     N_R   0.953008 0.570672 0.691843 0.158717
O71   O     O_R   0.970872 0.609483 0.693861 -0.240924
O72   O     O_R   0.916568 0.562878 0.709575 -0.218924
N13   N     N_R   0.561494 0.953461 0.304835 0.161089
O73   O     O_R   0.559679 0.910714 0.305358 -0.208276
O74   O     O_R   0.588095 0.972896 0.281735 -0.256836
N14   N     N_R   0.017778 0.578491 0.305396 0.158837
O75   O     O_R   0.987783 0.595736 0.283999 -0.253579
O76   O     O_R   0.057462 0.594430 0.305020 -0.214314
N15   N     N_R   0.436839 0.055891 0.308391 0.161062
O77   O     O_R   0.395433 0.045206 0.308292 -0.236316
O78   O     O_R   0.450079 0.089246 0.288698 -0.223519
N16   N     N_R   0.981827 0.421679 0.304838 0.155479
O79   O     O_R   0.941921 0.406328 0.303898 -0.215729
O80   O     O_R   0.011580 0.404520 0.283190 -0.265137
I1    I     I_    0.083404 0.561069 0.107033 0.035528
I2    I     I_    0.544643 0.907120 0.110596 0.042891
I3    I     I_    0.916312 0.439157 0.106560 0.019307
I4    I     I_    0.442304 0.087706 0.105661 0.029839
I5    I     I_    0.092867 0.455889 0.889021 0.046669
I6    I     I_    0.565703 0.080356 0.894814 0.015957
I7    I     I_    0.912935 0.559058 0.894999 0.028691
I8    I     I_    0.441255 0.915660 0.891385 0.034530
I9    I     I_    0.579075 0.067101 0.605574 0.019892
I10   I     I_    0.049327 0.410144 0.610181 0.047510
I11   I     I_    0.418948 0.937273 0.607616 0.024274
I12   I     I_    0.943523 0.588767 0.605527 0.035854
I13   I     I_    0.580381 0.937256 0.391481 0.025528
I14   I     I_    0.018593 0.603485 0.389995 0.049991
I15   I     I_    0.421053 0.067984 0.395594 0.019327
I16   I     I_    0.979772 0.396854 0.389500 0.043960
N17   N     N_R   0.133549 0.484468 0.568272 0.137755
O81   O     O_R   0.100621 0.509710 0.577050 -0.359511
O82   O     O_R   0.150627 0.459535 0.594009 -0.261788
N18   N     N_R   0.505715 0.866048 0.569808 0.130349
O83   O     O_R   0.530376 0.900760 0.573296 -0.345407
O84   O     O_R   0.490436 0.847675 0.599919 -0.264471
N19   N     N_R   0.866033 0.508027 0.569243 0.133457
O85   O     O_R   0.899377 0.482450 0.575958 -0.360854
O86   O     O_R   0.848229 0.529122 0.597054 -0.267257
N20   N     N_R   0.490721 0.134116 0.569827 0.129254
O87   O     O_R   0.466018 0.099328 0.572138 -0.343103
O88   O     O_R   0.504051 0.152691 0.600650 -0.270532
N21   N     N_R   0.134685 0.517171 0.431577 0.126178
O89   O     O_R   0.100729 0.543052 0.430300 -0.334542
O90   O     O_R   0.152091 0.503969 0.400309 -0.263191
N22   N     N_R   0.509366 0.134630 0.430793 0.129564
O91   O     O_R   0.533770 0.099661 0.428086 -0.343522
O92   O     O_R   0.496159 0.153588 0.400182 -0.269405
N23   N     N_R   0.865627 0.488706 0.430583 0.128331
O93   O     O_R   0.899994 0.463505 0.428009 -0.343014
O94   O     O_R   0.848112 0.504013 0.400053 -0.260012
N24   N     N_R   0.494430 0.865489 0.430266 0.131218
O95   O     O_R   0.470067 0.900375 0.426689 -0.345045
O96   O     O_R   0.509691 0.846800 0.400210 -0.263459
N25   N     N_R   0.634955 0.009539 0.069223 0.143165
O97   O     O_R   0.596975 0.991618 0.075493 -0.378416
O98   O     O_R   0.654870 0.029517 0.096667 -0.250809
N26   N     N_R   0.004652 0.367270 0.070597 0.128975
O99   O     O_R   0.030747 0.400955 0.073808 -0.345872
O100  O     O_R   0.988270 0.350168 0.100829 -0.263605
N27   N     N_R   0.366594 0.002549 0.070154 0.130287
O101  O     O_R   0.400313 0.977017 0.075460 -0.360488
O102  O     O_R   0.348956 0.021817 0.098976 -0.269637
N28   N     N_R   0.000126 0.634118 0.070155 0.131853
O103  O     O_R   0.975407 0.599657 0.074722 -0.352627
O104  O     O_R   0.017340 0.652655 0.099575 -0.266849
N29   N     N_R   0.633917 0.991715 0.930007 0.129098
O105  O     O_R   0.599570 0.966417 0.927402 -0.345252
O106  O     O_R   0.652026 0.005772 0.899353 -0.270030
N30   N     N_R   0.998764 0.634197 0.930473 0.130587
O107  O     O_R   0.024014 0.600251 0.925173 -0.358476
O108  O     O_R   0.980037 0.652278 0.901602 -0.268848
N31   N     N_R   0.365085 0.997092 0.930588 0.133855
O109  O     O_R   0.399560 0.021465 0.924954 -0.352952
O110  O     O_R   0.346338 0.978363 0.901944 -0.261701
N32   N     N_R   0.994012 0.363869 0.930842 0.144732
O111  O     O_R   0.009938 0.402895 0.925261 -0.377852
O112  O     O_R   0.977049 0.342806 0.902562 -0.250005
N33   N     N_R   0.274336 0.441173 0.449540 0.164284
O113  O     O_R   0.282588 0.441637 0.413881 -0.215109
O114  O     O_R   0.245466 0.413561 0.462459 -0.267171
N34   N     N_R   0.429918 0.726011 0.464737 0.164790
O115  O     O_R   0.418660 0.717187 0.430426 -0.218603
O116  O     O_R   0.407926 0.755440 0.483403 -0.267033
N35   N     N_R   0.724984 0.560880 0.451773 0.158370
O117  O     O_R   0.719289 0.560965 0.415740 -0.218232
O118  O     O_R   0.752254 0.588829 0.466761 -0.266790
N36   N     N_R   0.570330 0.273765 0.464622 0.163055
O119  O     O_R   0.580717 0.281620 0.430021 -0.218993
O120  O     O_R   0.592914 0.245002 0.483488 -0.265535
N37   N     N_R   0.272955 0.553012 0.550207 0.158293
O121  O     O_R   0.277049 0.550180 0.586307 -0.220717
O122  O     O_R   0.245971 0.581767 0.536107 -0.265408
N38   N     N_R   0.431359 0.274644 0.536452 0.156826
O123  O     O_R   0.421980 0.280122 0.571599 -0.221006
O124  O     O_R   0.408005 0.247438 0.516498 -0.268146
N39   N     N_R   0.727055 0.443568 0.547419 0.156718
O125  O     O_R   0.722254 0.443339 0.583526 -0.219490
O126  O     O_R   0.754192 0.415919 0.531979 -0.265134
N40   N     N_R   0.569781 0.726340 0.535735 0.164866
O127  O     O_R   0.580738 0.717960 0.570159 -0.219314
O128  O     O_R   0.591925 0.755540 0.517061 -0.266526
N41   N     N_R   0.773363 0.934831 0.959619 0.160401
O129  O     O_R   0.780862 0.926901 0.924456 -0.218590
O130  O     O_R   0.745137 0.910651 0.977531 -0.264594
N42   N     N_R   0.930836 0.225531 0.961304 0.164215
O131  O     O_R   0.924300 0.218550 0.925831 -0.217019
O132  O     O_R   0.906016 0.253575 0.978907 -0.262858
N43   N     N_R   0.226265 0.063654 0.957025 0.162712
O133  O     O_R   0.218219 0.068501 0.921544 -0.217720
O134  O     O_R   0.255155 0.088987 0.973141 -0.265726
N44   N     N_R   0.063992 0.773633 0.957205 0.162151
O135  O     O_R   0.069459 0.781652 0.921818 -0.217698
O136  O     O_R   0.089114 0.744841 0.973561 -0.266462
N45   N     N_R   0.775390 0.069338 0.038115 0.157549
O137  O     O_R   0.780543 0.076990 0.073633 -0.217835
O138  O     O_R   0.748902 0.094125 0.018836 -0.264650
N46   N     N_R   0.936782 0.774379 0.043277 0.157456
O139  O     O_R   0.933196 0.779067 0.079278 -0.220225
O140  O     O_R   0.910473 0.747505 0.025822 -0.265610
N47   N     N_R   0.225832 0.937605 0.044329 0.157538
O141  O     O_R   0.220982 0.934422 0.080322 -0.221381
O142  O     O_R   0.252841 0.911158 0.027292 -0.267287
N48   N     N_R   0.062538 0.226110 0.042879 0.156212
O143  O     O_R   0.067266 0.222372 0.078862 -0.221041
O144  O     O_R   0.088403 0.252330 0.024478 -0.265882
N49   N     N_R   0.366795 0.446163 0.447011 0.170005
O145  O     O_R   0.380997 0.463809 0.416236 -0.236003
O146  O     O_R   0.365590 0.403527 0.449778 -0.222806
N50   N     N_R   0.430855 0.633097 0.463741 0.158147
O147  O     O_R   0.437797 0.612211 0.432543 -0.253081
O148  O     O_R   0.390624 0.639341 0.474798 -0.221894
N51   N     N_R   0.632469 0.554577 0.448131 0.180636
O149  O     O_R   0.630045 0.543124 0.413140 -0.218990
O150  O     O_R   0.608501 0.587007 0.460227 -0.295021
N52   N     N_R   0.567901 0.366613 0.461350 0.159052
O151  O     O_R   0.559329 0.386461 0.430013 -0.252974
O152  O     O_R   0.608649 0.361468 0.471542 -0.222446
N53   N     N_R   0.365533 0.551609 0.552468 0.179292
O153  O     O_R   0.367321 0.540808 0.587585 -0.216661
O154  O     O_R   0.388885 0.584533 0.540579 -0.291814
N54   N     N_R   0.434960 0.367471 0.540071 0.173773
O155  O     O_R   0.436339 0.369871 0.576349 -0.222744
O156  O     O_R   0.406912 0.391553 0.521829 -0.316285
N55   N     N_R   0.634544 0.447041 0.551375 0.179984
O157  O     O_R   0.632336 0.457711 0.586543 -0.218439
O158  O     O_R   0.611432 0.414096 0.538966 -0.294694
N56   N     N_R   0.568899 0.633423 0.536895 0.158428
O159  O     O_R   0.561608 0.612364 0.567859 -0.256630
O160  O     O_R   0.609276 0.640110 0.526438 -0.221838
N57   N     N_R   0.865940 0.936901 0.956345 0.163406
O161  O     O_R   0.884164 0.947706 0.924830 -0.246416
O162  O     O_R   0.861035 0.895468 0.964320 -0.219263
N58   N     N_R   0.936730 0.133052 0.955462 0.164561
O163  O     O_R   0.949741 0.115862 0.924056 -0.246867
O164  O     O_R   0.894794 0.136787 0.961763 -0.219328
N59   N     N_R   0.133650 0.060459 0.953683 0.165845
O165  O     O_R   0.117000 0.047194 0.922093 -0.241966
O166  O     O_R   0.137137 0.102453 0.960091 -0.220809
N60   N     N_R   0.060825 0.866302 0.954038 0.164504
O167  O     O_R   0.048129 0.882789 0.922290 -0.241692
O168  O     O_R   0.102660 0.863304 0.961184 -0.224679
N61   N     N_R   0.867719 0.061587 0.045014 0.178756
O169  O     O_R   0.868447 0.056148 0.081052 -0.221904
O170  O     O_R   0.893610 0.090548 0.029978 -0.313363
N62   N     N_R   0.941015 0.867092 0.046926 0.178041
O171  O     O_R   0.947392 0.868532 0.082862 -0.219353
O172  O     O_R   0.910921 0.891904 0.032053 -0.305985
N63   N     N_R   0.133121 0.940920 0.046900 0.176970
O173  O     O_R   0.131144 0.947187 0.082825 -0.219686
O174  O     O_R   0.109039 0.910415 0.031629 -0.306581
N64   N     N_R   0.060215 0.133401 0.045431 0.176262
O175  O     O_R   0.056654 0.132537 0.081635 -0.218616
O176  O     O_R   0.089367 0.108632 0.029214 -0.310698

loop_
_geom_bond_atom_site_label_1
_geom_bond_atom_site_label_2
_geom_bond_distance
_ccdc_geom_bond_type
C42   C54   1.425220 A    
O25   C13   1.298686 A    
N53   O153  1.300632 A    
C118  C166  1.480162 S    
C77   H5    1.083602 S    
C123  C139  1.404773 A    
N57   O161  1.300685 A    
C121  C137  1.405235 A    
C147  C159  1.411695 A    
O39   C169  1.289133 A    
C20   C58   1.401028 A    
O18   Cu2   1.954697 S    
N7    O61   1.300844 A    
C43   C53   1.421353 A    
C68   C69   1.205084 T    
C130  C146  1.405496 A    
N8    O63   1.300940 A    
O24   Cu4   1.954688 S    
C95   N23   1.439307 S    
C148  N60   1.434597 S    
C134  C150  1.404127 A    
C81   C117  1.396594 A    
C99   C111  1.417383 A    
Cu1   Cu3   2.674144 S    
Cu2   Cu4   2.675907 S    
C18   N2    1.435301 S    
N20   O87   1.300278 A    
C104  C110  1.420164 A    
C124  C140  1.405976 A    
N9    O66   1.300852 A    
C131  N43   1.438259 S    
C127  C163  1.414344 A    
C29   C63   1.404619 A    
N45   O138  1.301277 A    
C117  C165  1.481405 S    
N49   O146  1.300737 A    
C129  C165  1.414968 A    
C79   C95   1.398727 A    
C74   H2    1.083463 S    
O14   C8    1.291732 A    
C153  C172  1.474646 S    
N34   O115  1.301181 A    
N29   O106  1.301731 A    
C84   H12   1.083229 S    
N29   O105  1.300387 A    
C10   C55   1.485390 S    
C93   N21   1.439225 S    
C27   N11   1.435009 S    
O17   C9    1.303030 A    
N23   O94   1.301500 A    
C125  N37   1.436853 S    
C14   C51   1.492236 S    
C89   N17   1.438524 S    
C20   C36   1.407443 A    
C147  N59   1.434801 S    
O16   C6    1.292404 A    
C30   N14   1.434899 S    
C40   C52   1.422583 A    
C157  C176  1.468360 S    
N40   O128  1.301295 A    
C99   N27   1.439198 S    
C134  C168  1.413502 A    
C26   C42   1.408697 A    
C122  C138  1.405945 A    
O36   C172  1.289018 A    
C17   C57   1.402215 A    
C79   H7    1.083434 S    
O13   C5    1.292000 A    
C31   N15   1.433312 S    
C146  C158  1.411690 A    
C88   H16   1.083207 S    
C92   N20   1.441191 S    
C7    C111  1.464473 S    
N62   O172  1.300112 A    
C65   C72   1.200937 T    
N6    O60   1.300856 A    
O26   Cu6   1.954697 S    
O7    C3    1.290275 A    
N41   O129  1.301205 A    
C67   C70   1.203146 T    
N16   O79   1.300926 A    
C35   I3    2.147364 S    
N39   O125  1.300607 A    
O27   C13   1.299016 A    
C135  C167  1.413409 A    
C36   I4    2.149010 S    
C59   C67   1.442294 S    
O31   C15   1.299457 A    
O36   Cu9   1.969400 S    
O32   C16   1.297851 A    
C37   C51   1.427038 A    
C47   I15   2.146136 S    
C123  C163  1.412750 A    
C128  N40   1.437925 S    
C121  C161  1.411696 A    
N3    O54   1.301057 A    
C23   C39   1.406448 A    
C58   C66   1.444096 S    
C38   C52   1.421785 A    
N50   O147  1.300596 A    
C34   C50   1.427342 A    
N14   O76   1.300953 A    
N33   O113  1.301123 A    
N12   O72   1.300627 A    
O41   C173  1.288112 A    
C89   C105  1.416530 A    
O11   C7    1.291891 A    
C103  C111  1.417107 A    
C85   C101  1.399546 A    
N28   O103  1.300425 A    
N59   O166  1.300842 A    
N23   O93   1.299527 A    
C140  C156  1.410164 A    
N31   O109  1.300503 A    
N63   O174  1.300313 A    
C119  C167  1.478996 S    
O5    Cu3   1.964513 S    
C77   C93   1.398369 A    
C73   H1    1.083417 S    
O33   C169  1.289313 A    
C83   C99   1.398963 A    
C79   C115  1.398212 A    
N38   O123  1.300566 A    
O34   Cu9   1.968435 S    
C27   C43   1.408931 A    
C131  C147  1.405372 A    
C116  C164  1.479550 S    
O44   C176  1.287815 A    
Cu5   Cu7   2.674144 S    
N51   O149  1.300689 A    
C18   C58   1.402118 A    
C25   C61   1.403350 A    
C125  C141  1.404158 A    
C28   N12   1.432778 S    
N45   O137  1.300603 A    
O7    Cu1   1.964506 S    
N15   O78   1.300775 A    
C90   N18   1.440542 S    
Cu9   Cu10  2.661558 S    
O23   C11   1.300487 A    
N1    O49   1.300904 A    
O34   C170  1.289104 A    
C9    C56   1.500967 S    
N32   O111  1.297621 A    
C100  C112  1.417619 A    
C129  C145  1.404857 A    
C83   H11   1.083317 S    
C11   C54   1.491240 S    
O45   C175  1.290249 A    
N17   O82   1.301572 A    
C81   H9    1.083209 S    
C13   C52   1.488625 S    
C23   N7    1.433115 S    
N36   O119  1.301218 A    
C23   C59   1.400532 A    
O2    Cu2   1.963252 S    
C130  N42   1.438201 S    
C85   H13   1.083059 S    
C128  C144  1.406132 A    
N2    O52   1.301088 A    
O28   C14   1.299496 A    
O26   C14   1.301355 A    
O29   C15   1.301280 A    
C142  C156  1.408937 A    
O8    Cu4   1.963201 S    
C39   C51   1.424844 A    
C78   H6    1.083264 S    
C94   N22   1.441166 S    
O35   Cu9   1.968162 S    
N9    O65   1.300857 A    
N21   O90   1.301502 A    
C155  C170  1.472209 S    
O19   Cu3   1.953671 S    
O17   Cu1   1.954719 S    
C66   C71   1.204232 T    
N25   O98   1.301729 A    
C60   C68   1.445309 S    
N64   O175  1.300592 A    
C92   C108  1.419269 A    
C20   N4    1.433387 S    
N10   O67   1.300951 A    
C101  C109  1.418676 A    
C64   C72   1.439089 S    
C135  C151  1.404790 A    
N61   O170  1.299752 A    
C82   C118  1.397148 A    
C132  C148  1.405001 A    
N19   O86   1.301670 A    
N18   O84   1.301674 A    
O16   Cu8   1.963201 S    
C91   N19   1.439207 S    
O38   C170  1.290946 A    
C138  C154  1.411248 A    
N55   O157  1.300663 A    
C76   H4    1.083238 S    
N10   O68   1.301077 A    
N30   O108  1.301634 A    
N13   O73   1.300933 A    
C3    C107  1.464183 S    
O6    Cu2   1.963212 S    
O3    C3    1.293226 A    
N5    O58   1.301120 A    
N48   O143  1.300550 A    
C1    C105  1.464036 S    
C126  N38   1.437322 S    
N24   O96   1.301671 A    
C125  C161  1.412851 A    
N52   O151  1.300609 A    
C15   C50   1.494157 S    
N44   O136  1.301323 A    
N7    O62   1.300647 A    
C29   C45   1.408642 A    
N54   O155  1.300605 A    
C18   C34   1.408934 A    
O48   C176  1.290415 A    
O21   Cu3   1.954728 S    
C31   C63   1.402685 A    
C120  C168  1.478453 S    
C97   C109  1.419614 A    
O47   Cu12  1.968160 S    
C22   C38   1.407675 A    
N26   O100  1.301667 A    
N62   O171  1.300638 A    
O42   Cu11  1.968435 S    
C83   C119  1.397217 A    
N60   O168  1.300809 A    
N4    O55   1.300854 A    
C84   C120  1.397172 A    
C94   C108  1.418921 A    
O12   C8    1.292396 A    
C88   C118  1.396775 A    
C144  N56   1.436200 S    
C97   N25   1.440704 S    
C57   C65   1.438510 S    
C91   C107  1.416661 A    
C33   I1    2.147614 S    
C45   C55   1.420800 A    
C131  C167  1.413467 A    
C128  C162  1.413019 A    
C158  C173  1.468828 S    
N8    O64   1.301052 A    
N47   O142  1.301224 A    
O22   Cu2   1.953732 S    
C96   C106  1.418553 A    
N37   O122  1.301195 A    
C35   C49   1.422241 A    
C43   I11   2.145650 S    
O29   Cu7   1.954728 S    
C136  N48   1.436562 S    
N26   O99   1.300380 A    
N61   O169  1.300671 A    
N11   O69   1.300929 A    
C149  N61   1.434368 S    
N20   O88   1.301744 A    
C127  N39   1.437549 S    
C115  C163  1.479517 S    
C30   C46   1.407106 A    
C113  C161  1.477417 S    
C48   C56   1.433078 A    
N49   O145  1.300906 A    
C87   C103  1.398978 A    
C24   C40   1.408985 A    
C140  N52   1.435646 S    
O22   C12   1.299027 A    
N34   O116  1.301300 A    
N56   O159  1.300583 A    
C87   H15   1.083344 S    
C102  C112  1.416948 A    
Cu11  Cu12  2.661558 S    
C134  N46   1.437219 S    
O10   C6    1.292272 A    
C90   C106  1.418521 A    
C27   C61   1.404546 A    
C81   C97   1.397565 A    
O15   Cu5   1.964506 S    
N51   O150  1.300161 A    
C28   C62   1.399970 A    
C156  C171  1.467109 S    
C45   I13   2.145207 S    
C30   C64   1.397672 A    
O5    C1    1.290609 A    
C61   C69   1.445256 S    
N35   O117  1.300587 A    
C4    C108  1.464332 S    
C75   C91   1.398367 A    
C5    C109  1.464860 S    
N58   O163  1.300712 A    
C76   C116  1.396975 A    
C63   C71   1.443852 S    
C73   C89   1.398257 A    
C78   C94   1.398923 A    
C37   I5    2.150444 S    
C133  C149  1.404600 A    
C42   I10   2.147786 S    
O32   Cu8   1.954688 S    
C124  N36   1.438032 S    
O45   Cu12  1.967110 S    
O43   Cu11  1.968162 S    
C41   I9    2.145894 S    
C130  C166  1.414397 A    
C149  C157  1.409894 A    
N63   O173  1.300618 A    
O21   C11   1.298699 A    
N53   O154  1.300381 A    
C19   N3    1.435038 S    
N16   O80   1.301037 A    
O23   Cu1   1.953662 S    
C40   I8    2.146267 S    
N57   O162  1.300900 A    
C87   C119  1.397926 A    
C28   C44   1.405822 A    
C82   H10   1.083092 S    
N55   O158  1.300335 A    
N15   O77   1.300838 A    
C76   C92   1.399253 A    
O3    Cu3   1.964479 S    
C73   C113  1.396777 A    
C32   C64   1.397915 A    
C24   N8    1.435068 S    
C86   H14   1.083351 S    
C144  C154  1.411586 A    
N19   O85   1.300476 A    
C80   H8    1.083469 S    
N50   O148  1.300950 A    
O28   Cu8   1.953722 S    
C102  N30   1.439461 S    
C25   C41   1.407489 A    
O30   Cu6   1.953732 S    
C78   C116  1.397316 A    
O46   C174  1.291299 A    
C151  C159  1.410709 A    
C44   C54   1.425498 A    
N28   O104  1.301718 A    
C145  C157  1.410500 A    
C46   C56   1.433402 A    
C22   C60   1.403069 A    
C75   C115  1.397410 A    
O48   Cu12  1.968440 S    
C25   N9    1.433621 S    
C62   C70   1.442243 S    
O9    Cu5   1.964463 S    
N27   O101  1.300331 A    
O11   Cu7   1.964479 S    
O41   Cu11  1.967109 S    
N38   O124  1.301240 A    
C148  C160  1.411014 A    
C152  C158  1.410219 A    
O40   C172  1.292485 A    
O1    C1    1.292936 A    
C122  C162  1.412944 A    
C123  N35   1.437750 S    
C154  C169  1.468646 S    
N22   O92   1.301754 A    
N42   O131  1.301250 A    
C32   N16   1.435092 S    
N43   O133  1.301169 A    
O6    C4    1.292450 A    
O47   C173  1.290304 A    
N40   O127  1.301186 A    
C33   C49   1.422202 A    
O42   C174  1.288327 A    
C2    C106  1.463979 S    
C80   C114  1.396842 A    
O31   Cu5   1.953662 S    
N32   O112  1.301776 A    
C138  N50   1.435874 S    
C34   I2    2.150617 S    
O18   C10   1.297960 A    
O8    C2    1.292243 A    
C136  C166  1.413856 A    
C24   C60   1.404051 A    
N6    O59   1.300864 A    
C159  C174  1.471119 S    
N41   O130  1.301313 A    
C98   C110  1.418607 A    
C152  N64   1.434979 S    
C36   C50   1.425236 A    
O13   Cu7   1.964513 S    
C126  C164  1.414048 A    
N60   O167  1.300748 A    
N11   O70   1.301042 A    
O20   Cu4   1.953722 S    
N21   O89   1.299392 A    
C26   C62   1.402514 A    
C126  C142  1.404228 A    
C101  N29   1.441205 S    
C85   C117  1.398168 A    
C75   H3    1.083270 S    
N25   O97   1.297644 A    
C160  C175  1.469582 S    
C129  N41   1.437713 S    
N64   O176  1.300230 A    
O4    Cu4   1.963237 S    
C17   N1    1.434770 S    
C137  N49   1.434187 S    
N14   O75   1.301033 A    
C8    C112  1.463341 S    
N46   O140  1.301227 A    
N33   O114  1.301321 A    
O35   C171  1.288035 A    
N12   O71   1.300799 A    
O37   C171  1.289487 A    
C133  C165  1.414906 A    
C151  N63   1.434353 S    
C17   C33   1.405698 A    
C48   I16   2.154630 S    
C98   N26   1.440491 S    
N22   O91   1.300300 A    
C12   C53   1.486936 S    
C29   N13   1.435167 S    
N35   O118  1.301262 A    
N47   O141  1.300549 A    
C26   N10   1.435267 S    
C6    C110  1.464295 S    
C145  N57   1.435314 S    
N5    O57   1.300956 A    
N48   O144  1.301185 A    
O37   Cu10  1.967110 S    
C22   N6    1.433664 S    
O15   C7    1.291728 A    
C141  N53   1.434538 S    
N52   O152  1.300941 A    
C82   C98   1.399227 A    
C135  N47   1.437097 S    
C21   C59   1.401942 A    
C19   C35   1.406265 A    
O43   C175  1.288583 A    
C32   C48   1.407760 A    
N54   O156  1.300033 A    
C46   I14   2.155837 S    
C86   C102  1.398402 A    
O25   Cu5   1.954719 S    
Cu6   Cu8   2.675907 S    
C80   C96   1.399255 A    
O27   Cu7   1.953671 S    
C141  C153  1.412079 A    
C74   C90   1.399090 A    
C100  N28   1.440069 S    
C21   C37   1.408334 A    
N1    O50   1.300828 A    
C96   N24   1.440660 S    
N4    O56   1.300776 A    
C38   I6    2.146507 S    
C127  C143  1.404136 A    
C47   C55   1.420973 A    
N39   O126  1.301258 A    
C139  C155  1.412396 A    
C77   C113  1.397844 A    
N27   O102  1.301625 A    
C41   C53   1.421000 A    
O19   C9    1.301672 A    
C137  C153  1.414015 A    
C133  N45   1.437911 S    
N2    O51   1.300951 A    
O24   C12   1.298800 A    
N31   O110  1.301661 A    
C104  N32   1.442194 S    
N42   O132  1.301327 A    
C21   N5    1.435400 S    
N37   O121  1.300541 A    
O12   Cu8   1.963237 S    
C132  C168  1.413653 A    
O14   Cu6   1.963212 S    
C143  N55   1.434100 S    
C136  C152  1.403688 A    
C95   C107  1.417183 A    
C16   C49   1.483779 S    
C84   C100  1.398652 A    
C19   C57   1.402413 A    
C31   C47   1.406575 A    
C124  C164  1.414595 A    
O40   Cu10  1.968440 S    
O44   Cu11  1.969400 S    
N3    O53   1.300927 A    
O9    C5    1.291960 A    
C139  N51   1.434089 S    
C44   I12   2.149542 S    
C86   C120  1.397729 A    
C88   C104  1.397741 A    
C150  C160  1.410651 A    
N46   O139  1.300551 A    
C74   C114  1.396759 A    
O33   Cu9   1.967109 S    
O30   C16   1.298554 A    
O2    C2    1.292295 A    
C103  N31   1.439827 S    
N56   O160  1.301014 A    
O4    C4    1.292327 A    
N18   O83   1.300343 A    
C122  N34   1.438030 S    
N59   O165  1.300759 A    
N43   O134  1.301323 A    
O20   C10   1.299091 A    
N30   O107  1.300367 A    
N13   O74   1.301065 A    
N36   O120  1.301310 A    
N58   O164  1.300986 A    
C143  C155  1.410620 A    
N17   O81   1.300538 A    
O10   Cu6   1.963252 S    
C39   I7    2.149115 S    
C146  N58   1.435826 S    
O46   Cu12  1.969396 S    
C93   C105  1.417326 A    
C121  N33   1.438546 S    
N24   O95   1.300379 A    
C142  N54   1.434105 S    
N44   O135  1.301162 A    
C150  N62   1.434551 S    
C132  N44   1.438247 S    
O38   Cu10  1.969396 S    
O39   Cu10  1.968160 S    
O1    Cu1   1.964463 S    
C114  C162  1.477340 S    
