data_mof_unit_30104.cif
_audit_creation_date              2012-10-26T18:28:26-0400
_audit_creation_method            fapswitch 2.2
_symmetry_space_group_name_H-M    P1
_symmetry_Int_Tables_number       1
_space_group_crystal_system       triclinic
_cell_length_a                    27.806438
_cell_length_b                    11.036791
_cell_length_c                    9.811209
_cell_angle_alpha                 111.072525
_cell_angle_beta                  98.058258
_cell_angle_gamma                 91.007341
_cell_volume                      2774.35896435

loop_
_atom_site_label
_atom_site_type_symbol
_atom_type_description
_atom_site_fract_x
_atom_site_fract_y
_atom_site_fract_z
_atom_type_partial_charge
C1    C     C_R   0.496487 0.254105 0.440675 0.566247
C2    C     C_R   0.870293 0.383528 0.475659 0.035319
C3    C     C_R   0.354639 0.500370 0.504222 -0.044460
C4    C     C_R   0.645364 0.499843 0.495799 -0.035901
C5    C     C_R   0.972648 0.382164 0.482162 0.022978
C6    C     C_R   0.027522 0.616526 0.522725 0.023038
C7    C     C_R   0.975945 0.614184 0.510856 0.023612
C8    C     C_R   0.023842 0.382096 0.483030 0.023126
C9    C     C_R   0.948928 0.497746 0.493806 0.039244
C10   C     C_R   0.051050 0.499815 0.505587 0.039165
C11   C     C_R   0.944074 0.270378 0.470634 -0.127978
C12   C     C_R   0.503513 0.745895 0.559325 0.564942
C13   C     C_R   0.056718 0.732306 0.552558 -0.128935
C14   C     C_R   0.893994 0.271262 0.467101 -0.091515
C15   C     C_R   0.106910 0.732256 0.558873 -0.091902
C16   C     C_R   0.407484 0.500117 0.501433 0.560449
C17   C     C_R   0.592517 0.499924 0.498574 0.559419
C18   C     C_R   0.049032 0.267825 0.461362 -0.129192
C19   C     C_R   0.950130 0.724443 0.514214 -0.127454
C20   C     C_2   0.494569 0.114839 0.407200 -0.114961
C21   C     C_2   0.505431 0.885161 0.592800 -0.115761
C22   C     C_2   0.500905 0.069549 0.516669 -0.148902
C23   C     C_R   0.102431 0.500792 0.510685 -0.022320
C24   C     C_2   0.499095 0.930451 0.483330 -0.148979
C25   C     C_2   0.504186 0.510476 0.081265 -0.020225
C26   C     C_2   0.495812 0.489528 0.918736 -0.019265
C27   C     C_R   0.176846 0.387919 0.491981 0.441624
C28   C     C_R   0.822707 0.607785 0.494927 0.448665
C29   C     C_R   0.180678 0.615536 0.538545 0.448004
C30   C     C_R   0.819747 0.385571 0.473510 0.449647
C31   C     C_R   0.286328 0.515684 0.636939 -0.095652
C32   C     C_R   0.713579 0.480394 0.361957 -0.089325
C33   C     C_R   0.336338 0.515612 0.635214 -0.146447
C34   C     C_R   0.897550 0.497005 0.488735 -0.020744
C35   C     C_R   0.663577 0.480733 0.363787 -0.147745
C36   C     C_R   0.322045 0.485069 0.375017 -0.111929
C37   C     C_R   0.678048 0.519167 0.626004 -0.133537
C38   C     C_R   0.271781 0.484776 0.375674 0.307565
C39   C     C_R   0.728316 0.519899 0.625414 0.267261
C40   C     C_R   0.253926 0.500606 0.508205 0.222161
C41   C     C_R   0.746081 0.499397 0.491679 0.225802
C42   C     C_R   0.126254 0.385373 0.489824 0.034491
C43   C     C_R   0.873291 0.609812 0.496965 0.039825
C44   C     C_R   0.099144 0.269793 0.464987 -0.094157
C45   C     C_R   0.899911 0.722127 0.507851 -0.089871
C46   C     C_R   0.130127 0.617163 0.536414 0.034502
Cu1   Cu    Cu3+1 0.508480 0.521810 0.644910 0.959727
Cu2   Cu    Cu3+1 0.491520 0.478190 0.355090 0.963664
H1    H     H_    0.335794 0.473493 0.273518 0.187395
H2    H     H_    0.882014 0.809515 0.511954 0.174223
H3    H     H_    0.639239 0.465777 0.261865 0.149591
H4    H     H_    0.360608 0.527374 0.736317 0.150895
H5    H     H_    0.727220 0.465022 0.259337 0.166943
H6    H     H_    0.272603 0.527581 0.738647 0.148617
H7    H     H_    0.873909 0.183123 0.458524 0.176437
H8    H     H_    0.127482 0.823413 0.581066 0.177177
H9    H     H_    0.959209 0.180323 0.466536 0.112896
H10   H     H_    0.042134 0.825906 0.574090 0.114658
H11   H     H_    0.031148 0.173839 0.438596 0.113660
H12   H     H_    0.664387 0.533624 0.728319 0.166796
H13   H     H_    0.967455 0.814317 0.519474 0.112221
H14   H     H_    0.492509 0.864734 0.368176 0.159117
H15   H     H_    0.507490 0.135266 0.631824 0.159103
H16   H     H_    0.238907 0.429197 0.982529 0.374538
H17   H     H_    0.730339 0.689035 0.946646 0.347156
H18   H     H_    0.512031 0.951164 0.707757 0.110232
H19   H     H_    0.487970 0.048836 0.292243 0.110810
H20   H     H_    0.467483 0.417324 0.845812 0.149347
H21   H     H_    0.532514 0.582686 0.154190 0.148394
H22   H     H_    0.547911 0.622447 0.934374 0.208993
H23   H     H_    0.452091 0.377547 0.065624 0.212485
H24   H     H_    0.116552 0.179473 0.447272 0.175393
N1    N     N_R   0.202691 0.501455 0.513429 -0.382393
N2    N     N_R   0.797295 0.497405 0.486105 -0.380039
N3    N     N_2   0.478780 0.445430 0.137360 -0.350090
N4    N     N_2   0.521220 0.554570 0.862640 -0.350855
O1    O     O_R   0.504520 0.332330 0.577400 -0.497222
O2    O     O_2   0.799145 0.715598 0.503790 -0.458010
O3    O     O_2   0.793220 0.277047 0.459763 -0.450301
O4    O     O_2   0.207621 0.726660 0.564192 -0.449322
O5    O     O_2   0.194581 0.354262 0.177311 -0.244264
O6    O     O_2   0.206845 0.587844 0.229272 -0.242602
O7    O     O_3   0.263365 0.432833 0.067916 -0.536404
O8    O     O_2   0.788652 0.419283 0.786401 -0.197606
O9    O     O_2   0.809308 0.643481 0.812650 -0.257022
O10   O     O_3   0.738093 0.599578 0.938106 -0.509125
O11   O     O_R   0.495480 0.667670 0.422600 -0.497408
O12   O     O_R   0.490210 0.295500 0.332650 -0.485635
O13   O     O_R   0.509790 0.704500 0.667350 -0.487139
O14   O     O_R   0.437420 0.518430 0.622370 -0.497628
O15   O     O_R   0.562580 0.481570 0.377630 -0.499066
O16   O     O_R   0.423110 0.481600 0.377610 -0.490512
O17   O     O_R   0.576890 0.518400 0.622390 -0.492640
O18   O     O_2   0.200010 0.277720 0.471154 -0.456056
S1    S     S_3+6 0.232076 0.464857 0.210335 0.046079
S2    S     S_3+6 0.768050 0.545703 0.792447 0.054864

loop_
_geom_bond_atom_site_label_1
_geom_bond_atom_site_label_2
_ccdc_geom_bond_type
H23   N3    S    
C16   O14   A    
C21   H18   S    
C1    O1    A    
C20   H19   S    
C17   O15   A    
C28   N2    A    
H17   O10   S    
C39   C41   A    
C31   C40   A    
C33   H4    S    
C23   C42   A    
C3    C36   A    
Cu1   N4    S    
C5    C11   A    
C30   N2    A    
O9    S2    D    
C29   N1    A    
C3    C33   A    
C40   N1    S    
O8    S2    D    
C22   H15   S    
Cu2   O15   S    
C38   S1    S    
C26   N4    D    
C32   C41   A    
Cu2   O12   S    
C28   O2    S    
C2    C34   A    
C1    O12   A    
C14   H7    S    
C41   N2    S    
C4    C35   A    
C23   C46   A    
Cu1   O13   S    
Cu2   N3    S    
C42   C44   A    
C32   C35   A    
C12   O13   A    
C13   H10   S    
C25   C26   S    
C12   C21   S    
C8    C18   A    
C25   N3    D    
H16   O7    S    
C5    C9    A    
C18   C44   A    
Cu1   Cu2   S    
O7    S1    S    
C31   C33   A    
Cu1   O17   S    
Cu2   O11   S    
C43   C45   A    
O10   S2    S    
C30   O3    S    
C20   C22   D    
C16   O16   A    
C7    C19   A    
C13   C15   A    
C35   H3    S    
C9    C34   A    
Cu1   O14   S    
C22   C24   S    
C17   O17   A    
C4    C17   S    
H22   N4    S    
C32   H5    S    
C7    C9    A    
C1    C20   S    
C24   H14   S    
O6    S1    D    
C12   O11   A    
C34   C43   A    
C6    C10   A    
C5    C8    A    
C19   C45   A    
C6    C7    A    
C10   C23   A    
C28   C43   A    
C29   C46   A    
C2    C30   A    
C26   H20   S    
C15   H8    S    
C36   C38   A    
C37   C39   A    
C11   H9    S    
C6    C13   A    
C38   C40   A    
C27   C42   A    
C29   O4    S    
C45   H2    S    
C19   H13   S    
O5    S1    D    
C11   C14   A    
C44   H24   S    
C31   H6    S    
C2    C14   A    
C39   S2    S    
C37   H12   S    
C3    C16   S    
C18   H11   S    
C25   H21   S    
C4    C37   A    
C8    C10   A    
Cu2   O16   S    
C21   C24   D    
Cu1   O1    S    
C27   O18   S    
C15   C46   A    
C27   N1    A    
C36   H1    S    
