data_mof_unit_7322.cif
_audit_creation_date              2012-10-26T19:21:34-0400
_audit_creation_method            fapswitch 2.2
_symmetry_space_group_name_H-M    P1
_symmetry_Int_Tables_number       1
_space_group_crystal_system       triclinic
_cell_length_a                    9.741011
_cell_length_b                    10.965267
_cell_length_c                    15.875555
_cell_angle_alpha                 94.203195
_cell_angle_beta                  78.696995
_cell_angle_gamma                 110.057724
_cell_volume                      1561.93467418

loop_
_atom_site_label
_atom_site_type_symbol
_atom_type_description
_atom_site_fract_x
_atom_site_fract_y
_atom_site_fract_z
_atom_type_partial_charge
C1    C     C_R   0.551160 0.744859 0.510430 0.557998
C2    C     C_2   0.484504 0.066751 0.553104 -0.020098
C3    C     C_2   0.921650 0.486512 0.494660 -0.034293
C4    C     C_2   0.073115 0.504812 0.510098 -0.033576
C5    C     C_R   0.409493 0.485471 0.663220 0.539015
C6    C     C_R   0.590180 0.512775 0.336714 0.551649
C7    C     C_R   0.351901 0.470670 0.757178 0.001560
C8    C     C_R   0.645846 0.516875 0.242382 0.003445
C9    C     C_R   0.156539 0.417518 0.883845 -0.113221
C10   C     C_R   0.835480 0.534292 0.114420 -0.111730
C11   C     C_R   0.198674 0.433937 0.794696 -0.011362
C12   C     C_R   0.443360 0.254487 0.498700 0.555368
C13   C     C_R   0.795574 0.532705 0.204165 -0.011355
C14   C     C_R   0.456811 0.490873 0.810680 -0.151485
C15   C     C_R   0.541844 0.501765 0.188988 -0.147766
C16   C     C_R   0.415038 0.469966 0.899747 0.026065
C17   C     C_R   0.579439 0.496643 0.098993 0.026247
C18   C     C_R   0.262353 0.435484 0.936017 0.037459
C19   C     C_R   0.729824 0.516887 0.062222 0.037595
C20   C     C_R   0.520762 0.483821 0.953793 0.037356
C21   C     C_R   0.472333 0.474048 0.044609 0.037398
C22   C     C_3   0.914959 0.547850 0.255863 -0.377498
C23   C     C_R   0.318122 0.438348 0.077780 -0.137275
C24   C     C_3   0.077927 0.412491 0.742921 -0.379751
C25   C     C_3   0.592275 0.148320 0.609039 -0.359369
C26   C     C_3   0.295606 0.838933 0.578301 -0.372783
C27   C     C_R   0.672463 0.503701 0.920048 -0.137979
C28   C     C_R   0.215686 0.418706 0.024309 -0.139705
C29   C     C_R   0.774210 0.519257 0.973379 -0.139169
C30   C     C_2   0.570007 0.882635 0.522887 -0.107162
C31   C     C_2   0.413152 0.115437 0.506299 -0.109735
C32   C     C_2   0.454519 0.926354 0.550338 -0.012973
Cu1   Cu    Cu3+1 0.362980 0.479380 0.485080 0.915576
Cu2   Cu    Cu3+1 0.637020 0.520620 0.514920 0.909711
H1    H     H_    0.098581 0.390466 0.052566 0.102703
H2    H     H_    0.682589 0.951400 0.508939 0.088879
H3    H     H_    0.114318 0.567254 0.562158 0.133741
H4    H     H_    0.876138 0.417107 0.446518 0.141288
H5    H     H_    0.115879 0.389933 0.413150 0.200118
H6    H     H_    0.888300 0.616951 0.582865 0.198995
H7    H     H_    0.885235 0.460008 0.295340 0.135925
H8    H     H_    0.024443 0.559292 0.214180 0.108772
H9    H     H_    0.929050 0.635607 0.297438 0.160412
H10   H     H_    0.094973 0.503541 0.709762 0.132216
H11   H     H_    0.078074 0.332809 0.695586 0.159153
H12   H     H_    0.889189 0.534149 0.944600 0.102648
H13   H     H_    0.965711 0.384642 0.784031 0.106745
H14   H     H_    0.619142 0.085772 0.650720 0.116555
H15   H     H_    0.698126 0.206612 0.568634 0.150099
H16   H     H_    0.542291 0.212745 0.651866 0.150534
H17   H     H_    0.225121 0.895824 0.610778 0.117188
H18   H     H_    0.248633 0.790809 0.521396 0.147469
H19   H     H_    0.290201 0.765891 0.624890 0.134034
H20   H     H_    0.431325 0.496729 0.219333 0.126374
H21   H     H_    0.572212 0.525770 0.781247 0.125367
H22   H     H_    0.039877 0.389636 0.913052 0.100822
H23   H     H_    0.949996 0.548440 0.084715 0.103037
H24   H     H_    0.271397 0.420325 0.144842 0.100333
H25   H     H_    0.716483 0.503854 0.852331 0.098582
H26   H     H_    0.329953 0.050003 0.472130 0.092752
N1    N     N_2   0.842890 0.551600 0.537350 -0.357101
N2    N     N_2   0.157110 0.448400 0.462650 -0.353883
O1    O     O_R   0.426810 0.668300 0.492040 -0.486868
O2    O     O_R   0.573190 0.331700 0.507960 -0.495349
O3    O     O_R   0.658240 0.703130 0.517240 -0.487969
O4    O     O_R   0.341760 0.296870 0.482760 -0.487569
O5    O     O_R   0.319390 0.472820 0.610170 -0.502232
O6    O     O_R   0.680610 0.527180 0.389830 -0.494128
O7    O     O_R   0.550820 0.507640 0.635370 -0.502400
O8    O     O_R   0.449180 0.492360 0.364630 -0.495400

loop_
_geom_bond_atom_site_label_1
_geom_bond_atom_site_label_2
_ccdc_geom_bond_type
C31   H26   S    
Cu1   O4    S    
C23   H24   S    
C1    O3    A    
C26   H19   S    
C26   C32   S    
C8    C13   A    
C20   C27   A    
C26   H18   S    
C27   C29   A    
C5    C7    S    
C10   C19   A    
C22   H9    S    
Cu2   O7    S    
C30   H2    S    
C29   H12   S    
Cu1   O1    S    
C14   H21   S    
C9    C18   A    
C6    O6    A    
Cu1   Cu2   S    
C5    O7    A    
C12   C31   S    
C9    H22   S    
C27   H25   S    
C23   C28   A    
C4    H3    S    
C30   C32   D    
C9    C11   A    
C25   H14   S    
C6    O8    A    
C22   H8    S    
C5    O5    A    
C24   H10   S    
C24   H11   S    
C1    O1    A    
Cu2   O3    S    
C2    C32   S    
C16   C20   A    
C17   C19   A    
C13   C22   S    
C7    C11   A    
C2    C25   S    
C14   C16   A    
C3    N1    D    
C21   C23   A    
Cu1   O8    S    
C12   O2    A    
C2    C31   D    
C25   H15   S    
C22   H7    S    
C3    C4    S    
C19   C29   A    
C15   H20   S    
C4    N2    D    
C11   C24   S    
C10   H23   S    
C18   C28   A    
C20   C21   A    
Cu1   O5    S    
C16   C18   A    
Cu2   N1    S    
Cu2   O6    S    
C15   C17   A    
H5    N2    S    
C25   H16   S    
C1    C30   S    
C6    C8    S    
C8    C15   A    
C26   H17   S    
C24   H13   S    
C12   O4    A    
Cu2   O2    S    
C7    C14   A    
C17   C21   A    
H6    N1    S    
C28   H1    S    
C3    H4    S    
Cu1   N2    S    
C10   C13   A    
