data_mof_unit_31357.cif
_audit_creation_date              2012-12-10T19:03:37-0500
_audit_creation_method            fapswitch 2.2
_symmetry_space_group_name_H-M    P1
_symmetry_Int_Tables_number       1
_space_group_crystal_system       triclinic
_cell_length_a                    15.901515
_cell_length_b                    10.82835
_cell_length_c                    9.534089
_cell_angle_alpha                 89.721402
_cell_angle_beta                  90.083089
_cell_angle_gamma                 90.13832
_cell_volume                      1641.62191374

loop_
_atom_site_label
_atom_site_type_symbol
_atom_type_description
_atom_site_fract_x
_atom_site_fract_y
_atom_site_fract_z
_atom_type_partial_charge
C1    C     C_R   0.498875 0.262273 0.500339 0.812833
C2    C     C_3   0.953025 0.449873 0.652768 -0.023966
C3    C     C_3   0.916796 0.494413 0.504720 0.025181
C4    C     C_3   0.951487 0.627290 0.466880 -0.196038
C5    C     C_3   0.048653 0.629541 0.482298 -0.305872
C6    C     C_1   0.824284 0.496961 0.502198 0.044267
C7    C     C_1   0.175370 0.498717 0.499323 -0.065471
C8    C     C_1   0.250780 0.499629 0.499604 -0.159843
C9    C     C_R   0.496335 0.062121 0.626700 0.126186
C10   C     C_R   0.492073 0.129035 0.500899 -0.151864
C11   C     C_R   0.477760 0.064918 0.374992 -0.185464
C12   C     C_R   0.340260 0.500082 0.499936 0.824361
C13   C     C_R   0.478342 0.936156 0.374185 -0.173155
C14   C     C_R   0.493370 0.870581 0.499231 -0.100934
C15   C     C_R   0.497522 0.935105 0.625036 0.097831
C16   C     C_3   0.559277 0.925940 0.742931 -0.547291
C17   C     C_3   0.557200 0.067057 0.748085 -0.068853
C18   C     C_R   0.546606 0.584962 0.073404 0.191846
C19   C     C_R   0.447252 0.425414 0.074726 -0.046251
C20   C     C_R   0.446809 0.426174 0.925732 -0.020812
C21   C     C_R   0.546862 0.584565 0.925854 0.220886
C22   C     C_3   0.639953 0.601806 0.919298 -0.479117
C23   C     C_R   0.499614 0.737619 0.499623 0.806853
C24   C     C_3   0.639872 0.601896 0.079061 -0.253982
C25   C     C_R   0.659658 0.500025 0.500085 0.841232
C26   C     C_3   0.051875 0.445426 0.642182 -0.563879
C27   C     C_3   0.048746 0.409981 0.381667 -0.185888
C28   C     C_3   0.949898 0.407660 0.384198 -0.215744
C29   C     C_1   0.748955 0.498776 0.500696 -0.028209
C30   C     C_3   0.083120 0.496660 0.499321 0.201855
Cu1   Cu    Cu3+1 0.500000 0.499980 0.640670 0.989357
Cu2   Cu    Cu3+1 0.500000 0.500020 0.359330 0.968940
H1    H     H_    0.082427 0.497649 0.728844 0.180326
H2    H     H_    0.936732 0.646010 0.354511 0.205201
H3    H     H_    0.469571 0.113677 0.276447 0.178752
H4    H     H_    0.470382 0.888660 0.275303 0.188691
H5    H     H_    0.531375 0.878929 0.835966 0.227720
H6    H     H_    0.620313 0.886152 0.708620 0.181480
H7    H     H_    0.405948 0.363004 0.130874 0.148215
H8    H     H_    0.076358 0.349741 0.654277 0.180090
H9    H     H_    0.404516 0.365560 0.869795 0.178809
H10   H     H_    0.672797 0.520207 0.875357 0.264642
H11   H     H_    0.657568 0.691335 0.869723 0.202159
H12   H     H_    0.673174 0.520824 0.124554 0.195158
H13   H     H_    0.074105 0.316590 0.404880 0.160334
H14   H     H_    0.926572 0.446915 0.283101 0.174843
H15   H     H_    0.067808 0.684711 0.575440 0.179052
H16   H     H_    0.077097 0.676126 0.389555 0.215267
N1    N     N_R   0.500530 0.500930 0.147930 -0.202227
N2    N     N_R   0.500530 0.500890 0.852020 -0.187005
O1    O     O_R   0.500000 0.319640 0.618810 -0.558992
O2    O     O_R   0.500010 0.319680 0.381230 -0.586847
O3    O     O_R   0.379430 0.499990 0.618840 -0.580668
O4    O     O_R   0.379440 0.500030 0.381260 -0.581797
O5    O     O_R   0.499990 0.680320 0.618770 -0.578953
O6    O     O_R   0.500000 0.680360 0.381190 -0.584616
O7    O     O_R   0.620560 0.499970 0.618740 -0.562687
O8    O     O_R   0.620570 0.500010 0.381160 -0.578111
C31   C     C_2   0.920450 0.322244 0.695688 0.477327
H17   H     H_    0.963494 0.248653 0.724226 0.077963
O9    O     O_2   0.845143 0.300698 0.702978 -0.466856
C32   C     C_2   0.928314 0.538698 0.769333 0.356640
H18   H     H_    0.972554 0.607464 0.807146 0.095677
O10   O     O_2   0.857206 0.538766 0.817857 -0.518215
C33   C     C_2   0.518715 0.113324 0.883117 0.460021
H19   H     H_    0.558181 0.125873 0.974958 0.107203
O11   O     O_2   0.443328 0.132893 0.892293 -0.586059
C34   C     C_2   0.640318 0.126937 0.710495 0.373737
H20   H     H_    0.674897 0.095310 0.619389 0.100900
O12   O     O_2   0.669084 0.211555 0.780064 -0.487145
C35   C     C_2   0.665424 0.723040 0.143937 0.922775
O13   O     O_2   0.631897 0.819591 0.107234 -0.619592
O14   O     O_R   0.727735 0.723917 0.247412 -0.770478
H21   H     H_    0.739401 0.809839 0.284589 0.336769
C36   C     C_2   0.082549 0.442504 0.237441 0.338856
H22   H     H_    0.129001 0.383104 0.189089 0.083210
O15   O     O_2   0.059709 0.535426 0.175241 -0.546096
C37   C     C_2   0.913208 0.277462 0.387189 0.854546
O16   O     O_2   0.840222 0.261231 0.350827 -0.564956
O17   O     O_R   0.961591 0.176152 0.429650 -0.769783
H23   H     H_    0.929000 0.095630 0.426648 0.375529
C38   C     C_2   0.911238 0.733658 0.544666 0.348818
H24   H     H_    0.857780 0.719095 0.613236 0.109506
O18   O     O_2   0.936335 0.839096 0.525880 -0.528128

loop_
_geom_bond_atom_site_label_1
_geom_bond_atom_site_label_2
_ccdc_geom_bond_type
C18   C21   A    
O14   H21   S    
C19   C20   A    
Cu2   O8    S    
C3    C6    S    
C20   H9    S    
C7    C8    T    
C5    H15   S    
C28   H14   S    
C18   C24   S    
C3    C28   S    
C37   O17   S    
C16   C17   S    
C15   C16   S    
Cu2   O2    S    
C20   N2    A    
C22   H11   S    
C34   H20   S    
C33   O11   D    
C32   O10   D    
C28   C37   S    
C9    C10   A    
C12   O3    A    
C16   H5    S    
C27   H13   S    
C31   H17   S    
C7    C30   S    
C21   C22   S    
C27   C30   S    
C25   O7    A    
C27   C36   S    
Cu2   O4    S    
C21   N2    A    
C25   C29   S    
C5    H16   S    
C4    H2    S    
C31   O9    D    
C23   O6    A    
C13   H4    S    
C35   O14   S    
C2    C31   S    
C4    C5    S    
C14   C23   S    
C36   H22   S    
C32   H18   S    
C36   O15   D    
C19   N1    A    
C26   H1    S    
Cu1   Cu2   S    
C8    C12   S    
C2    C26   S    
Cu1   O3    S    
C1    O1    A    
C19   H7    S    
C9    C17   S    
C38   H24   S    
C38   O18   D    
C24   H12   S    
C22   C24   S    
C25   O8    A    
Cu1   N2    S    
C3    C4    S    
C5    C30   S    
C17   C34   S    
C37   O16   D    
C1    C10   S    
Cu1   O1    S    
O17   H23   S    
C23   O5    A    
C17   C33   S    
Cu1   O7    S    
C11   H3    S    
C2    C3    S    
C9    C15   A    
C35   O13   D    
C11   C13   A    
C26   H8    S    
C22   H10   S    
C1    O2    A    
Cu2   N1    S    
C10   C11   A    
C6    C29   T    
C4    C38   S    
C24   C35   S    
C34   O12   D    
C33   H19   S    
C27   C28   S    
C14   C15   A    
Cu1   O5    S    
C13   C14   A    
Cu2   O6    S    
C12   O4    A    
C2    C32   S    
C18   N1    A    
C16   H6    S    
C26   C30   S    
