data_mof_unit_51156.cif
_audit_creation_date              2012-12-11T17:39:38-0500
_audit_creation_method            fapswitch 2.2
_symmetry_space_group_name_H-M    P1
_symmetry_Int_Tables_number       1
_space_group_crystal_system       triclinic
_cell_length_a                    15.068984
_cell_length_b                    15.090056
_cell_length_c                    14.940511
_cell_angle_alpha                 108.702809
_cell_angle_beta                  110.215514
_cell_angle_gamma                 109.929067
_cell_volume                      2600.80617454

loop_
_atom_site_label
_atom_site_type_symbol
_atom_type_description
_atom_site_fract_x
_atom_site_fract_y
_atom_site_fract_z
_atom_type_partial_charge
C1    C     C_R   0.909800 0.976243 0.721799 -0.121432
C2    C     C_R   0.998878 0.322522 0.542217 0.036148
C3    C     C_R   0.366828 0.298408 0.798879 0.132932
C4    C     C_R   0.633841 0.934720 0.431018 0.068413
C5    C     C_R   0.735501 0.686410 0.277823 -0.142790
C6    C     C_R   0.241831 0.023276 0.430624 -0.102014
C7    C     C_R   0.090686 0.789415 0.591766 -0.123835
C8    C     C_R   0.906763 0.998678 0.198070 -0.141046
C9    C     C_R   0.088806 0.089802 0.287063 -0.145824
C10   C     C_R   0.907892 0.701450 0.503040 -0.147631
C11   C     C_R   0.738297 0.778538 0.185466 -0.131165
C12   C     C_R   0.091833 0.314562 0.559293 -0.131612
C13   C     C_R   0.255618 0.941428 0.531788 -0.138409
C14   C     C_R   0.701757 0.676029 0.174959 0.129705
C15   C     C_R   0.281124 0.959558 0.455953 0.044101
C16   C     C_R   0.998269 0.697936 0.561236 0.054057
C17   C     C_R   0.994878 0.053736 0.189901 0.056522
C18   C     C_R   0.493083 0.597887 0.332559 -0.111206
C19   C     C_R   0.466959 0.676461 0.324313 -0.140736
C20   C     C_R   0.458812 0.742546 0.408459 0.115948
C21   C     C_R   0.474697 0.727244 0.499474 -0.184851
C22   C     C_R   0.503191 0.650276 0.508369 -0.094985
C23   C     C_R   0.303831 0.206697 0.797926 -0.144568
C24   C     C_R   0.511600 0.585022 0.424670 -0.092403
C25   C     C_R   0.364159 0.848257 0.418913 -0.244765
C26   C     C_R   0.359850 0.942154 0.430029 0.068963
C27   C     C_R   0.436613 0.023030 0.424175 0.022758
C28   C     C_R   0.514741 0.007644 0.407044 -0.242923
C29   C     C_R   0.527140 0.920497 0.408419 0.062427
C30   C     C_R   0.448784 0.836844 0.409203 0.024436
C31   C     C_R   0.419998 0.161531 0.372493 -0.214302
C32   C     C_R   0.408484 0.253152 0.395942 -0.201439
C33   C     C_R   0.429828 0.316790 0.500960 0.154065
C34   C     C_R   0.696882 0.993559 0.400721 -0.159457
C35   C     C_R   0.472183 0.294465 0.584821 -0.176537
C36   C     C_R   0.482802 0.202766 0.561633 -0.137944
C37   C     C_R   0.450342 0.132324 0.453801 0.120629
C38   C     C_R   0.792588 0.179072 0.186778 -0.120377
C39   C     C_R   0.867317 0.273105 0.288945 -0.115977
C40   C     C_R   0.830451 0.315168 0.357167 0.113754
C41   C     C_R   0.717667 0.264143 0.320508 -0.191438
C42   C     C_R   0.643234 0.169646 0.218329 -0.124938
C43   C     C_R   0.680658 0.126919 0.151595 -0.099653
C44   C     C_R   0.909812 0.505987 0.478443 -0.236552
C45   C     C_R   0.302241 0.298399 0.707502 -0.131795
C46   C     C_R   0.991677 0.605362 0.572469 0.059930
C47   C     C_R   0.070098 0.612247 0.664076 0.022998
C48   C     C_R   0.069537 0.516710 0.653794 -0.243560
C49   C     C_R   0.991657 0.418175 0.555429 0.073560
C50   C     C_R   0.909850 0.412744 0.467302 0.017586
C51   C     C_R   0.261607 0.748343 0.825585 -0.172260
C52   C     C_R   0.336156 0.846869 0.924370 -0.115852
C53   C     C_R   0.300011 0.914057 0.968408 -0.090883
C54   C     C_R   0.189124 0.882570 0.914244 -0.111969
C55   C     C_R   0.114198 0.783904 0.815953 -0.136991
C56   C     C_R   0.696430 0.906642 0.495846 -0.137692
C57   C     C_R   0.149812 0.716142 0.769950 0.118415
C58   C     C_2   0.537409 0.465136 0.878087 -0.141301
C59   C     C_2   0.483970 0.371585 0.874641 -0.207244
C60   C     C_2   0.630267 0.559904 0.982188 -0.103420
C61   C     C_2   0.629118 0.574096 0.074520 -0.202880
C62   C     C_R   0.397670 0.253189 0.123298 -0.107593
C63   C     C_R   0.291111 0.196626 0.101784 -0.201499
C64   C     C_R   0.212735 0.223785 0.056132 0.116586
C65   C     C_R   0.242715 0.308561 0.032494 -0.131536
C66   C     C_R   0.349657 0.364735 0.053778 -0.120054
C67   C     C_R   0.908657 0.219428 0.477486 -0.105840
C68   C     C_R   0.426948 0.337028 0.099315 -0.124517
C69   C     C_R   0.090577 0.157233 0.121750 -0.229164
C70   C     C_R   0.990998 0.082802 0.103912 0.051963
C71   C     C_R   0.893719 0.035270 0.001977 0.006845
C72   C     C_R   0.902548 0.059621 0.922323 -0.218020
C73   C     C_R   0.004248 0.102294 0.929056 0.052279
C74   C     C_R   0.100314 0.162859 0.034182 0.025404
C75   C     C_R   0.771854 0.839183 0.932389 -0.143811
C76   C     C_R   0.666584 0.747918 0.873703 -0.139520
C77   C     C_R   0.574452 0.759770 0.846558 -0.087428
C78   C     C_R   0.093055 0.064640 0.812667 -0.141942
C79   C     C_R   0.587131 0.862717 0.874768 -0.125964
C80   C     C_R   0.691893 0.953726 0.929896 -0.189067
C81   C     C_R   0.785474 0.943176 0.961648 0.111619
C82   C     C_R   0.003648 0.054693 0.825373 0.054225
H1    H     H_    0.825040 0.945075 0.699134 0.096269
H2    H     H_    0.242427 0.047529 0.370578 0.118662
H3    H     H_    0.175305 0.816529 0.646150 0.103774
H4    H     H_    0.822937 0.977234 0.150090 0.112884
H5    H     H_    0.172381 0.148323 0.317348 0.103593
H6    H     H_    0.823718 0.649027 0.477847 0.095120
H7    H     H_    0.721500 0.798513 0.120465 0.112270
H8    H     H_    0.275589 0.895919 0.570296 0.098912
H9    H     H_    0.533964 0.525611 0.431900 0.109801
H10   H     H_    0.502056 0.549165 0.269091 0.117187
H11   H     H_    0.456777 0.688358 0.254457 0.112965
H12   H     H_    0.176055 0.380021 0.604072 0.106705
H13   H     H_    0.471581 0.779257 0.566463 0.119012
H14   H     H_    0.521464 0.643341 0.581616 0.127809
H15   H     H_    0.304593 0.786421 0.422630 0.134057
H16   H     H_    0.575695 0.073487 0.408796 0.130451
H17   H     H_    0.396505 0.108768 0.289292 0.120150
H18   H     H_    0.377067 0.270835 0.331029 0.131885
H19   H     H_    0.491341 0.344324 0.666644 0.123341
H20   H     H_    0.508495 0.182320 0.625613 0.122173
H21   H     H_    0.622771 0.053551 0.072767 0.103560
H22   H     H_    0.334350 0.174732 0.848989 0.105828
H23   H     H_    0.822230 0.146882 0.135716 0.115156
H24   H     H_    0.953912 0.312141 0.315769 0.116948
H25   H     H_    0.688013 0.296124 0.372112 0.122755
H26   H     H_    0.556738 0.129188 0.191251 0.098207
H27   H     H_    0.850798 0.501522 0.407564 0.132977
H28   H     H_    0.129506 0.518661 0.721682 0.130411
H29   H     H_    0.291383 0.698079 0.791899 0.106900
H30   H     H_    0.422077 0.871313 0.966708 0.104808
H31   H     H_    0.357795 0.990381 0.044597 0.090583
H32   H     H_    0.161064 0.934474 0.948477 0.112669
H33   H     H_    0.669578 0.015999 0.338822 0.105874
H34   H     H_    0.028393 0.760460 0.775663 0.113819
H35   H     H_    0.502442 0.480214 0.811836 0.116988
H36   H     H_    0.522717 0.356639 0.939964 0.139462
H37   H     H_    0.690032 0.624888 0.982079 0.125101
H38   H     H_    0.568051 0.512064 0.076123 0.126556
H39   H     H_    0.509851 0.380313 0.116725 0.093984
H40   H     H_    0.457568 0.232027 0.158611 0.108318
H41   H     H_    0.269320 0.131027 0.119945 0.108818
H42   H     H_    0.183443 0.330540 0.997372 0.114450
H43   H     H_    0.372628 0.429850 0.035235 0.115052
H44   H     H_    0.329329 0.349113 0.674410 0.095030
H45   H     H_    0.164461 0.203872 0.201497 0.126352
H46   H     H_    0.827656 0.024512 0.846200 0.126827
H47   H     H_    0.842289 0.828418 0.950410 0.115342
H48   H     H_    0.656087 0.667618 0.846245 0.105447
H49   H     H_    0.493138 0.688922 0.801203 0.100713
H50   H     H_    0.515575 0.871592 0.850712 0.106026
H51   H     H_    0.699773 0.031797 0.944513 0.113397
H52   H     H_    0.670981 0.853871 0.527321 0.117624
H53   H     H_    0.823973 0.196246 0.450267 0.113906
H54   H     H_    0.178934 0.113348 0.872887 0.130623
H55   H     H_    0.717548 0.622312 0.298194 0.093676
N1    N     N_R   0.941940 0.944580 0.650780 -0.042332
N2    N     N_R   0.206190 0.054080 0.497260 -0.042217
N3    N     N_R   0.056380 0.847410 0.553580 -0.040333
N4    N     N_R   0.944890 0.999100 0.292900 -0.039914
N5    N     N_R   0.058060 0.055420 0.349220 -0.040847
N6    N     N_R   0.943200 0.791100 0.497260 -0.036624
N7    N     N_R   0.795540 0.849750 0.292910 -0.044282
N8    N     N_R   0.205730 0.996760 0.553580 -0.041880
N9    N     N_R   0.056800 0.208900 0.502740 -0.040249
N10   N     N_R   0.204460 0.150250 0.707090 -0.043911
N11   N     N_R   0.794270 0.003240 0.446420 -0.039273
N12   N     N_R   0.204920 0.207570 0.650770 -0.042260
N13   N     N_R   0.793810 0.945920 0.502740 -0.040829
N14   N     N_R   0.943620 0.152590 0.446420 -0.042577
N15   N     N_R   0.055110 0.000900 0.707100 -0.042111
N16   N     N_R   0.795080 0.792430 0.349230 -0.039075
Ni1   Ni    Ni4+2 0.869690 0.869690 0.500000 0.214321
Ni2   Ni    Ni4+2 0.130310 0.130310 0.500000 0.220420
Ni3   Ni    Ni4+2 0.129250 0.998840 0.629170 0.213041
Ni4   Ni    Ni4+2 0.870750 0.001160 0.370830 0.216690
C83   C     C_1   0.397264 0.396985 0.519963 -0.049212
N17   N     N_1   0.368978 0.459850 0.535234 -0.101412

loop_
_geom_bond_atom_site_label_1
_geom_bond_atom_site_label_2
_ccdc_geom_bond_type
C39   H24   S    
C66   C68   A    
C13   H8    S    
C41   C42   A    
C48   H28   S    
C35   C36   A    
N3    N6    A    
C13   N8    A    
C2    C12   A    
N11   Ni4   S    
C78   N15   A    
C20   C30   S    
C53   C54   A    
C52   C53   A    
C10   H6    S    
C26   C27   A    
C62   C63   A    
C72   H46   S    
C18   C24   A    
N14   Ni4   S    
C36   C37   A    
N10   N12   A    
N11   N13   A    
C34   H33   S    
C77   H49   S    
C7    N3    A    
C11   C14   A    
C40   C50   S    
C55   H34   S    
C52   H30   S    
C58   C60   S    
N7    N16   A    
C60   H37   S    
C36   H20   S    
C18   C19   A    
C73   C74   A    
C65   H42   S    
C12   N9    A    
C6    N2    A    
C3    C23   A    
C78   C82   A    
C75   H47   S    
C6    C15   A    
C54   C55   A    
N8    Ni3   S    
C76   H48   S    
N2    N8    A    
N9    Ni2   S    
N15   Ni3   S    
C53   H31   S    
C70   C71   A    
C51   C57   A    
C31   H17   S    
N5    Ni2   S    
C11   N7    A    
C45   N12   A    
C4    C29   S    
C19   H11   S    
C72   C73   A    
C44   H27   S    
N1    Ni1   S    
C17   C70   S    
N16   Ni1   S    
C21   C22   A    
C4    C56   A    
C61   H38   S    
C12   H12   S    
C34   N11   A    
C44   C46   A    
C77   C79   A    
C38   C39   A    
C4    C34   A    
C6    H2    S    
C67   N14   A    
C51   C52   A    
C47   C48   A    
C76   C77   A    
C2    C67   A    
C16   C46   S    
C39   C40   A    
C75   C81   A    
C15   C26   S    
C21   H13   S    
N1    N15   A    
C1    C82   A    
C63   C64   A    
C14   C61   S    
C23   N10   A    
C3    C45   A    
C58   H35   S    
C80   H51   S    
C31   C37   A    
C60   C61   D    
C67   H53   S    
C75   C76   A    
C29   C30   A    
C2    C49   S    
C28   H16   S    
C47   C57   S    
C11   H7    S    
C63   H41   S    
C31   C32   A    
N2    Ni2   S    
C45   H44   S    
C48   C49   A    
N6    Ni1   S    
C69   C74   A    
N10   Ni3   S    
C5    C14   A    
C8    N4    A    
N3    Ni3   S    
N4    Ni4   S    
C9    C17   A    
C40   C41   A    
C49   C50   A    
C59   H36   S    
C13   C15   A    
C83   N17   T    
C22   C24   A    
C79   C80   A    
C58   C59   D    
C42   C43   A    
C56   N13   A    
C24   H9    S    
C73   C82   S    
C62   H40   S    
C33   C83   S    
C44   C50   A    
C25   C30   A    
C46   C47   A    
C28   C29   A    
C51   H29   S    
C41   H25   S    
C22   H14   S    
C7    C16   A    
C25   H15   S    
C80   C81   A    
C35   H19   S    
C68   H39   S    
C56   H52   S    
C9    N5    A    
C5    H55   S    
C1    H1    S    
C8    C17   A    
C66   H43   S    
C62   C68   A    
C18   H10   S    
C64   C65   A    
C19   C20   A    
C55   C57   A    
C25   C26   A    
C38   C43   A    
C10   C16   A    
N4    N5    A    
C32   C33   A    
C7    H3    S    
C78   H54   S    
C38   H23   S    
C5    N16   A    
C79   H50   S    
C54   H32   S    
C33   C35   A    
C8    H4    S    
C10   N6    A    
C23   H22   S    
N12   Ni2   S    
C69   C70   A    
C43   H21   S    
N9    N14   A    
C32   H18   S    
C71   C72   A    
C20   C21   A    
C69   H45   S    
C65   C66   A    
N13   Ni1   S    
C27   C28   A    
C64   C74   S    
N7    Ni4   S    
C42   H26   S    
C9    H5    S    
C1    N1    A    
C27   C37   S    
C71   C81   S    
C3    C59   S    
