data_mof_unit_64743.cif
_audit_creation_date              2012-12-10T18:24:38-0500
_audit_creation_method            fapswitch 2.2
_symmetry_space_group_name_H-M    P1
_symmetry_Int_Tables_number       1
_space_group_crystal_system       triclinic
_cell_length_a                    30.211029
_cell_length_b                    30.707903
_cell_length_c                    24.705314
_cell_angle_alpha                 89.986421
_cell_angle_beta                  128.356422
_cell_angle_gamma                 90.003418
_cell_volume                      17972.7222385

loop_
_atom_site_label
_atom_site_type_symbol
_atom_type_description
_atom_site_fract_x
_atom_site_fract_y
_atom_site_fract_z
_atom_type_partial_charge
C1    C     C_R   0.810579 0.810353 0.499385 0.854762
C2    C     C_R   0.189368 0.810357 0.500515 0.851938
C3    C     C_R   0.310595 0.310358 0.499434 0.880827
C4    C     C_R   0.689368 0.310352 0.500508 0.854134
C5    C     C_R   0.640477 0.747196 0.289954 -0.252740
C6    C     C_R   0.359391 0.747251 0.709990 -0.238339
C7    C     C_R   0.140541 0.247214 0.290011 -0.240550
C8    C     C_R   0.859501 0.247175 0.710052 -0.252852
C9    C     C_R   0.469893 0.748662 0.930592 0.305173
C10   C     C_R   0.529399 0.748578 0.069320 0.304606
C11   C     C_R   0.970480 0.248522 0.930688 0.304697
C12   C     C_R   0.029958 0.248589 0.069411 0.305227
C13   C     C_3   0.898193 0.823832 0.510651 -0.107481
C14   C     C_3   0.101281 0.823903 0.488153 -0.106976
C15   C     C_3   0.397353 0.323816 0.508839 -0.120046
C16   C     C_3   0.601324 0.323867 0.488219 -0.107414
C17   C     C_3   0.934528 0.860403 0.512795 -0.233443
C18   C     C_3   0.064992 0.860473 0.486071 -0.233056
C19   C     C_3   0.433696 0.360405 0.511048 -0.231376
C20   C     C_3   0.565026 0.360433 0.486115 -0.233197
C21   C     C_3   0.808475 0.868886 0.429233 0.241919
C22   C     C_3   0.191234 0.868384 0.571117 0.241719
C23   C     C_3   0.308008 0.369645 0.430100 0.242619
C24   C     C_3   0.691244 0.368410 0.571045 0.241506
C25   C     C_3   0.864712 0.878062 0.558536 -0.147982
C26   C     C_3   0.135975 0.878514 0.442129 -0.146319
C27   C     C_3   0.365874 0.377469 0.559745 -0.157856
C28   C     C_3   0.635894 0.378446 0.442022 -0.147229
C29   C     C_3   0.845215 0.844154 0.499747 -0.024635
C30   C     C_3   0.154737 0.844164 0.500169 -0.023787
C31   C     C_3   0.345217 0.344191 0.499832 0.003667
C32   C     C_3   0.654730 0.344145 0.500140 -0.024968
C33   C     C_3   0.905205 0.905421 0.500280 -0.020774
C34   C     C_3   0.094795 0.905418 0.499753 -0.020145
C35   C     C_3   0.405129 0.405522 0.500337 0.008502
C36   C     C_3   0.594774 0.405393 0.499708 -0.021381
C37   C     C_3   0.845232 0.903309 0.428654 -0.335399
C38   C     C_3   0.154463 0.902780 0.571726 -0.335668
C39   C     C_3   0.344654 0.404205 0.429363 -0.419781
C40   C     C_3   0.654470 0.402801 0.571646 -0.334548
C41   C     C_3   0.898489 0.915196 0.556919 0.280433
C42   C     C_3   0.102303 0.915662 0.443924 0.279157
C43   C     C_3   0.399702 0.414627 0.558245 0.281248
C44   C     C_3   0.602186 0.415578 0.443775 0.280279
C45   C     C_R   0.681500 0.749052 0.365506 0.864299
C46   C     C_R   0.318474 0.749058 0.634472 0.887958
C47   C     C_R   0.181507 0.249048 0.365529 0.897565
C48   C     C_R   0.818497 0.249045 0.634497 0.864246
C49   C     C_R   0.839722 0.769548 0.746485 -0.181101
C50   C     C_R   0.160117 0.769808 0.253484 -0.181566
C51   C     C_R   0.339879 0.269749 0.746510 -0.181294
C52   C     C_R   0.660284 0.269593 0.253511 -0.181250
C53   C     C_R   0.875907 0.768936 0.818145 -0.248564
C54   C     C_R   0.123940 0.769190 0.181823 -0.245152
C55   C     C_R   0.376074 0.269139 0.818170 -0.245382
C56   C     C_R   0.624115 0.268975 0.181849 -0.248597
C57   C     C_R   0.928914 0.748791 0.854622 0.042718
C58   C     C_R   0.071093 0.748795 0.145363 0.042286
C59   C     C_R   0.428964 0.248805 0.854634 0.042315
C60   C     C_R   0.571141 0.248785 0.145376 0.042702
C61   C     C_R   0.945514 0.728570 0.818509 0.482468
C62   C     C_R   0.054646 0.728330 0.181493 0.481492
C63   C     C_R   0.445439 0.228399 0.818506 0.481679
C64   C     C_R   0.554560 0.228520 0.181492 0.482430
C65   C     C_R   0.908425 0.729104 0.746099 -0.311881
C66   C     C_R   0.091724 0.728877 0.253901 -0.310310
C67   C     C_R   0.408342 0.228937 0.746097 -0.309948
C68   C     C_R   0.591631 0.229062 0.253899 -0.311908
C69   C     C_R   0.855688 0.749580 0.710045 -0.075360
C70   C     C_R   0.144305 0.749599 0.289944 -0.074421
C71   C     C_R   0.355716 0.249594 0.710053 -0.072301
C72   C     C_R   0.644334 0.249586 0.289953 -0.075393
C73   C     C_R   0.034004 0.748924 0.069738 0.318164
C74   C     C_R   0.966005 0.748921 0.930248 0.318006
C75   C     C_R   0.534056 0.248920 0.069750 0.318059
C76   C     C_R   0.466058 0.248930 0.930260 0.318412
C77   C     C_3   0.656245 0.612540 0.468451 0.234108
C78   C     C_3   0.365905 0.622041 0.559584 0.216017
C79   C     C_3   0.134086 0.122064 0.440396 0.216094
C80   C     C_3   0.843783 0.112538 0.531587 0.233962
C81   C     C_3   0.614787 0.579787 0.461717 -0.533393
C82   C     C_3   0.394771 0.583882 0.551945 -0.548529
C83   C     C_3   0.105220 0.083900 0.448034 -0.549791
C84   C     C_3   0.885236 0.079784 0.538313 -0.532677
C85   C     C_3   0.675531 0.651613 0.574022 0.003664
C86   C     C_3   0.306185 0.631647 0.428737 0.066131
C87   C     C_3   0.193806 0.131628 0.571244 0.065559
C88   C     C_3   0.824427 0.151605 0.425947 0.003545
C89   C     C_R   0.686510 0.689934 0.494906 0.946207
C90   C     C_R   0.312306 0.689766 0.502743 0.953910
C91   C     C_R   0.187689 0.189768 0.497245 0.950826
C92   C     C_R   0.813485 0.189931 0.505081 0.946356
C93   C     C_3   0.585920 0.670823 0.446752 0.483406
C94   C     C_3   0.402729 0.676768 0.517575 0.527646
C95   C     C_3   0.097260 0.176771 0.482401 0.527794
C96   C     C_3   0.914067 0.170823 0.553173 0.483480
C97   C     C_3   0.651518 0.657263 0.495974 -0.059127
C98   C     C_3   0.346328 0.656364 0.501300 -0.049319
C99   C     C_3   0.153663 0.156366 0.498681 -0.047637
C100  C     C_3   0.848473 0.157260 0.504005 -0.059199
C101  C     C_3   0.592924 0.596941 0.500457 -0.064731
C102  C     C_3   0.404429 0.595048 0.498130 -0.089815
C103  C     C_3   0.095562 0.095046 0.501848 -0.089190
C104  C     C_3   0.907062 0.096936 0.499520 -0.064933
C105  C     C_3   0.644803 0.610601 0.577360 0.423634
C106  C     C_3   0.345005 0.600771 0.422723 0.428449
C107  C     C_3   0.154985 0.100748 0.577257 0.425709
C108  C     C_3   0.855156 0.110593 0.422617 0.423781
C109  C     C_3   0.554934 0.638418 0.461753 -0.128722
C110  C     C_3   0.437997 0.639030 0.518537 -0.093583
C111  C     C_3   0.061992 0.139031 0.481438 -0.093433
C112  C     C_3   0.945041 0.138417 0.538170 -0.128795
C113  C     C_R   0.061422 0.939845 0.500254 0.910564
C114  C     C_R   0.938546 0.939881 0.499762 0.911285
C115  C     C_R   0.561414 0.439833 0.500244 0.911309
C116  C     C_R   0.438439 0.439993 0.499772 0.911972
C117  C     C_R   0.438355 0.560171 0.499370 0.906465
C118  C     C_R   0.559786 0.561801 0.500366 0.953581
C119  C     C_R   0.940206 0.061797 0.499623 0.953061
C120  C     C_R   0.061643 0.060168 0.500621 0.907103
C121  C     C_R   0.817401 0.749868 0.634538 0.893328
C122  C     C_R   0.182590 0.749882 0.365457 0.886024
C123  C     C_R   0.317412 0.249875 0.634541 0.881569
C124  C     C_R   0.682603 0.249873 0.365461 0.893360
C125  C     C_R   0.606375 0.783758 0.254555 -0.241540
C126  C     C_R   0.392576 0.784168 0.745409 -0.239644
C127  C     C_R   0.107256 0.284095 0.254552 -0.233883
C128  C     C_R   0.893612 0.283723 0.745454 -0.241541
C129  C     C_R   0.566826 0.784040 0.182920 0.478470
C130  C     C_R   0.431954 0.784530 0.817053 0.479741
C131  C     C_R   0.067852 0.284435 0.182911 0.474701
C132  C     C_R   0.933131 0.283992 0.817093 0.478521
C133  C     C_R   0.564140 0.748120 0.145013 -0.137323
C134  C     C_R   0.435339 0.748259 0.854914 -0.137127
C135  C     C_R   0.064522 0.248181 0.145087 -0.136153
C136  C     C_R   0.935772 0.248075 0.854997 -0.137306
C137  C     C_R   0.597574 0.711277 0.180571 -0.195531
C138  C     C_R   0.402848 0.711056 0.819310 -0.201589
C139  C     C_R   0.097092 0.211005 0.180725 -0.201100
C140  C     C_R   0.902331 0.211244 0.819437 -0.195564
C141  C     C_R   0.633909 0.709702 0.252257 0.457059
C142  C     C_R   0.366727 0.709471 0.747618 0.463306
C143  C     C_R   0.133255 0.209440 0.252421 0.461523
C144  C     C_R   0.866031 0.209680 0.747752 0.457100
H1    H     H_    0.609617 0.812259 0.282697 0.200525
H2    H     H_    0.388726 0.812902 0.717265 0.198917
H3    H     H_    0.111052 0.312818 0.282662 0.203769
H4    H     H_    0.890402 0.312223 0.717311 0.200618
H5    H     H_    0.848677 0.894708 0.387597 0.124503
H6    H     H_    0.150454 0.893858 0.612216 0.124555
H7    H     H_    0.347064 0.396047 0.387336 0.137800
H8    H     H_    0.650513 0.393905 0.612188 0.123926
H9    H     H_    0.826389 0.892734 0.548176 0.255205
H10   H     H_    0.174604 0.893096 0.453199 0.254846
H11   H     H_    0.328061 0.392240 0.550587 0.256970
H12   H     H_    0.674495 0.393048 0.453040 0.255175
H13   H     H_    0.940885 0.917963 0.608280 0.121641
H14   H     H_    0.060163 0.918880 0.392351 0.120605
H15   H     H_    0.442490 0.416770 0.609217 0.120228
H16   H     H_    0.560010 0.418730 0.392227 0.121337
H17   H     H_    0.824525 0.935846 0.414730 0.250798
H18   H     H_    0.175479 0.935215 0.586474 0.248310
H19   H     H_    0.324462 0.436884 0.416857 0.237642
H20   H     H_    0.675454 0.435244 0.586314 0.251379
H21   H     H_    0.799069 0.785366 0.719639 0.173880
H22   H     H_    0.200643 0.785827 0.280312 0.172749
H23   H     H_    0.299320 0.285719 0.719680 0.172656
H24   H     H_    0.700912 0.285448 0.280355 0.173871
H25   H     H_    0.862623 0.784688 0.845172 0.174101
H26   H     H_    0.137103 0.785133 0.154782 0.174085
H27   H     H_    0.362888 0.285038 0.845207 0.174084
H28   H     H_    0.637383 0.284761 0.154820 0.174080
H29   H     H_    0.920880 0.713615 0.718009 0.157098
H30   H     H_    0.079384 0.713195 0.281996 0.157574
H31   H     H_    0.420702 0.213301 0.718000 0.157660
H32   H     H_    0.579189 0.213539 0.281989 0.157177
H33   H     H_    0.699467 0.598983 0.505001 0.110635
H34   H     H_    0.329043 0.609191 0.554585 0.130116
H35   H     H_    0.170948 0.109215 0.445395 0.130062
H36   H     H_    0.800563 0.098978 0.495074 0.110704
H37   H     H_    0.578948 0.574366 0.406297 0.252112
H38   H     H_    0.434715 0.575356 0.603244 0.228373
H39   H     H_    0.065277 0.075386 0.396736 0.228065
H40   H     H_    0.921095 0.074367 0.593732 0.252263
H41   H     H_    0.635501 0.547460 0.481616 0.186893
H42   H     H_    0.368635 0.554088 0.536105 0.168541
H43   H     H_    0.131360 0.054107 0.463882 0.167877
H44   H     H_    0.864533 0.047453 0.518458 0.186814
H45   H     H_    0.595258 0.683021 0.152646 0.196787
H46   H     H_    0.405754 0.682538 0.847202 0.196080
H47   H     H_    0.094226 0.182500 0.152855 0.196021
H48   H     H_    0.904615 0.182990 0.847361 0.196811
H49   H     H_    0.549025 0.654126 0.497434 0.147812
H50   H     H_    0.444406 0.645444 0.479543 0.135102
H51   H     H_    0.055581 0.145430 0.520430 0.135059
H52   H     H_    0.950921 0.154123 0.502451 0.147831
H53   H     H_    0.923563 0.806011 0.560631 0.185571
H54   H     H_    0.076106 0.806439 0.437872 0.185397
H55   H     H_    0.423053 0.305428 0.558292 0.185663
H56   H     H_    0.576140 0.306366 0.437970 0.185291
H57   H     H_    0.936658 0.855359 0.469876 0.170232
H58   H     H_    0.062368 0.855104 0.528530 0.170109
H59   H     H_    0.435022 0.355836 0.467419 0.172135
H60   H     H_    0.562466 0.355071 0.528609 0.171092
H61   H     H_    0.792602 0.845599 0.386008 0.078735
H62   H     H_    0.206603 0.844790 0.613849 0.078349
H63   H     H_    0.290906 0.346492 0.386469 0.087645
H64   H     H_    0.706662 0.344843 0.613825 0.079172
N1    N     N_R   0.514641 0.710592 0.033990 -0.165645
N2    N     N_R   0.485366 0.710632 0.965966 -0.165990
N3    N     N_R   0.014469 0.210564 0.034054 -0.166015
N4    N     N_R   0.985205 0.210532 0.966031 -0.165629
N5    N     N_R   0.484349 0.786658 0.965846 -0.135115
N6    N     N_R   0.514170 0.786623 0.034015 -0.134732
N7    N     N_R   0.985719 0.286562 0.965977 -0.135204
N8    N     N_R   0.015525 0.286588 0.034144 -0.135857
N9    N     N_R   0.022910 0.749292 0.967597 -0.091800
N10   N     N_R   0.977097 0.749026 0.032388 -0.092450
N11   N     N_R   0.522965 0.249077 0.967610 -0.092386
N12   N     N_R   0.477150 0.249244 0.032399 -0.091821
N13   N     N_R   0.056328 0.749363 0.036138 -0.176434
N14   N     N_R   0.943679 0.749094 0.963848 -0.177681
N15   N     N_R   0.556383 0.249143 0.036151 -0.177586
N16   N     N_R   0.443733 0.249319 0.963860 -0.176320
O1    O     O_R   0.822450 0.770150 0.500010 -0.605425
O2    O     O_R   0.177550 0.770150 0.499990 -0.605127
O3    O     O_R   0.322450 0.270150 0.500010 -0.616116
O4    O     O_R   0.677550 0.270150 0.499990 -0.604961
O5    O     O_R   0.017620 0.953670 0.442560 -0.637964
O6    O     O_R   0.982380 0.953670 0.557440 -0.634953
O7    O     O_R   0.517620 0.453670 0.442560 -0.635622
O8    O     O_R   0.482380 0.453670 0.557440 -0.638634
O9    O     O_R   0.482370 0.546310 0.557450 -0.636078
O10   O     O_R   0.517630 0.546310 0.442550 -0.658514
O11   O     O_R   0.982370 0.046310 0.557450 -0.658392
O12   O     O_R   0.017630 0.046310 0.442550 -0.636563
O13   O     O_R   0.424900 0.546280 0.442440 -0.623485
O14   O     O_R   0.575100 0.546280 0.557560 -0.559623
O15   O     O_R   0.924900 0.046280 0.442440 -0.559765
O16   O     O_R   0.075100 0.046280 0.557560 -0.622856
O17   O     O_R   0.770150 0.822430 0.500030 -0.610359
O18   O     O_R   0.229850 0.822430 0.499970 -0.611869
O19   O     O_R   0.270150 0.322430 0.500030 -0.584084
O20   O     O_R   0.729850 0.322430 0.499970 -0.610896
O21   O     O_R   0.725220 0.723850 0.398140 -0.590019
O22   O     O_R   0.274780 0.723850 0.601860 -0.599708
O23   O     O_R   0.225220 0.223850 0.398140 -0.601765
O24   O     O_R   0.774780 0.223850 0.601860 -0.590060
O25   O     O_R   0.672910 0.776140 0.398150 -0.636263
O26   O     O_R   0.327090 0.776140 0.601850 -0.626179
O27   O     O_R   0.172910 0.276140 0.398150 -0.617150
O28   O     O_R   0.827090 0.276140 0.601850 -0.636122
O29   O     O_R   0.729840 0.677550 0.499990 -0.604062
O30   O     O_R   0.270160 0.677550 0.500010 -0.614461
O31   O     O_R   0.229840 0.177550 0.499990 -0.614845
O32   O     O_R   0.770160 0.177550 0.500010 -0.604051
O33   O     O_R   0.677530 0.729830 0.500000 -0.625580
O34   O     O_R   0.322470 0.729830 0.500000 -0.632996
O35   O     O_R   0.177530 0.229830 0.500000 -0.635155
O36   O     O_R   0.822470 0.229830 0.500000 -0.625638
O37   O     O_R   0.827070 0.723850 0.601870 -0.623086
O38   O     O_R   0.172930 0.723850 0.398130 -0.618419
O39   O     O_R   0.327070 0.223850 0.601870 -0.619311
O40   O     O_R   0.672930 0.223850 0.398130 -0.623016
O41   O     O_R   0.774770 0.776130 0.601880 -0.619980
O42   O     O_R   0.225230 0.776130 0.398120 -0.625886
O43   O     O_R   0.274770 0.276130 0.601880 -0.628914
O44   O     O_R   0.725230 0.276130 0.398120 -0.620165
O45   O     O_R   0.075080 0.953700 0.557570 -0.639033
O46   O     O_R   0.924920 0.953700 0.442430 -0.641873
O47   O     O_R   0.575080 0.453700 0.557570 -0.641277
O48   O     O_R   0.424920 0.453700 0.442430 -0.638659
Zn1   Zn    Zn3+2 0.784920 0.715080 0.500000 0.997648
Zn2   Zn    Zn3+2 0.215080 0.715080 0.500000 0.995775
Zn3   Zn    Zn3+2 0.284920 0.215080 0.500000 0.995346
Zn4   Zn    Zn3+2 0.715080 0.215080 0.500000 0.997923
Zn5   Zn    Zn3+2 0.715070 0.784900 0.500020 0.972851
Zn6   Zn    Zn3+2 0.284930 0.784900 0.499980 0.975241
Zn7   Zn    Zn3+2 0.215070 0.284900 0.500020 0.990731
Zn8   Zn    Zn3+2 0.784930 0.284900 0.499980 0.972578
Zn9   Zn    Zn3+2 0.538360 0.500010 0.576800 0.973395
Zn10  Zn    Zn3+2 0.461640 0.500010 0.423200 0.942025
Zn11  Zn    Zn3+2 0.038360 0.000010 0.576800 0.944623
Zn12  Zn    Zn3+2 0.961640 0.000010 0.423200 0.972526
N17   N     N_3   0.897191 0.858790 0.627953 -0.495956
H65   H     H_    0.873342 0.834750 0.629166 0.194776
H66   H     H_    0.934486 0.844613 0.642463 0.178922
N18   N     N_3   0.103720 0.859753 0.372415 -0.497002
H67   H     H_    0.127441 0.835620 0.371147 0.195493
H68   H     H_    0.066091 0.845811 0.357183 0.178924
N19   N     N_3   0.398791 0.357466 0.628692 -0.498109
H69   H     H_    0.374785 0.333579 0.629904 0.191532
H70   H     H_    0.435499 0.342915 0.641944 0.179007
N20   N     N_3   0.603647 0.359632 0.372342 -0.496133
H71   H     H_    0.627415 0.335534 0.371094 0.195050
H72   H     H_    0.566064 0.345633 0.357171 0.178879
O49   O     O_3   0.870393 0.955211 0.542654 -0.774069
H73   H     H_    0.876345 0.964125 0.585385 0.335377
O50   O     O_3   0.130910 0.955553 0.459372 -0.778867
H74   H     H_    0.125506 0.964820 0.417107 0.333307
O51   O     O_3   0.372365 0.454814 0.545749 -0.780206
H75   H     H_    0.379135 0.463210 0.589155 0.334333
O52   O     O_3   0.630718 0.455480 0.459053 -0.774219
H76   H     H_    0.625230 0.464703 0.416718 0.334968
O53   O     O_3   0.762152 0.889814 0.418693 -0.727488
H77   H     H_    0.728770 0.870587 0.388936 0.341506
O54   O     O_3   0.237982 0.889248 0.582649 -0.729071
H78   H     H_    0.271051 0.869655 0.611902 0.340455
O55   O     O_3   0.262171 0.389964 0.421354 -0.730816
H79   H     H_    0.234771 0.398173 0.371898 0.337476
O56   O     O_3   0.737952 0.389286 0.582488 -0.727443
H80   H     H_    0.771057 0.369733 0.611808 0.341334
O57   O     O_3   0.997089 0.707692 0.854533 -0.751316
H81   H     H_    0.001808 0.695233 0.821360 0.333854
O58   O     O_3   0.003236 0.707208 0.145487 -0.751728
H82   H     H_    0.998611 0.694599 0.178670 0.333707
O59   O     O_3   0.496895 0.207340 0.854516 -0.751350
H83   H     H_    0.501535 0.194766 0.821335 0.333888
O60   O     O_3   0.503021 0.207594 0.145472 -0.751132
H84   H     H_    0.498311 0.195109 0.178647 0.333912
O61   O     O_3   0.531562 0.819620 0.152534 -0.737156
H85   H     H_    0.494232 0.809369 0.111460 0.344423
O62   O     O_3   0.466376 0.820540 0.847496 -0.736130
H86   H     H_    0.503921 0.810645 0.888586 0.344959
O63   O     O_3   0.033355 0.320412 0.152426 -0.738125
H87   H     H_    0.995823 0.310477 0.111359 0.345282
O64   O     O_3   0.968411 0.319556 0.847487 -0.737502
H88   H     H_    0.005727 0.309288 0.888579 0.344182
O65   O     O_3   0.645198 0.617638 0.404417 -0.733501
H89   H     H_    0.656884 0.590201 0.395186 0.347846
O66   O     O_3   0.402481 0.640524 0.625893 -0.713507
H90   H     H_    0.405934 0.619371 0.658759 0.336537
O67   O     O_3   0.097511 0.140568 0.374087 -0.713952
H91   H     H_    0.094056 0.119426 0.341221 0.336433
O68   O     O_3   0.854866 0.117639 0.595638 -0.733467
H92   H     H_    0.843202 0.090203 0.604913 0.348033
N21   N     N_3   0.737788 0.646660 0.620216 -0.450638
H93   H     H_    0.752060 0.620377 0.608323 0.169822
H94   H     H_    0.753605 0.643209 0.671495 0.183017
N22   N     N_3   0.262607 0.606777 0.425914 -0.440051
H95   H     H_    0.277506 0.578076 0.454488 0.161675
H96   H     H_    0.228967 0.598068 0.375213 0.195699
N23   N     N_3   0.237384 0.106760 0.574069 -0.439428
H97   H     H_    0.222485 0.078068 0.545493 0.162892
H98   H     H_    0.271024 0.098035 0.624770 0.197337
N24   N     N_3   0.762173 0.146647 0.379792 -0.450589
H99   H     H_    0.747925 0.120365 0.391731 0.169884
H100  H     H_    0.746333 0.143191 0.328508 0.183072
N25   N     N_3   0.682670 0.572614 0.613245 -0.420973
H101  H     H_    0.702725 0.563501 0.592695 0.153175
H102  H     H_    0.713828 0.579055 0.665730 0.177036
N26   N     N_3   0.317922 0.558130 0.391464 -0.449930
H103  H     H_    0.316889 0.537731 0.424400 0.173215
H104  H     H_    0.277247 0.562434 0.345105 0.186265
N27   N     N_3   0.182069 0.058098 0.608518 -0.447431
H105  H     H_    0.183102 0.037711 0.575584 0.178776
H106  H     H_    0.222743 0.062389 0.654878 0.188882
N28   N     N_3   0.817302 0.072603 0.386785 -0.421297
H107  H     H_    0.797266 0.063493 0.407365 0.152831
H108  H     H_    0.786130 0.079041 0.334297 0.177195
N29   N     N_3   0.575342 0.715631 0.458343 -0.465759
H109  H     H_    0.533223 0.718516 0.438632 0.189589
H110  H     H_    0.578669 0.737979 0.429105 0.205645
N30   N     N_3   0.390320 0.710508 0.466952 -0.486327
H111  H     H_    0.386153 0.697482 0.425017 0.192988
H112  H     H_    0.424937 0.731514 0.489985 0.192684
N31   N     N_3   0.109667 0.210494 0.533023 -0.486464
H113  H     H_    0.113836 0.197453 0.574959 0.193037
H114  H     H_    0.075049 0.231504 0.509988 0.192559
N32   N     N_3   0.924613 0.215631 0.541517 -0.465705
H115  H     H_    0.966722 0.218517 0.561172 0.189516
H116  H     H_    0.921318 0.237981 0.570770 0.205652
O69   O     O_3   0.562816 0.666993 0.376634 -0.698615
H117  H     H_    0.583273 0.687401 0.367935 0.334082
O70   O     O_3   0.436016 0.696236 0.584027 -0.678046
H118  H     H_    0.422280 0.726089 0.581213 0.354423
O71   O     O_3   0.063976 0.196261 0.415950 -0.678331
H119  H     H_    0.077720 0.226111 0.418763 0.353992
O72   O     O_3   0.937206 0.167001 0.623308 -0.698613
H120  H     H_    0.916755 0.187409 0.632009 0.334118
N33   N     N_3   0.497520 0.629900 0.397855 -0.399890
H121  H     H_    0.471938 0.618017 0.409598 0.188467
H122  H     H_    0.497796 0.607755 0.366014 0.257749
N34   N     N_3   0.495534 0.637670 0.584937 -0.375588
H123  H     H_    0.522271 0.619989 0.579808 0.223242
H124  H     H_    0.496289 0.623906 0.624080 0.262243
N35   N     N_3   0.004455 0.137687 0.415037 -0.375666
H125  H     H_    0.977718 0.120001 0.420166 0.223154
H126  H     H_    0.003702 0.123937 0.375896 0.262253
N36   N     N_3   0.002471 0.129904 0.602055 -0.399807
H127  H     H_    0.028038 0.118016 0.590298 0.188473
H128  H     H_    0.002221 0.107765 0.633937 0.257839
N37   N     N_3   0.664306 0.692097 0.596349 -0.396516
H129  H     H_    0.689514 0.693383 0.650196 0.193516
H130  H     H_    0.622807 0.694226 0.578533 0.226280
N38   N     N_3   0.274291 0.662937 0.370661 -0.427276
H131  H     H_    0.250626 0.645943 0.323854 0.211914
H132  H     H_    0.299352 0.684549 0.368340 0.229584
N39   N     N_3   0.225700 0.162900 0.629320 -0.426864
H133  H     H_    0.249361 0.145891 0.676128 0.212330
H134  H     H_    0.200639 0.184511 0.631635 0.229575
N40   N     N_3   0.835617 0.192092 0.403567 -0.396622
H135  H     H_    0.810368 0.193391 0.349716 0.193482
H136  H     H_    0.877101 0.194216 0.421328 0.226237
O73   O     O_3   0.623450 0.621885 0.612718 -0.793819
H137  H     H_    0.655889 0.627065 0.661919 0.337061
O74   O     O_3   0.354156 0.621432 0.379148 -0.822027
H138  H     H_    0.361088 0.599297 0.355965 0.369729
O75   O     O_3   0.145831 0.121394 0.620827 -0.821688
H139  H     H_    0.138951 0.099251 0.644064 0.370005
O76   O     O_3   0.876474 0.121871 0.387210 -0.793685
H140  H     H_    0.844021 0.127111 0.338038 0.337062
O77   O     O_3   0.661390 0.670932 0.282930 -0.731618
H141  H     H_    0.663940 0.666936 0.324547 0.367950
O78   O     O_3   0.340238 0.670422 0.716887 -0.744787
H142  H     H_    0.337260 0.667061 0.674876 0.350061
O79   O     O_3   0.159836 0.170415 0.283195 -0.744540
H143  H     H_    0.162822 0.167029 0.325211 0.349653
O80   O     O_3   0.838544 0.170920 0.717081 -0.731552
H144  H     H_    0.836039 0.166918 0.675498 0.367908
N41   N     N_3   0.881998 0.791515 0.457142 -0.428153
H145  H     H_    0.865735 0.806760 0.410340 0.177068
H146  H     H_    0.918342 0.774838 0.472504 0.204238
N42   N     N_3   0.116733 0.791208 0.540925 -0.428305
H147  H     H_    0.132799 0.806114 0.587880 0.176960
H148  H     H_    0.080106 0.774664 0.524836 0.204157
N43   N     N_3   0.379923 0.292126 0.454109 -0.429125
H149  H     H_    0.363200 0.307924 0.407547 0.176791
H150  H     H_    0.415796 0.275319 0.468150 0.205608
N44   N     N_3   0.616844 0.291206 0.541063 -0.427686
H151  H     H_    0.632933 0.306141 0.588007 0.177206
H152  H     H_    0.580243 0.274651 0.525043 0.204586
N45   N     N_3   0.992897 0.857576 0.577092 -0.469150
H153  H     H_    0.018930 0.878490 0.574822 0.199362
H154  H     H_    0.995603 0.865989 0.619912 0.191720
N46   N     N_3   0.006809 0.858071 0.421343 -0.468576
H155  H     H_    0.980602 0.878602 0.423842 0.199551
H156  H     H_    0.004482 0.867209 0.379026 0.191650
N47   N     N_3   0.492346 0.356963 0.574640 -0.470540
H157  H     H_    0.518107 0.378461 0.572769 0.197728
H158  H     H_    0.495640 0.364272 0.618197 0.190363
N48   N     N_3   0.506831 0.357990 0.421422 -0.468236
H159  H     H_    0.480676 0.378667 0.423800 0.200236
H160  H     H_    0.504506 0.366932 0.379039 0.191571

loop_
_geom_bond_atom_site_label_1
_geom_bond_atom_site_label_2
_ccdc_geom_bond_type
N43   H149  S    
C133  C137  A    
C55   C59   A    
O7    Zn10  S    
N19   H69   S    
C34   C42   S    
C136  C140  A    
C47   O23   A    
N21   H93   S    
C68   H32   S    
C7    C127  A    
O67   H91   S    
O42   Zn6   S    
C135  C139  A    
C33   C114  S    
C107  O75   S    
C79   C99   S    
N38   H132  S    
C88   C108  S    
C95   C99   S    
C42   O50   S    
C124  O40   A    
C22   C38   S    
C85   N37   S    
O3    Zn3   S    
C46   O26   A    
C96   O72   S    
N28   H107  S    
C132  O64   S    
O16   Zn11  S    
C87   C99   S    
C23   H63   S    
C117  O13   A    
C49   C69   A    
C72   C124  S    
C130  C134  A    
C51   C71   A    
C25   C29   S    
O38   Zn2   S    
C27   C31   S    
O62   H86   S    
O22   Zn2   S    
C64   O60   S    
N22   H95   S    
C25   C41   S    
C122  O38   A    
N36   H128  S    
C9    N5    A    
O51   H75   S    
C21   C29   S    
C124  O44   A    
C76   N16   A    
C23   C31   S    
C48   O28   A    
N7    N8    A    
C24   C32   S    
C52   C72   A    
C78   C82   S    
N27   H105  S    
C142  O78   S    
C16   C20   S    
N26   H103  S    
C19   H59   S    
C83   H39   S    
O19   Zn7   S    
C24   O56   S    
C3    C31   S    
C94   N30   S    
C4    C32   S    
C129  C133  A    
C119  O11   A    
N33   H121  S    
C79   H35   S    
C36   C44   S    
C12   N8    A    
O23   Zn3   S    
N35   H125  S    
C90   O34   A    
N46   H155  S    
C2    O2    A    
C13   C29   S    
N39   H134  S    
O44   Zn8   S    
C93   N29   S    
C79   O67   S    
O1    Zn1   S    
N34   H124  S    
O70   H118  S    
C57   C61   A    
C86   N38   S    
N37   H129  S    
C59   C63   A    
C44   O52   S    
C73   N13   A    
C60   C64   A    
C50   C70   A    
N17   H66   S    
C123  O43   A    
C19   C35   S    
O73   H137  S    
C66   C70   A    
C91   O31   A    
O4    Zn4   S    
C49   C53   A    
O25   Zn5   S    
C51   C55   A    
N44   H152  S    
C85   C97   S    
O68   H92   S    
C61   C65   A    
C87   C107  S    
C48   O24   A    
O61   H85   S    
C19   N47   S    
C94   C98   S    
O32   Zn4   S    
C103  C107  S    
O46   Zn12  S    
O75   H139  S    
C11   C136  S    
C21   H61   S    
N18   H68   S    
O9    Zn9   S    
O33   Zn5   S    
N25   H101  S    
C94   O70   S    
C13   N41   S    
O80   H144  S    
C28   N20   S    
C96   N32   S    
C7    C143  A    
N32   H115  S    
C15   N43   S    
C81   C101  S    
N43   H150  S    
O40   Zn4   S    
C83   C103  S    
C105  N25   S    
C101  C118  S    
C64   C68   A    
C71   C123  S    
N19   H70   S    
C88   N24   S    
C40   H20   S    
C43   H15   S    
N47   H158  S    
C144  O80   S    
C24   H64   S    
C115  O47   A    
C76   N11   A    
N39   H133  S    
C39   H7    S    
N30   H111  S    
C40   H8    S    
C106  O74   S    
C45   O25   A    
C139  C143  A    
C8    C128  A    
N30   H112  S    
C77   C97   S    
O8    Zn9   S    
C35   C43   S    
O35   Zn7   S    
C47   O27   A    
C16   H56   S    
C104  C119  S    
C90   O30   A    
C95   N31   S    
C116  O8    A    
C86   C106  S    
C43   O51   S    
C127  C131  A    
C62   C66   A    
C84   H40   S    
C46   O22   A    
C104  C112  S    
O10   Zn10  S    
C12   C135  S    
C77   H33   S    
C85   N21   S    
C129  O61   S    
C50   H22   S    
C125  C129  A    
C11   N4    A    
C51   H23   S    
C70   C122  S    
N24   H100  S    
C117  O9    A    
C9    N2    A    
C132  C136  A    
N1    N2    A    
C82   C102  S    
C66   H30   S    
N28   H108  S    
O13   Zn10  S    
C2    O18   A    
C102  C117  S    
N42   H147  S    
N27   H106  S    
C26   C30   S    
O39   Zn3   S    
N23   H98   S    
C84   C104  S    
C93   C97   S    
C122  O42   A    
N40   H135  S    
C22   C30   S    
O45   Zn11  S    
C12   N3    A    
N35   H126  S    
C15   C31   S    
C16   C32   S    
O15   Zn12  S    
C82   H38   S    
C13   C17   S    
C2    C30   S    
C125  H1    S    
C119  O15   A    
C96   C100  S    
C73   N10   A    
C25   N17   S    
O27   Zn7   S    
C91   O35   A    
C5    C125  A    
C91   C99   S    
N48   H159  S    
C59   C76   S    
C4    O20   A    
C11   N7    A    
C58   C62   A    
O77   H141  S    
C54   H26   S    
C103  C120  S    
O12   Zn12  S    
C10   C133  S    
C80   C84   S    
O72   H120  S    
N5    N6    A    
C34   C113  S    
C15   C19   S    
N29   H110  S    
C26   C42   S    
C50   C54   A    
C82   H42   S    
O26   Zn6   S    
C141  O77   S    
N22   H96   S    
C139  H47   S    
N20   H71   S    
O47   Zn9   S    
C126  C130  A    
C101  C109  S    
C78   O66   S    
C103  C111  S    
O65   H89   S    
C17   N45   S    
O30   Zn2   S    
C87   N23   S    
C112  H52   S    
N21   H94   S    
C41   O49   S    
C67   H31   S    
C62   O58   S    
N45   H154  S    
N26   H104  S    
O34   Zn6   S    
C6    C142  A    
C105  O73   S    
C53   H25   S    
C118  O14   A    
C61   O57   S    
O58   H82   S    
N47   H157  S    
C56   H28   S    
N9    N13   A    
C42   H14   S    
C17   C33   S    
C114  O46   A    
C55   H27   S    
C131  O63   S    
N46   H156  S    
O29   Zn1   S    
C27   H11   S    
C25   H9    S    
O54   H78   S    
N38   H131  S    
C6    C126  A    
C138  C142  A    
C45   O21   A    
C53   C57   A    
C10   N6    A    
C63   O59   S    
C5    C45   S    
O6    Zn11  S    
C94   C110  S    
C33   C37   S    
C56   C60   A    
O31   Zn3   S    
C22   O54   S    
C7    C47   S    
C35   C39   S    
O66   H90   S    
C8    C48   S    
C26   N18   S    
N17   H65   S    
N37   H130  S    
N3    N4    A    
C28   C32   S    
O48   Zn10  S    
C35   C116  S    
N31   H114  S    
C113  O5    A    
C20   H60   S    
C88   C100  S    
C13   H53   S    
C120  O16   A    
C41   H13   S    
C92   O32   A    
C44   H16   S    
C102  C110  S    
C121  O41   A    
C3    O3    A    
C104  C108  S    
C37   H17   S    
C130  O62   S    
C1    O1    A    
C137  C141  A    
C88   N40   S    
C78   H34   S    
C128  H4    S    
C140  C144  A    
C37   H5    S    
N32   H116  S    
N36   H127  S    
C74   N14   A    
C60   C75   S    
C33   C41   S    
O28   Zn8   S    
C18   N46   S    
O64   H88   S    
O14   Zn9   S    
C108  N28   S    
C79   C83   S    
O41   Zn5   S    
O57   H81   S    
C93   O69   S    
C75   N12   A    
C65   C69   A    
O43   Zn7   S    
C96   C112  S    
C86   N22   S    
C109  N33   S    
C67   C71   A    
C4    O4    A    
N41   H145  S    
O63   H87   S    
C86   C98   S    
O11   Zn11  S    
N11   N15   A    
O60   H84   S    
C20   C36   S    
C27   C43   S    
C21   C37   S    
O53   H77   S    
C110  N34   S    
O76   H140  S    
N33   H122  S    
O2    Zn2   S    
C116  O48   A    
C52   H24   S    
C77   O65   S    
C107  N27   S    
N23   H97   S    
O49   H73   S    
C14   C18   S    
N31   H113  S    
C81   H37   S    
O50   H74   S    
O21   Zn1   S    
N34   H123  S    
O79   H143  S    
C126  H2    S    
O55   H79   S    
C49   H21   S    
C14   H54   S    
C22   H62   S    
C80   H36   S    
C111  N35   S    
O24   Zn4   S    
C131  C135  A    
O36   Zn8   S    
O37   Zn1   S    
C14   N42   S    
O20   Zn8   S    
C80   O68   S    
C106  N26   S    
C16   N44   S    
N44   H151  S    
C121  O37   A    
O52   H76   S    
C123  O39   A    
C78   C98   S    
C28   C44   S    
O74   H138  S    
C23   O55   S    
C77   C81   S    
C93   C109  S    
C115  O7    A    
C68   C72   A    
C9    C134  S    
N42   H148  S    
C134  C138  A    
C75   N15   A    
N25   H102  S    
C89   O29   A    
C80   C100  S    
C83   H43   S    
C138  H46   S    
C108  O76   S    
C14   C30   S    
C85   C105  S    
C128  C132  A    
C81   H41   S    
C92   O36   A    
N10   N14   A    
N40   H136  S    
C101  C105  S    
C63   C67   A    
C20   N48   S    
O17   Zn5   S    
C36   C40   S    
C89   O33   A    
C18   H58   S    
C112  N36   S    
C113  O45   A    
O5    Zn12  S    
C143  O79   S    
C89   C97   S    
C57   C74   S    
C17   H57   S    
C110  H50   S    
C15   H55   S    
C118  O10   A    
C10   N1    A    
C5    C141  A    
O78   H142  S    
C69   C121  S    
C21   O53   S    
C8    C144  A    
C3    O19   A    
C109  H49   S    
C18   C34   S    
O71   H119  S    
C1    O17   A    
C137  H45   S    
C140  H48   S    
C26   H10   S    
C1    C29   S    
N48   H160  S    
N12   N16   A    
C92   C100  S    
C54   C58   A    
C6    C46   S    
C65   H29   S    
C34   C38   S    
C114  O6    A    
N29   H109  S    
C27   N19   S    
N18   H67   S    
C95   O71   S    
C95   C111  S    
O69   H117  S    
C120  O12   A    
N20   H72   S    
N24   H99   S    
C23   C39   S    
C74   N9    A    
C24   C40   S    
C38   H6    S    
C102  C106  S    
O59   H83   S    
C84   H44   S    
C38   H18   S    
C58   C73   S    
N41   H146  S    
N45   H153  S    
C111  H51   S    
C28   H12   S    
O18   Zn6   S    
C87   N39   S    
C36   C115  S    
C39   H19   S    
C90   C98   S    
C52   C56   A    
O56   H80   S    
C127  H3    S    
