data_mof_unit_12818.cif
_audit_creation_date              2013-03-05T15:52:13-0500
_audit_creation_method            fapswitch 2.2
_symmetry_space_group_name_H-M    P1
_symmetry_Int_Tables_number       1
_space_group_crystal_system       triclinic
_cell_length_a                    8.357336
_cell_length_b                    17.49892
_cell_length_c                    27.24066
_cell_angle_alpha                 96.268287
_cell_angle_beta                  91.929993
_cell_angle_gamma                 84.085209
_cell_volume                      3937.88043814

loop_
_atom_site_label
_atom_site_type_symbol
_atom_site_description
_atom_site_fract_x
_atom_site_fract_y
_atom_site_fract_z
_atom_type_partial_charge
P1    P     P_3+3 0.078810 0.562990 0.610370 0.513124
O1    O     O_2   0.910880 0.540430 0.617910 -0.351926
O2    O     O_3   0.142880 0.540370 0.557740 -0.396298
O3    O     O_3   0.675650 0.402220 0.588450 -0.405030
O4    O     O_2   0.839517 0.436092 0.672654 -0.388738
O5    O     O_3   0.051354 0.663753 0.621861 -0.521849
O6    O     O_3   0.659265 0.324727 0.674761 -0.510320
H1    H     H_    0.788670 0.270853 0.614499 0.168542
C1    C     C_3   0.681532 0.188178 0.651791 -0.890486
H2    H     H_    0.697433 0.143245 0.619759 0.221696
H3    H     H_    0.783841 0.179557 0.678332 0.295804
P2    P     P_3+3 0.645380 0.325580 0.462150 0.465212
P3    P     P_3+3 0.120300 0.261861 0.561727 0.468432
O7    O     O_2   0.823810 0.314230 0.476690 -0.363615
O8    O     O_3   0.086630 0.363340 0.564170 -0.353874
O9    O     O_2   0.978474 0.227407 0.532273 -0.394507
O10   O     O_3   0.643224 0.301949 0.398114 -0.561027
O11   O     O_3   0.100156 0.235622 0.621287 -0.536451
C2    C     C_3   0.166980 0.289821 0.655983 0.265727
H4    H     H_    0.122438 0.350100 0.649899 0.146098
H5    H     H_    0.300519 0.282799 0.654161 0.094965
C3    C     C_3   0.114231 0.278775 0.707661 -0.654179
H6    H     H_    0.150191 0.326867 0.734298 0.200871
H7    H     H_    0.980859 0.281298 0.707817 0.228617
C4    C     C_3   0.201331 0.299780 0.413087 0.420682
H8    H     H_    0.325036 0.316657 0.419112 0.097090
H9    H     H_    0.129778 0.314080 0.447102 0.114091
C5    C     C_3   0.210356 0.212918 0.398894 -0.972674
H10   H     H_    0.280416 0.197006 0.364718 0.271298
H11   H     H_    0.270119 0.181651 0.428833 0.221942
H12   H     H_    0.087164 0.194835 0.392389 0.265206
Ba1   Ba    Ba6+2 0.856110 0.463800 0.523550 1.578460
C6    C     C_3   0.989690 0.696623 0.579929 0.431959
H13   H     H_    0.873105 0.674753 0.568800 0.089396
H14   H     H_    0.074807 0.683658 0.549051 0.125499
C7    C     C_3   0.965271 0.783753 0.593160 -0.937454
H15   H     H_    0.873858 0.798248 0.622269 0.277216
H16   H     H_    0.924124 0.813345 0.560538 0.219329
H17   H     H_    0.080562 0.805435 0.607008 0.262220
C8    C     C_3   0.702587 0.359703 0.374735 0.414505
H18   H     H_    0.814675 0.377442 0.393173 0.109042
H19   H     H_    0.610096 0.410002 0.374905 0.093564
C9    C     C_3   0.739329 0.327032 0.321697 -0.944291
H20   H     H_    0.823865 0.273677 0.321501 0.280132
H21   H     H_    0.795978 0.368931 0.302025 0.223216
H22   H     H_    0.626474 0.312940 0.301611 0.258173
P4    P     P_3+3 0.110900 0.436950 0.389630 0.472381
O12   O     O_2   0.278810 0.459550 0.382060 -0.364751
O13   O     O_3   0.046820 0.459570 0.442260 -0.409355
O14   O     O_3   0.514050 0.597710 0.411540 -0.391071
O15   O     O_3   0.127712 0.336724 0.374263 -0.554257
P5    P     P_3+3 0.072368 0.738790 0.436352 0.441953
O16   O     O_3   0.627090 0.591350 0.524530 -0.388552
O17   O     O_3   0.103080 0.636600 0.435820 -0.375379
O18   O     O_2   0.201100 0.773168 0.471770 -0.400576
O19   O     O_3   0.108133 0.775575 0.380205 -0.573806
Ba2   Ba    Ba6+2 0.333710 0.536130 0.476450 1.558097
P6    P     P_3+3 0.670555 0.415703 0.654294 0.494400
C10   C     C_3   0.675531 0.267824 0.634106 0.416352
H23   H     H_    0.570816 0.274640 0.608201 0.087091
H24   H     H_    0.567671 0.181923 0.670009 0.284086
O20   O     O_3   0.562610 0.408580 0.475460 -0.435614
C11   C     C_3   0.493225 0.662218 0.628328 0.434594
H25   H     H_    0.376313 0.645943 0.612190 0.132840
H26   H     H_    0.583280 0.610939 0.628503 0.118866
C12   C     C_3   0.464073 0.696490 0.681393 -0.964637
H27   H     H_    0.372465 0.747293 0.682102 0.279636
H28   H     H_    0.419477 0.652981 0.702852 0.231937
H29   H     H_    0.577528 0.715035 0.698946 0.267239
P7    P     P_3+3 0.548138 0.688304 0.538930 0.456996
O21   O     O_2   0.365880 0.685750 0.523280 -0.350644
O22   O     O_3   0.553483 0.717546 0.602556 -0.565987
C13   C     C_3   0.083693 0.723347 0.337957 0.329005
H30   H     H_    0.143565 0.665173 0.343160 0.089842
C14   C     C_3   0.158739 0.750629 0.292447 -0.399704
H31   H     H_    0.115891 0.718436 0.257834 0.214774
H32   H     H_    0.289582 0.735927 0.293219 0.229952
P8    P     P_3+3 0.526903 0.588783 0.347428 0.470731
C15   C     C_3   0.504239 0.736302 0.373143 0.507779
H33   H     H_    0.596110 0.724215 0.401957 0.118758
O23   O     O_2   0.365148 0.562123 0.326408 -0.427438
O24   O     O_3   0.526807 0.682769 0.330688 -0.546519
H34   H     H_    0.385806 0.733066 0.388775 0.151950
H35   H     H_    0.461769 0.860399 0.390618 0.248412
C16   C     C_3   0.517704 0.818400 0.361032 -1.036136
H36   H     H_    0.457386 0.828823 0.325223 0.276796
H37   H     H_    0.645954 0.828736 0.359052 0.268937
C17   C     C_R   0.027053 0.445453 0.181162 0.526464
O25   O     O_2   0.051913 0.386523 0.201697 -0.587813
N1    N     N_R   0.955482 0.512376 0.206865 -0.165015
C18   C     C_R   0.925998 0.578809 0.183133 0.512327
C19   C     C_2   0.752237 0.530730 0.271563 -0.147359
C20   C     C_3   0.701880 0.520773 0.323507 0.171094
C21   C     C_1   0.985096 0.487983 0.344120 0.269460
C22   C     C_2   0.029555 0.489000 0.297593 -0.208829
C23   C     C_2   0.908135 0.512218 0.258255 0.111279
C24   C     C_R   0.039450 0.511410 0.106597 -0.063144
C25   C     C_R   0.069167 0.444114 0.130928 -0.060832
C26   C     C_R   0.139797 0.376604 0.104457 -0.084475
C27   C     C_R   0.968162 0.579256 0.133144 -0.058457
C28   C     C_2   0.843898 0.520995 0.359371 -0.362913
H38   H     H_    0.153334 0.471508 0.287428 0.184213
H39   H     H_    0.165695 0.323972 0.122081 0.168018
C29   C     C_2   0.347730 0.484379 0.649153 -0.416832
C30   C     C_R   0.182984 0.439989 0.977647 0.040251
C31   C     C_R   0.097211 0.579585 0.981612 0.041209
C32   C     C_R   0.159182 0.509382 0.954365 0.085703
C33   C     C_R   0.240601 0.371377 0.948358 -0.197372
C34   C     C_R   0.275928 0.371157 0.898648 -0.073430
C35   C     C_R   0.255903 0.439235 0.875442 -0.062281
C36   C     C_R   0.197893 0.508581 0.903261 -0.059572
C37   C     C_R   0.179683 0.577211 0.880047 -0.050860
C38   C     C_R   0.219102 0.575622 0.829602 0.556235
N2    N     N_R   0.270162 0.506583 0.802002 -0.160646
C39   C     C_R   0.291975 0.439073 0.824876 0.553731
C40   C     C_2   0.457879 0.483489 0.733807 -0.117324
C41   C     C_3   0.499230 0.488971 0.680832 0.095019
C42   C     C_1   0.207669 0.522323 0.662479 0.105836
C43   C     C_2   0.174602 0.528864 0.711281 -0.209634
C44   C     C_2   0.305141 0.505157 0.749401 0.074692
O26   O     O_2   0.342854 0.378596 0.801236 -0.580389
C45   C     C_R   0.147818 0.441211 0.028954 0.041463
C46   C     C_R   0.080356 0.510808 0.055689 0.085090
C47   C     C_R   0.052947 0.579782 0.032064 0.042662
C48   C     C_R   0.178076 0.375030 0.054851 -0.199962
H40   H     H_    0.553514 0.468718 0.760119 0.170789
H41   H     H_    0.319182 0.316693 0.878264 0.174632
H42   H     H_    0.257942 0.315954 0.962464 0.129356
H43   H     H_    0.233417 0.320630 0.038051 0.128345
O27   O     O_2   0.863454 0.637936 0.205555 -0.579702
C49   C     C_R   0.939290 0.646321 0.109108 -0.085504
H44   H     H_    0.660470 0.545270 0.244024 0.147632
H45   H     H_    0.883782 0.699420 0.128340 0.170948
C50   C     C_R   0.082496 0.647526 0.957182 -0.200629
C51   C     C_R   0.123014 0.646243 0.907803 -0.078431
O28   O     O_2   0.208671 0.635896 0.810358 -0.591323
C52   C     C_R   0.980517 0.646738 0.059958 -0.202284
H46   H     H_    0.041821 0.703542 0.975344 0.128232
H47   H     H_    0.108874 0.700193 0.891278 0.169693
H48   H     H_    0.951097 0.700786 0.044730 0.128108
H49   H     H_    0.827393 0.544004 0.397737 0.175917
H50   H     H_    0.482654 0.856313 0.530098 0.158132
H51   H     H_    0.309171 0.104342 0.547344 0.163500
C53   C     C_R   0.397255 0.274379 0.511039 -0.425766
C54   C     C_R   0.549338 0.253076 0.492383 0.302061
C55   C     C_R   0.612955 0.175138 0.490333 -0.256564
C56   C     C_R   0.525383 0.120349 0.509170 0.060158
C57   C     C_R   0.376609 0.145246 0.531860 -0.300810
C58   C     C_R   0.313221 0.223068 0.532975 0.272010
C59   C     C_R   0.589905 0.835154 0.509553 -0.240750
C60   C     C_R   0.641139 0.755747 0.504539 0.267146
C61   C     C_R   0.875996 0.779085 0.461238 0.314603
C62   C     C_R   0.825789 0.858923 0.465857 -0.285677
C63   C     C_R   0.681299 0.887383 0.489932 0.064279
C64   C     C_1   0.629785 0.969939 0.496818 0.002710
C65   C     C_1   0.583689 0.038521 0.502810 0.007588
C66   C     C_R   0.781127 0.728244 0.479420 -0.495638
H52   H     H_    0.900405 0.898473 0.451969 0.159757
H53   H     H_    0.726724 0.156859 0.472639 0.164717
H54   H     H_    0.340419 0.331328 0.506299 0.180774
H55   H     H_    0.821477 0.667158 0.476592 0.166090
C67   C     C_2   0.186293 0.203311 0.723938 1.182350
O29   O     O_2   0.330902 0.192968 0.732611 -0.626477
O30   O     O_R   0.087035 0.145560 0.729825 -0.786548
H56   H     H_    0.149155 0.097419 0.741061 0.325201
C68   C     C_2   0.908359 0.716508 0.327933 0.959179
O31   O     O_2   0.837464 0.681225 0.354824 -0.683570
O32   O     O_R   0.828494 0.747691 0.287537 -0.769574
H57   H     H_    0.714365 0.734061 0.282058 0.381091
C69   C     C_3   0.125505 0.837744 0.288782 -0.740750
H58   H     H_    0.174912 0.871329 0.321732 0.264018
H59   H     H_    0.184407 0.852483 0.255603 0.229821
H60   H     H_    0.994905 0.855737 0.285418 0.280086
C70   C     C_2   0.010353 0.556047 0.729011 1.159956
O33   O     O_2   0.951005 0.522440 0.759891 -0.663097
O34   O     O_R   0.925261 0.621258 0.711917 -0.745989
H61   H     H_    0.815349 0.633684 0.727105 0.307661
C71   C     C_2   0.377267 0.459886 0.598894 1.112231
O35   O     O_2   0.369410 0.392978 0.583525 -0.694501
O36   O     O_R   0.446753 0.510467 0.572677 -0.793772
H62   H     H_    0.505981 0.482831 0.544059 0.402610

loop_
_geom_bond_atom_site_label_1
_geom_bond_atom_site_label_2
_geom_bond_distance
_ccdc_geom_bond_type
C12   H28   1.109340 S    
C11   H26   1.110480 S    
C8    H18   1.104690 S    
C39   O26   1.221604 D    
C66   H55   1.082475 S    
O12   Ba2   2.812904 S    
C13   H30   1.108366 S    
C26   H39   1.083539 S    
C22   C23   1.509953 S    
C14   H31   1.112411 S    
C24   C25   1.409534 A    
C27   C49   1.401060 A    
C46   C47   1.423416 A    
P4    O13   1.543700 S    
C18   O27   1.220182 D    
C16   H36   1.107117 S    
C40   C41   1.510547 S    
C4    C5    1.521694 S    
C51   H47   1.083563 S    
C24   C46   1.438096 A    
C30   C32   1.423470 A    
O4    P6    1.545540 D    
C1    H24   1.108555 S    
C60   C66   1.390882 A    
O30   H56   1.014080 S    
C19   H44   1.085551 S    
C67   O29   1.222366 D    
H1    C10   1.110254 S    
C54   C55   1.407758 A    
C3    C67   1.499688 S    
C12   H29   1.109943 S    
C31   C32   1.422649 A    
P8    C20   1.874985 S    
C19   C23   1.361273 D    
C6    C7    1.522187 S    
O13   Ba2   2.941101 S    
C33   C34   1.395138 A    
Ba2   O21   2.819075 S    
O1    Ba1   2.812356 S    
P1    O1    1.522830 D    
C62   H52   1.083037 S    
C42   C43   1.357107 D    
C70   O33   1.223004 D    
O32   H57   1.009182 S    
C28   H49   1.086183 S    
C34   H41   1.083636 S    
C8    C9    1.523777 S    
C29   C71   1.411328 S    
C56   C57   1.413889 A    
C21   C28   1.318682 D    
C38   O28   1.222123 D    
P2    O10   1.748168 S    
P7    O21   1.571623 D    
C18   C27   1.419063 A    
C53   H54   1.077873 S    
C1    H2    1.110725 S    
O6    P6    1.755695 S    
C29   C42   1.326128 D    
P5    O18   1.544987 D    
P1    C42   1.908093 S    
C8    H19   1.109674 S    
C12   H27   1.110760 S    
C11   C12   1.520824 S    
C10   H23   1.110546 S    
C40   H40   1.085675 S    
P2    Ba1   3.397842 S    
C68   O32   1.400274 S    
C13   C14   1.549682 S    
C21   C22   1.335199 D    
Ba1   Ba2   4.573919 S    
O16   P7    1.763256 S    
O14   P8    1.742304 S    
O6    C10   1.406375 S    
C37   C38   1.420518 A    
C52   H48   1.076053 S    
P5    O17   1.778704 S    
N2    C39   1.387722 Am   
C67   O30   1.397222 S    
C16   H37   1.109240 S    
H51   C57   1.083037 S    
C30   C33   1.416858 A    
C55   C56   1.412600 A    
P1    O5    1.749463 S    
C71   O35   1.207210 D    
C47   C52   1.416671 A    
Ba2   O20   2.784310 S    
C2    C3    1.527163 S    
H35   C16   1.110603 S    
C26   C48   1.395804 A    
C20   C28   1.511692 S    
C35   C36   1.408740 A    
O16   Ba2   2.942181 S    
C53   C54   1.384619 A    
P4    O15   1.750378 S    
C55   H53   1.083134 S    
C4    H8    1.106299 S    
C11   H25   1.109112 S    
C7    H17   1.110962 S    
P6    C41   1.924965 S    
C33   H42   1.076060 S    
C40   C44   1.362061 D    
P1    O2    1.543672 S    
O10   C8    1.392201 S    
P2    C54   1.847920 S    
C9    H20   1.110895 S    
C4    O15   1.392291 S    
C53   C58   1.389905 A    
C49   C52   1.394663 A    
C43   C70   1.484484 S    
P4    Ba2   3.397944 S    
P2    O20   1.553796 S    
P8    O24   1.753932 S    
P4    O12   1.523088 D    
C17   C25   1.421532 A    
P5    C61   1.839081 S    
C14   C69   1.534624 S    
C6    H13   1.104228 S    
C11   O22   1.398768 S    
C56   C65   1.457917 S    
C14   H32   1.097286 S    
C63   C64   1.457950 S    
O3    Ba1   2.737123 S    
P3    O11   1.751738 S    
O34   H61   1.013422 S    
P2    O7    1.528515 D    
C1    H3    1.110032 S    
C59   C63   1.407995 A    
C68   O31   1.213345 D    
C3    H7    1.111085 S    
C37   C51   1.400703 A    
O3    P6    1.784737 S    
O2    Ba2   2.762271 S    
Ba1   O16   2.784930 S    
C15   C16   1.524692 S    
C24   C27   1.408260 A    
O36   H62   0.990418 S    
C38   N2    1.387052 Am   
C61   C66   1.390484 A    
C5    H10   1.110678 S    
O19   C13   1.412253 S    
C36   C37   1.409615 A    
C2    H5    1.112306 S    
C3    H6    1.108683 S    
O14   Ba2   2.736696 S    
C32   C36   1.438035 A    
C5    H12   1.110915 S    
P7    C60   1.831415 S    
C17   N1    1.387171 Am   
C13   C68   1.496035 S    
C49   H45   1.083636 S    
O8    Ba1   2.758522 S    
C50   H46   1.076070 S    
C15   O24   1.411490 S    
C71   O36   1.379360 S    
C43   C44   1.537877 S    
C22   H38   1.084428 S    
N1    C23   1.467867 S    
C50   C51   1.395336 A    
C4    H9    1.111141 S    
C29   C41   1.512101 S    
O5    C6    1.394238 S    
H50   C59   1.083448 S    
C2    H4    1.109843 S    
P3    O8    1.763366 S    
C45   C46   1.422665 A    
P3    C58   1.848563 S    
C5    H11   1.107983 S    
C9    H21   1.106026 S    
C34   C35   1.401080 A    
C15   H34   1.099736 S    
P8    O23   1.546776 D    
N1    C18   1.387234 Am   
C69   H59   1.110299 S    
C45   C48   1.417347 A    
C7    H16   1.104210 S    
C19   C20   1.522735 S    
C6    H14   1.109219 S    
P4    C21   1.843986 S    
C30   C45   1.435276 A    
C57   C58   1.406935 A    
P1    Ba1   3.397499 S    
O2    Ba1   2.940335 S    
C9    H22   1.110614 S    
C70   O34   1.396847 S    
Ba1   O13   2.761689 S    
Ba1   O20   2.943139 S    
C15   H33   1.101140 S    
C48   H43   1.076067 S    
C31   C50   1.417263 A    
O7    Ba1   2.818773 S    
C17   O25   1.222066 D    
C7    H15   1.110725 S    
C25   C26   1.401039 A    
C69   H58   1.109692 S    
P3    O9    1.545865 D    
C31   C47   1.434793 A    
C64   C65   1.217166 T    
O11   C2    1.408029 S    
C59   C60   1.404512 A    
P7    O22   1.753194 S    
C61   C62   1.409996 A    
C1    C10   1.519102 S    
C62   C63   1.412216 A    
C35   C39   1.419597 A    
C69   H60   1.107953 S    
N2    C44   1.469077 S    
P5    O19   1.768730 S    
O17   Ba2   2.759320 S    
