data_mof_unit_7896.cif
_audit_creation_date              2012-12-10T17:47:44-0500
_audit_creation_method            fapswitch 2.2
_symmetry_space_group_name_H-M    P1
_symmetry_Int_Tables_number       1
_space_group_crystal_system       triclinic
_cell_length_a                    10.859154
_cell_length_b                    10.774523
_cell_length_c                    9.970911
_cell_angle_alpha                 93.454601
_cell_angle_beta                  91.931212
_cell_angle_gamma                 98.377391
_cell_volume                      1151.00700989

loop_
_atom_site_label
_atom_site_type_symbol
_atom_type_description
_atom_site_fract_x
_atom_site_fract_y
_atom_site_fract_z
_atom_type_partial_charge
C1    C     C_R   0.514006 0.263334 0.497566 0.866946
C2    C     C_R   0.567206 0.083174 0.616196 0.112893
C3    C     C_R   0.538535 0.135123 0.494689 -0.125019
C4    C     C_R   0.258924 0.506919 0.500859 0.819649
C5    C     C_R   0.507953 0.058592 0.377680 -0.248372
C6    C     C_R   0.491209 0.930359 0.384244 -0.208764
C7    C     C_R   0.498500 0.876475 0.508901 -0.127742
C8    C     C_R   0.337810 0.287445 0.101931 0.158481
C9    C     C_R   0.279528 0.191048 0.003266 0.234648
C10   C     C_R   0.288651 0.209122 0.869390 -0.277561
C11   C     C_R   0.352077 0.316416 0.829022 -0.202321
C12   C     C_3   0.880624 0.513244 0.511897 0.033500
C13   C     C_R   0.426607 0.405106 0.915452 0.068469
C14   C     C_R   0.423517 0.399559 0.060146 0.091011
C15   C     C_R   0.569538 0.590402 0.082282 -0.128958
C16   C     C_R   0.496939 0.740761 0.503693 0.845212
C17   C     C_R   0.569866 0.591486 0.940849 0.241184
C18   C     C_R   0.742682 0.504137 0.503215 0.840250
C19   C     C_3   0.074588 0.484199 0.654886 -0.007441
C20   C     C_3   0.931583 0.487016 0.656652 -0.005637
C21   C     C_3   0.089840 0.648058 0.473045 -0.018307
C22   C     C_3   0.054480 0.412833 0.406208 -0.505621
C23   C     C_3   0.944748 0.642287 0.464563 0.049358
C24   C     C_3   0.123561 0.515728 0.508544 0.045659
C25   C     C_3   0.150331 0.544992 0.788249 -0.315356
C26   C     C_3   0.210188 0.683115 0.791859 -0.889648
C27   C     C_3   0.151335 0.701012 0.345580 -0.418576
C28   C     C_3   0.134631 0.837747 0.328392 -0.927191
C29   C     C_3   0.283946 0.258178 0.235246 -0.852023
C30   C     C_3   0.192392 0.070125 0.030735 -0.409738
C31   C     C_3   0.256674 0.955026 0.005674 -0.923064
C32   C     C_3   0.649476 0.701578 0.890131 -0.914783
C33   C     C_3   0.891143 0.568037 0.778799 -0.323003
C34   C     C_3   0.913475 0.407993 0.411628 -0.519805
C35   C     C_3   0.844902 0.486333 0.893629 -0.915980
C36   C     C_3   0.903233 0.758780 0.538393 -0.988435
C37   C     C_R   0.627658 0.157190 0.728052 -0.153592
C38   C     C_R   0.618406 0.114278 0.856278 -0.116853
C39   C     C_R   0.552129 0.996585 0.872917 -0.147441
C40   C     C_R   0.508858 0.915868 0.760373 -0.215933
C41   C     C_R   0.525537 0.955416 0.628874 0.104924
H1    H     H_    0.875650 0.417948 0.308226 0.209249
H2    H     H_    0.083842 0.382878 0.661834 0.094428
H3    H     H_    0.237762 0.142565 0.793799 0.159223
H4    H     H_    0.333897 0.329993 0.726581 0.227214
H5    H     H_    0.887815 0.388544 0.670841 0.136830
H6    H     H_    0.127932 0.716430 0.555853 0.180154
H7    H     H_    0.082976 0.431206 0.302347 0.206833
H8    H     H_    0.078951 0.319091 0.428250 0.172651
H9    H     H_    0.870699 0.313895 0.441555 0.176249
H10   H     H_    0.275167 0.700614 0.710116 0.272366
H11   H     H_    0.140866 0.748495 0.786044 0.233279
H12   H     H_    0.913815 0.645510 0.357257 0.177787
H13   H     H_    0.265721 0.706214 0.887902 0.245992
H14   H     H_    0.096765 0.529535 0.879473 0.195196
H15   H     H_    0.224099 0.490690 0.814334 0.219154
H16   H     H_    0.040418 0.843205 0.284515 0.262313
H17   H     H_    0.150378 0.894624 0.425777 0.265337
H18   H     H_    0.204536 0.879575 0.259600 0.267418
H19   H     H_    0.253155 0.701514 0.354284 0.239222
H20   H     H_    0.114676 0.642464 0.253390 0.216957
H21   H     H_    0.181769 0.258046 0.227464 0.188129
H22   H     H_    0.303871 0.165093 0.263974 0.216876
H23   H     H_    0.493710 0.097383 0.281704 0.174963
H24   H     H_    0.311340 0.314277 0.321391 0.303873
H25   H     H_    0.338793 0.960015 0.076224 0.256086
H26   H     H_    0.190398 0.869235 0.022036 0.257489
H27   H     H_    0.286357 0.948433 0.900480 0.278076
H28   H     H_    0.153914 0.066170 0.131776 0.211503
H29   H     H_    0.107840 0.060118 0.962377 0.195056
H30   H     H_    0.650660 0.699387 0.780407 0.291646
H31   H     H_    0.616085 0.786669 0.930742 0.222173
H32   H     H_    0.745940 0.709644 0.932569 0.218541
H33   H     H_    0.750066 0.435547 0.867395 0.281330
H34   H     H_    0.677502 0.250287 0.717127 0.148767
H35   H     H_    0.907071 0.415564 0.912699 0.237463
H36   H     H_    0.842662 0.545145 0.988477 0.247007
H37   H     H_    0.962106 0.644908 0.819947 0.203981
H38   H     H_    0.821712 0.624762 0.748461 0.234636
H39   H     H_    0.947646 0.778219 0.640549 0.241294
H40   H     H_    0.929893 0.843645 0.482501 0.258535
H41   H     H_    0.800540 0.747877 0.545520 0.240732
H42   H     H_    0.657923 0.174196 0.942783 0.129585
H43   H     H_    0.537262 0.966723 0.973480 0.129643
H44   H     H_    0.457914 0.826009 0.779300 0.181917
H45   H     H_    0.469476 0.873592 0.290700 0.169486
H46   H     H_    0.626164 0.664406 0.144819 0.152640
N1    N     N_R   0.498810 0.498800 0.142780 -0.120898
N2    N     N_R   0.498760 0.498720 0.857170 -0.116818
O1    O     O_R   0.500000 0.316780 0.614690 -0.636633
O2    O     O_R   0.499990 0.316750 0.385360 -0.620963
O3    O     O_R   0.314800 0.499990 0.614670 -0.641215
O4    O     O_R   0.314790 0.499970 0.385330 -0.637717
O5    O     O_R   0.500010 0.683250 0.614640 -0.640324
O6    O     O_R   0.500000 0.683220 0.385310 -0.621300
O7    O     O_R   0.685210 0.500030 0.614670 -0.628772
O8    O     O_R   0.685200 0.500010 0.385330 -0.618555
Zn1   Zn    Zn3+2 0.500010 0.500020 0.653130 0.902755
Zn2   Zn    Zn3+2 0.499990 0.499980 0.346870 0.926137

loop_
_geom_bond_atom_site_label_1
_geom_bond_atom_site_label_2
_ccdc_geom_bond_type
C31   H25   S    
C22   H7    S    
C29   H22   S    
C35   H33   S    
C1    O1    A    
C38   H42   S    
C18   O7    A    
C19   C20   S    
C34   H1    S    
C25   H15   S    
O3    Zn1   S    
C32   H31   S    
C28   H16   S    
C31   H26   S    
C12   C23   S    
C8    C29   S    
C39   H43   S    
C27   H19   S    
C5    C6    A    
C4    C24   S    
O6    Zn2   S    
C33   H37   S    
O5    Zn1   S    
C2    C41   A    
C27   H20   S    
C30   H29   S    
C36   H41   S    
C8    C9    A    
O7    Zn1   S    
C18   O8    A    
C9    C10   A    
O4    Zn2   S    
C4    O3    A    
C21   C27   S    
C1    O2    A    
C13   C14   A    
C26   H13   S    
O8    Zn2   S    
C19   H2    S    
C23   H12   S    
C32   H30   S    
C31   H27   S    
C22   C34   S    
C35   H35   S    
C34   H9    S    
C10   H3    S    
C17   N2    A    
C36   H39   S    
C39   C40   A    
C33   H38   S    
C25   C26   S    
C35   H36   S    
C5    H23   S    
C1    C3    S    
C38   C39   A    
C40   H44   S    
C37   C38   A    
C26   H11   S    
C36   H40   S    
C12   C20   S    
C9    C30   S    
C22   H8    S    
C29   H24   S    
C20   C33   S    
C40   C41   A    
C21   C23   S    
C22   C24   S    
C11   H4    S    
C12   C34   S    
C32   H32   S    
C30   H28   S    
C15   H46   S    
C28   H18   S    
C15   C17   A    
C29   H21   S    
C7    C16   S    
C16   O6    A    
C8    C14   A    
C13   N2    A    
C25   H14   S    
C3    C5    A    
C6    C7    A    
C28   H17   S    
C16   O5    A    
C6    H45   S    
N2    Zn1   S    
C2    C3    A    
C14   N1    A    
C26   H10   S    
C11   C13   A    
C2    C37   A    
C30   C31   S    
C33   C35   S    
C19   C24   S    
C7    C41   A    
C37   H34   S    
C19   C25   S    
N1    Zn2   S    
C10   C11   A    
C4    O4    A    
C23   C36   S    
C21   C24   S    
C12   C18   S    
C27   C28   S    
C17   C32   S    
O2    Zn2   S    
O1    Zn1   S    
C20   H5    S    
C15   N1    A    
C21   H6    S    
