data_mof_unit_43153.cif
_audit_creation_date              2013-03-05T16:15:17-0500
_audit_creation_method            fapswitch 2.2
_symmetry_space_group_name_H-M    P1
_symmetry_Int_Tables_number       1
_space_group_crystal_system       triclinic
_cell_length_a                    27.806629
_cell_length_b                    10.631189
_cell_length_c                    9.403875
_cell_angle_alpha                 89.500717
_cell_angle_beta                  90.361927
_cell_angle_gamma                 90.179155
_cell_volume                      2779.77615856

loop_
_atom_site_label
_atom_site_type_symbol
_atom_site_description
_atom_site_fract_x
_atom_site_fract_y
_atom_site_fract_z
_atom_type_partial_charge
O1    O     O_R   0.500020 0.316850 0.620870 -0.587647
O2    O     O_R   0.499980 0.683150 0.379130 -0.588891
O3    O     O_R   0.500000 0.316860 0.379090 -0.570859
O4    O     O_R   0.500000 0.683140 0.620910 -0.570944
C1    C     C_R   0.499779 0.259600 0.500622 0.866982
C2    C     C_R   0.500219 0.740400 0.499379 0.865258
O5    O     O_R   0.430270 0.500020 0.620880 -0.580627
O6    O     O_R   0.569730 0.499980 0.379120 -0.578805
O7    O     O_R   0.430250 0.500030 0.379090 -0.592987
O8    O     O_R   0.569750 0.499970 0.620910 -0.593281
C3    C     C_R   0.407494 0.500365 0.499545 0.853211
C4    C     C_R   0.592504 0.499569 0.500469 0.855448
Cu1   Cu    Cu3+1 0.500010 0.499990 0.643150 0.977985
Cu2   Cu    Cu3+1 0.499990 0.500010 0.356850 0.976490
C5    C     C_R   0.178124 0.390399 0.497042 0.616817
C6    C     C_R   0.821882 0.609260 0.516675 0.613775
O9    O     O_2   0.203104 0.281755 0.496155 -0.486234
O10   O     O_2   0.796910 0.717165 0.529785 -0.488648
N1    N     N_R   0.202096 0.502809 0.496943 -0.458195
N2    N     N_R   0.797901 0.497464 0.504220 -0.457952
C7    C     C_R   0.178034 0.614575 0.501505 0.616544
C8    C     C_R   0.821954 0.386750 0.487341 0.614836
C9    C     C_R   0.278896 0.499129 0.365502 0.430561
C10   C     C_R   0.720973 0.488326 0.634846 0.477790
C11   C     C_R   0.329204 0.497828 0.368360 -0.281587
C12   C     C_R   0.670668 0.489669 0.631790 -0.250543
C13   C     C_R   0.328872 0.506570 0.625969 -0.139177
C14   C     C_R   0.671243 0.505518 0.374385 -0.148237
C15   C     C_R   0.278807 0.507416 0.624114 -0.127327
C16   C     C_R   0.721312 0.504997 0.376576 -0.144124
C17   C     C_R   0.253619 0.503403 0.494888 0.229246
C18   C     C_R   0.746375 0.496683 0.505817 0.223608
C19   C     C_R   0.101959 0.501592 0.500347 -0.040337
C20   C     C_R   0.898040 0.499054 0.501209 -0.041096
C21   C     C_R   0.127658 0.387680 0.497779 -0.027247
C22   C     C_R   0.872349 0.612102 0.516034 -0.028223
C23   C     C_R   0.102605 0.273779 0.496584 -0.115167
C24   C     C_R   0.897415 0.725168 0.530824 -0.117200
C25   C     C_R   0.127562 0.616092 0.502836 -0.026511
C26   C     C_R   0.872428 0.385356 0.486324 -0.029055
C27   C     C_R   0.354523 0.501504 0.498103 -0.083132
C28   C     C_R   0.645471 0.498325 0.502046 -0.097558
H1    H     H_    0.347425 0.509771 0.727504 0.182287
H2    H     H_    0.652785 0.512142 0.272838 0.180995
H3    H     H_    0.259393 0.510851 0.723486 0.195070
H4    H     H_    0.740854 0.511439 0.277556 0.164000
H5    H     H_    0.121538 0.184843 0.496517 0.192531
H6    H     H_    0.878496 0.813208 0.544073 0.194024
C29   C     C_R   0.974489 0.384328 0.489312 0.045650
C30   C     C_R   0.025505 0.616783 0.507038 0.045311
C31   C     C_R   0.974401 0.615803 0.512316 0.044838
C32   C     C_R   0.025604 0.384588 0.494710 0.045586
C33   C     C_R   0.949194 0.499735 0.500946 0.076039
C34   C     C_R   0.050805 0.500989 0.500709 0.075963
C35   C     C_R   0.947508 0.272280 0.471520 -0.190498
C36   C     C_R   0.052475 0.730036 0.507064 -0.190018
C37   C     C_R   0.897576 0.273054 0.470395 -0.117669
C38   C     C_R   0.102402 0.729377 0.505350 -0.116550
O11   O     O_2   0.797051 0.278432 0.472440 -0.482318
O12   O     O_2   0.202928 0.723738 0.503946 -0.485852
C39   C     C_R   0.052675 0.271953 0.495380 -0.190182
C40   C     C_R   0.947339 0.727249 0.529397 -0.191918
H7    H     H_    0.651116 0.483683 0.730761 0.203672
H8    H     H_    0.348656 0.493585 0.269234 0.184622
H9    H     H_    0.878714 0.184568 0.456911 0.192370
H10   H     H_    0.121247 0.818749 0.505585 0.192062
H11   H     H_    0.963746 0.181772 0.455668 0.138220
H12   H     H_    0.036244 0.821783 0.506049 0.136803
H13   H     H_    0.036514 0.179855 0.497390 0.136924
H14   H     H_    0.963494 0.818312 0.544359 0.138636
C41   C     C_3   0.500372 0.039285 0.636933 -0.218856
C42   C     C_3   0.499624 0.960715 0.363072 -0.221048
C43   C     C_3   0.540140 0.957810 0.567534 -0.262826
C44   C     C_3   0.459856 0.042190 0.432472 -0.263605
H15   H     H_    0.573269 0.921432 0.619745 0.185669
H16   H     H_    0.426727 0.078571 0.380261 0.185498
H17   H     H_    0.499828 0.072983 0.748331 0.184309
H18   H     H_    0.500169 0.927018 0.251674 0.183736
C45   C     C_3   0.500507 0.876887 0.497908 -0.152240
C46   C     C_3   0.499489 0.123113 0.502096 -0.151810
C47   C     C_3   0.461747 0.957240 0.565385 0.401625
C48   C     C_3   0.538249 0.042759 0.434622 0.399778
C49   C     C_3   0.511412 0.609763 0.049612 -0.033188
C50   C     C_3   0.488589 0.390237 0.950387 -0.029008
C51   C     C_3   0.469418 0.580461 0.947904 -0.024535
C52   C     C_3   0.530582 0.419539 0.052095 -0.016904
H19   H     H_    0.443724 0.648089 0.898891 0.163234
H20   H     H_    0.556272 0.351900 0.101106 0.168648
H21   H     H_    0.521129 0.702177 0.095912 0.137861
H22   H     H_    0.478872 0.297823 0.904086 0.138316
N3    N     N_3   0.500040 0.499970 0.858290 -0.171793
N4    N     N_3   0.499960 0.500030 0.141710 -0.172660
C53   C     C_3   0.542039 0.529264 0.950125 -0.034431
C54   C     C_3   0.457962 0.470736 0.049871 -0.040220
H23   H     H_    0.577439 0.554225 0.903670 0.142142
H24   H     H_    0.422563 0.445748 0.096297 0.138970
N5    N     N_R   0.419485 0.905868 0.636086 0.128147
O13   O     O_R   0.412093 0.928211 0.769894 -0.355747
O14   O     O_R   0.389201 0.836302 0.565751 -0.350331
N6    N     N_R   0.580513 0.094127 0.363930 0.128678
O15   O     O_R   0.587912 0.071763 0.230130 -0.350816
O16   O     O_R   0.610797 0.163691 0.434272 -0.343293
S1    S     S_3+6 0.751255 0.476237 0.800337 0.033340
O17   O     O_2   0.785418 0.367034 0.797492 -0.258397
O18   O     O_2   0.779192 0.595121 0.826428 -0.255853
O19   O     O_3   0.711647 0.454358 0.932846 -0.545597
H25   H     H_    0.731633 0.439740 0.018951 0.377859
S2    S     S_3+6 0.248439 0.494210 0.199839 0.044682
O20   O     O_2   0.222472 0.370640 0.187252 -0.211036
O21   O     O_2   0.212242 0.598693 0.190366 -0.267568
O22   O     O_3   0.287339 0.508244 0.064229 -0.531267
H26   H     H_    0.297796 0.597414 0.065166 0.352982

loop_
_geom_bond_atom_site_label_1
_geom_bond_atom_site_label_2
_geom_bond_distance
_ccdc_geom_bond_type
C13   C15   1.392180 A    
O22   H26   0.990801 S    
C30   C34   1.421647 A    
C12   H7    1.082135 S    
N1    C17   1.432918 S    
N5    O13   1.300310 A    
C51   N3    1.481092 S    
O5    C3    1.301483 A    
C49   N4    1.481888 S    
C19   C25   1.408556 A    
C44   H16   1.110169 S    
O1    C1    1.288821 A    
N1    C7    1.366584 A    
C10   C12   1.399047 A    
C42   C45   1.543584 S    
C32   C39   1.416338 A    
C52   H20   1.110447 S    
O19   H25   0.990612 S    
C49   C53   1.536733 S    
S2    O20   1.502287 D    
C40   H14   1.075963 S    
O4    Cu1   1.956490 S    
C4    C28   1.472920 S    
C38   H10   1.083645 S    
S2    O21   1.502998 D    
C42   H18   1.110297 S    
C50   N3    1.481872 S    
C23   H5    1.083639 S    
C24   H6    1.083642 S    
O6    C4    1.301565 A    
C53   H23   1.109967 S    
C44   C46   1.542114 S    
Cu1   Cu2   2.692323 S    
Cu1   N3    2.023144 S    
C43   H15   1.110166 S    
O2    C2    1.288829 A    
C31   C40   1.416419 A    
C50   H22   1.110021 S    
C5    C21   1.403548 A    
C41   C46   1.543586 S    
N5    O14   1.300454 A    
C32   C34   1.421582 A    
C51   H19   1.110455 S    
C49   H21   1.110022 S    
C7    O12   1.349730 S    
C42   C44   1.556915 S    
C11   C27   1.405557 A    
C8    O11   1.349747 S    
C45   C47   1.522443 S    
C29   C35   1.416378 A    
C25   C38   1.395162 A    
C14   H2    1.083133 S    
C30   C36   1.416488 A    
C15   H3    1.083102 S    
C31   C33   1.421708 A    
C11   H8    1.082021 S    
C9    C17   1.410143 A    
C5    N1    1.366564 A    
O7    Cu2   1.951793 S    
C10   C18   1.409835 A    
C52   C53   1.537459 S    
N3    C53   1.482002 S    
C51   C54   1.537443 S    
C13   C27   1.403474 A    
C35   H11   1.076095 S    
C7    C25   1.403747 A    
C6    N2    1.366560 A    
C29   C32   1.421911 A    
C8    C26   1.403711 A    
N4    C54   1.482012 S    
C30   C31   1.422229 A    
C43   C45   1.542109 S    
S1    O18   1.502623 D    
C50   C54   1.536706 S    
C1    C46   1.450962 S    
C54   H24   1.109895 S    
O7    C3    1.301023 A    
Cu2   N4    2.023144 S    
O3    Cu2   1.956489 S    
O8    C4    1.300888 A    
C46   C48   1.522439 S    
C49   C51   1.537584 S    
N2    C8    1.366546 A    
C35   C37   1.388480 A    
C20   C26   1.408601 A    
O4    C2    1.290227 A    
O1    Cu1   1.960053 S    
C44   C47   1.536372 S    
C22   C24   1.395157 A    
C43   C48   1.536361 S    
C41   H17   1.110298 S    
C12   C28   1.405575 A    
C41   C43   1.556906 S    
N6    O16   1.300460 A    
N2    C18   1.432932 S    
C39   H13   1.076103 S    
C19   C34   1.422448 A    
C5    O9    1.349766 S    
O6    Cu2   1.949195 S    
C26   C37   1.395171 A    
C21   C23   1.395204 A    
C48   N6    1.456319 S    
C16   H4    1.082644 S    
C37   H9    1.083634 S    
O3    C1    1.290233 A    
O8    Cu1   1.951793 S    
C23   C39   1.388428 A    
S2    O22   1.682762 S    
C10   S1    1.768654 S    
C14   C16   1.392308 A    
C15   C17   1.399678 A    
C36   H12   1.075969 S    
C6    C22   1.403587 A    
C16   C18   1.399425 A    
C2    C45   1.450963 S    
C47   N5    1.456328 S    
C29   C33   1.421505 A    
C9    S2    1.769596 S    
C14   C28   1.403403 A    
N6    O15   1.300314 A    
C19   C21   1.408530 A    
C36   C38   1.388515 A    
C3    C27   1.473006 S    
S1    O19   1.682430 S    
C20   C22   1.408450 A    
C9    C11   1.399096 A    
O2    Cu2   1.960052 S    
C13   H1    1.083154 S    
O5    Cu1   1.949195 S    
C20   C33   1.422450 A    
C6    O10   1.349777 S    
S1    O17   1.502902 D    
C50   C52   1.537568 S    
C52   N4    1.481100 S    
C24   C40   1.388459 A    
C42   C48   1.536961 S    
C41   C47   1.536963 S    
