data_mof_unit_58618.cif
_audit_creation_date              2012-12-11T14:38:15-0500
_audit_creation_method            fapswitch 2.2
_symmetry_space_group_name_H-M    P1
_symmetry_Int_Tables_number       1
_space_group_crystal_system       triclinic
_cell_length_a                    19.555399
_cell_length_b                    11.160673
_cell_length_c                    19.611153
_cell_angle_alpha                 90.046486
_cell_angle_beta                  96.86321
_cell_angle_gamma                 90.067995
_cell_volume                      4249.48646404

loop_
_atom_site_label
_atom_site_type_symbol
_atom_type_description
_atom_site_fract_x
_atom_site_fract_y
_atom_site_fract_z
_atom_type_partial_charge
C1    C     C_R   0.724887 0.954485 0.360561 0.573128
C2    C     C_R   0.275090 0.954412 0.639471 0.575593
C3    C     C_R   0.224887 0.454485 0.360561 0.573128
C4    C     C_R   0.775090 0.454412 0.639471 0.575593
C5    C     C_3   0.679407 0.450251 0.456347 -0.193529
C6    C     C_3   0.320628 0.450453 0.543697 -0.193114
C7    C     C_3   0.179407 0.950251 0.456347 -0.193529
C8    C     C_3   0.820629 0.950453 0.543697 -0.193114
C9    C     C_3   0.823687 0.480797 0.531616 -0.259231
C10   C     C_3   0.176339 0.480627 0.468523 -0.259158
C11   C     C_3   0.323687 0.980797 0.531616 -0.259231
C12   C     C_3   0.676339 0.980627 0.468523 -0.259158
C13   C     C_3   0.758651 0.294209 0.553273 -0.260333
C14   C     C_3   0.241217 0.294289 0.446568 -0.260509
C15   C     C_3   0.258651 0.794209 0.553273 -0.260333
C16   C     C_3   0.741216 0.794288 0.446568 -0.260509
C17   C     C_3   0.761311 0.427975 0.566496 0.082443
C18   C     C_3   0.238668 0.428065 0.433528 0.082567
C19   C     C_3   0.261311 0.927975 0.566496 0.082443
C20   C     C_3   0.738668 0.928065 0.433528 0.082567
C21   C     C_3   0.746102 0.394850 0.434628 0.024222
C22   C     C_3   0.253925 0.394805 0.565372 0.025529
C23   C     C_3   0.246102 0.894850 0.434628 0.024222
C24   C     C_3   0.753925 0.894805 0.565372 0.025529
C25   C     C_3   0.807248 0.479838 0.453122 -0.278422
C26   C     C_3   0.192810 0.479600 0.547013 -0.278335
C27   C     C_3   0.307248 0.979838 0.453122 -0.278422
C28   C     C_3   0.692810 0.979600 0.547013 -0.278334
C29   C     C_3   0.761414 0.278158 0.476382 -0.240161
C30   C     C_3   0.238573 0.278110 0.523463 -0.239418
C31   C     C_3   0.261414 0.778158 0.476382 -0.240161
C32   C     C_3   0.738573 0.778110 0.523463 -0.239418
C33   C     C_3   0.438019 0.294276 0.970904 -0.310327
C34   C     C_3   0.464411 0.294512 0.047248 -0.299471
C35   C     C_3   0.938026 0.794284 0.970902 -0.310319
C36   C     C_3   0.964415 0.794517 0.047247 -0.299467
C37   C     C_3   0.421382 0.074027 0.972575 -0.207837
C38   C     C_3   0.562611 0.153947 0.028090 -0.195070
C39   C     C_3   0.921378 0.574035 0.972575 -0.207840
C40   C     C_3   0.062611 0.653937 0.028090 -0.195067
C41   C     C_3   0.538975 0.163389 0.950377 0.164952
C42   C     C_3   0.446313 0.070723 0.051401 0.139959
C43   C     C_3   0.038976 0.663380 0.950377 0.164953
C44   C     C_3   0.946309 0.570728 0.051401 0.139958
C45   C     C_R   0.536221 0.180211 0.338537 0.531202
C46   C     C_R   0.463799 0.180212 0.661478 0.549747
C47   C     C_R   0.036221 0.680211 0.338537 0.531202
C48   C     C_R   0.963799 0.680212 0.661478 0.549746
C49   C     C_3   0.458861 0.175841 0.937093 0.026869
C50   C     C_3   0.500131 0.172972 0.069042 0.051958
C51   C     C_3   0.958862 0.675841 0.937094 0.026872
C52   C     C_3   0.000132 0.672972 0.069042 0.051960
C53   C     C_1   0.757131 0.412370 0.900277 -0.010656
C54   C     C_1   0.238768 0.425970 0.096099 -0.017941
C55   C     C_1   0.257130 0.912367 0.900277 -0.010658
C56   C     C_1   0.738769 0.925968 0.096100 -0.017939
C57   C     C_1   0.734758 0.362375 0.026187 -0.067937
C58   C     C_1   0.253997 0.405449 0.966089 -0.064370
C59   C     C_1   0.234756 0.862372 0.026187 -0.067935
C60   C     C_1   0.753999 0.905444 0.966090 -0.064377
C61   C     C_1   0.744838 0.386908 0.957362 -0.051489
C62   C     C_1   0.247887 0.414482 0.036821 -0.066451
C63   C     C_1   0.244837 0.886905 0.957361 -0.051488
C64   C     C_1   0.747889 0.914478 0.036822 -0.066451
C65   C     C_1   0.728627 0.341536 0.085541 -0.032079
C66   C     C_1   0.257590 0.391710 0.905717 -0.014109
C67   C     C_1   0.228626 0.841533 0.085541 -0.032078
C68   C     C_1   0.757591 0.891706 0.905718 -0.014115
C69   C     C_R   0.738903 0.361210 0.361766 0.553870
C70   C     C_R   0.261126 0.361168 0.638216 0.548848
C71   C     C_R   0.238903 0.861210 0.361766 0.553871
C72   C     C_R   0.761126 0.861168 0.638216 0.548848
C73   C     C_R   0.722327 0.953877 0.163477 0.539698
C74   C     C_R   0.277277 0.952565 0.836006 0.540166
C75   C     C_R   0.222327 0.453878 0.163477 0.539697
C76   C     C_R   0.777278 0.452567 0.836007 0.540168
C77   C     C_R   0.529045 0.178984 0.142271 0.542979
C78   C     C_R   0.437196 0.182529 0.862499 0.583862
C79   C     C_R   0.029046 0.678984 0.142272 0.542981
C80   C     C_R   0.937196 0.682529 0.862500 0.583852
C81   C     C_R   0.722663 0.312091 0.155932 0.557397
C82   C     C_R   0.264117 0.358311 0.836361 0.541778
C83   C     C_R   0.222662 0.812090 0.155932 0.557398
C84   C     C_R   0.764118 0.858309 0.836361 0.541777
C85   C     C_1   0.485273 0.171815 0.594395 -0.026756
C86   C     C_1   0.514761 0.171870 0.405624 -0.024522
C87   C     C_1   0.985273 0.671815 0.594395 -0.026756
C88   C     C_1   0.014761 0.671870 0.405624 -0.024522
C89   C     C_1   0.504418 0.167929 0.464877 -0.045574
C90   C     C_1   0.495625 0.167896 0.535141 -0.046501
C91   C     C_1   0.004418 0.667929 0.464877 -0.045574
C92   C     C_1   0.995625 0.667896 0.535141 -0.046501
C93   C     C_3   0.690913 0.480087 0.533313 0.150464
C94   C     C_3   0.309128 0.480271 0.466752 0.150683
C95   C     C_3   0.190913 0.980087 0.533313 0.150464
C96   C     C_3   0.809128 0.980271 0.466752 0.150683
Cr1   Cr    Cr6+3 0.765780 0.160710 0.267420 0.996914
Cr2   Cr    Cr6+3 0.234220 0.160710 0.732580 1.000486
Cr3   Cr    Cr6+3 0.265780 0.660710 0.267420 0.996916
Cr4   Cr    Cr6+3 0.734220 0.660710 0.732580 1.000487
Cr5   Cr    Cr6+3 0.612200 0.009560 0.248850 1.021591
Cr6   Cr    Cr6+3 0.387800 0.009560 0.751150 1.001519
Cr7   Cr    Cr6+3 0.112200 0.509560 0.248850 1.021588
Cr8   Cr    Cr6+3 0.887800 0.509560 0.751150 1.001524
Cr9   Cr    Cr6+3 0.616030 0.323720 0.248510 0.995921
Cr10  Cr    Cr6+3 0.383970 0.323720 0.751490 0.999856
Cr11  Cr    Cr6+3 0.116030 0.823720 0.248510 0.995920
Cr12  Cr    Cr6+3 0.883970 0.823720 0.751490 0.999855
H1    H     H_    0.696615 0.575100 0.538017 0.103839
H2    H     H_    0.303572 0.575292 0.462176 0.103772
H3    H     H_    0.196615 0.075100 0.538017 0.103839
H4    H     H_    0.803572 0.075292 0.462176 0.103773
H5    H     H_    0.815384 0.253608 0.470065 0.125087
H6    H     H_    0.184627 0.253265 0.529818 0.124911
H7    H     H_    0.315383 0.753608 0.470065 0.125087
H8    H     H_    0.684627 0.753266 0.529818 0.124911
H9    H     H_    0.869686 0.422836 0.545170 0.144077
H10   H     H_    0.130317 0.422513 0.454908 0.144008
H11   H     H_    0.369686 0.922836 0.545170 0.144077
H12   H     H_    0.630317 0.922513 0.454908 0.144008
H13   H     H_    0.853523 0.450077 0.429695 0.138067
H14   H     H_    0.146533 0.449633 0.570411 0.138256
H15   H     H_    0.353523 0.950077 0.429695 0.138068
H16   H     H_    0.646533 0.949633 0.570411 0.138256
H17   H     H_    0.381218 0.303586 0.964246 0.133560
H18   H     H_    0.501162 0.370712 0.056756 0.158769
H19   H     H_    0.881225 0.803608 0.964242 0.133565
H20   H     H_    0.001169 0.870715 0.056757 0.158769
H21   H     H_    0.459146 0.374666 0.947111 0.151328
H22   H     H_    0.420888 0.311350 0.077774 0.129889
H23   H     H_    0.959163 0.874669 0.947110 0.151324
H24   H     H_    0.920891 0.811358 0.077772 0.129888
H25   H     H_    0.364929 0.091289 0.965357 0.066864
H26   H     H_    0.602099 0.224306 0.042446 0.079363
H27   H     H_    0.864926 0.591307 0.965358 0.066864
H28   H     H_    0.102103 0.724292 0.042447 0.079359
H29   H     H_    0.401663 0.090539 0.080296 0.094361
H30   H     H_    0.559629 0.251191 0.935030 0.156523
H31   H     H_    0.901660 0.590548 0.080298 0.094358
H32   H     H_    0.059635 0.751179 0.935030 0.156518
H33   H     H_    0.588389 0.068071 0.043285 0.158209
H34   H     H_    0.427014 0.986090 0.947680 0.153646
H35   H     H_    0.088386 0.568057 0.043286 0.158214
H36   H     H_    0.927006 0.486095 0.947681 0.153641
H37   H     H_    0.636091 0.385309 0.446084 0.167527
H38   H     H_    0.363926 0.385670 0.553896 0.166885
H39   H     H_    0.136091 0.885309 0.446084 0.167527
H40   H     H_    0.863925 0.885670 0.553896 0.166885
H41   H     H_    0.664958 0.532683 0.426180 0.079207
H42   H     H_    0.335106 0.532922 0.573956 0.078972
H43   H     H_    0.164958 0.032683 0.426180 0.079207
H44   H     H_    0.835106 0.032922 0.573956 0.078972
H45   H     H_    0.341828 0.069374 0.550876 0.111464
H46   H     H_    0.658175 0.069140 0.449414 0.112339
H47   H     H_    0.841828 0.569374 0.550876 0.111464
H48   H     H_    0.158175 0.569140 0.449414 0.112339
H49   H     H_    0.293812 0.069558 0.433090 0.112642
H50   H     H_    0.706290 0.069325 0.567199 0.113021
H51   H     H_    0.793812 0.569558 0.433090 0.112641
H52   H     H_    0.206290 0.569325 0.567199 0.113021
H53   H     H_    0.802413 0.246134 0.582811 0.111911
H54   H     H_    0.197360 0.246183 0.417031 0.111831
H55   H     H_    0.302412 0.746134 0.582811 0.111911
H56   H     H_    0.697360 0.746183 0.417031 0.111832
H57   H     H_    0.709937 0.258167 0.568580 0.165555
H58   H     H_    0.289838 0.258333 0.431083 0.164621
H59   H     H_    0.209937 0.758167 0.568580 0.165555
H60   H     H_    0.789838 0.758333 0.431083 0.164621
H61   H     H_    0.724529 0.209831 0.456310 0.114592
H62   H     H_    0.275539 0.209984 0.543351 0.114519
H63   H     H_    0.224529 0.709831 0.456310 0.114592
H64   H     H_    0.775539 0.709984 0.543351 0.114519
O1    O     O_R   0.783100 0.287550 0.345460 -0.537416
O2    O     O_R   0.216900 0.287550 0.654540 -0.539686
O3    O     O_R   0.283100 0.787550 0.345460 -0.537416
O4    O     O_R   0.716900 0.787550 0.654540 -0.539686
O5    O     O_R   0.554710 0.081900 0.170950 -0.457165
O6    O     O_R   0.445290 0.081900 0.829050 -0.465088
O7    O     O_R   0.054710 0.581900 0.170950 -0.457169
O8    O     O_R   0.945290 0.581900 0.829050 -0.465077
O9    O     O_R   0.545650 0.284910 0.163740 -0.542695
O10   O     O_R   0.454350 0.284910 0.836260 -0.519337
O11   O     O_R   0.045650 0.784910 0.163740 -0.542696
O12   O     O_R   0.954350 0.784910 0.836260 -0.519338
O13   O     O_R   0.677950 0.374280 0.185410 -0.486048
O14   O     O_R   0.322050 0.374280 0.814590 -0.510454
O15   O     O_R   0.177950 0.874280 0.185410 -0.486049
O16   O     O_R   0.822050 0.874280 0.814590 -0.510452
O17   O     O_3   0.664670 0.164660 0.254930 -0.279689
O18   O     O_3   0.335330 0.164660 0.745070 -0.282262
O19   O     O_3   0.164670 0.664660 0.254930 -0.279689
O20   O     O_3   0.835330 0.664660 0.745070 -0.282263
O21   O     O_R   0.760020 0.037400 0.337700 -0.495107
O22   O     O_R   0.239980 0.037400 0.662300 -0.492746
O23   O     O_R   0.260020 0.537400 0.337700 -0.495107
O24   O     O_R   0.739980 0.537400 0.662300 -0.492746
O25   O     O_R   0.666600 0.921990 0.332020 -0.535871
O26   O     O_R   0.333400 0.921990 0.667980 -0.536417
O27   O     O_R   0.166600 0.421990 0.332020 -0.535871
O28   O     O_R   0.833400 0.421990 0.667980 -0.536417
O29   O     O_R   0.557260 0.082670 0.312540 -0.501491
O30   O     O_R   0.442740 0.082670 0.687460 -0.495682
O31   O     O_R   0.057260 0.582670 0.312540 -0.501491
O32   O     O_R   0.942740 0.582670 0.687460 -0.495681
O33   O     O_R   0.548410 0.285740 0.316480 -0.530166
O34   O     O_R   0.451590 0.285740 0.683520 -0.523644
O35   O     O_R   0.048410 0.785740 0.316480 -0.530166
O36   O     O_R   0.951590 0.785740 0.683520 -0.523644
O37   O     O_R   0.680500 0.375040 0.327000 -0.501893
O38   O     O_R   0.319500 0.375040 0.673000 -0.505985
O39   O     O_R   0.180500 0.875040 0.327000 -0.501893
O40   O     O_R   0.819500 0.875040 0.673000 -0.505985
O41   O     O_R   0.780350 0.286720 0.192720 -0.520959
O42   O     O_R   0.219650 0.286720 0.807280 -0.522030
O43   O     O_R   0.280350 0.786720 0.192720 -0.520957
O44   O     O_R   0.719650 0.786720 0.807280 -0.522032
O45   O     O_R   0.757470 0.036630 0.196110 -0.513425
O46   O     O_R   0.242530 0.036630 0.803890 -0.494878
O47   O     O_R   0.257470 0.536630 0.196110 -0.513424
O48   O     O_R   0.742530 0.536630 0.803890 -0.494878
O49   O     O_R   0.663840 0.921160 0.179280 -0.499250
O50   O     O_R   0.336160 0.921160 0.820720 -0.530787
O51   O     O_R   0.163840 0.421160 0.179280 -0.499254
O52   O     O_R   0.836160 0.421160 0.820720 -0.530788
O53   O     O_3   0.567560 0.079434 0.906583 -0.540236
C97   C     C_3   0.571504 0.959620 0.930085 0.001888
H65   H     H_    0.532061 0.934662 0.963022 0.168642
H66   H     H_    0.622093 0.945371 0.960218 0.148013
C98   C     C_3   0.565435 0.874954 0.868838 -0.344412
H67   H     H_    0.602406 0.901339 0.832768 0.187048
H68   H     H_    0.576923 0.781902 0.886651 0.098614
H69   H     H_    0.512414 0.877558 0.841459 0.164565
O54   O     O_3   0.476235 0.957951 0.070266 -0.566333
C99   C     C_3   0.425192 0.874941 0.084333 -0.012950
H70   H     H_    0.384225 0.866750 0.040073 0.133798
H71   H     H_    0.401815 0.902427 0.130971 0.154887
C100  C     C_3   0.458092 0.752491 0.097509 -0.355422
H72   H     H_    0.498799 0.757148 0.142077 0.164727
H73   H     H_    0.418400 0.686505 0.108793 0.111757
H74   H     H_    0.481380 0.722257 0.051484 0.147118
O55   O     O_3   0.067558 0.579419 0.906584 -0.540236
C101  C     C_3   0.071499 0.459605 0.930086 0.001891
H75   H     H_    0.032052 0.434652 0.963020 0.168640
H76   H     H_    0.122086 0.445351 0.960221 0.148010
C102  C     C_3   0.065431 0.374940 0.868838 -0.344409
H77   H     H_    0.102393 0.401338 0.832764 0.187056
H78   H     H_    0.076931 0.281893 0.886649 0.098616
H79   H     H_    0.012407 0.377527 0.841467 0.164542
O56   O     O_3   0.976228 0.457953 0.070266 -0.566335
C103  C     C_3   0.925183 0.374945 0.084332 -0.012923
H80   H     H_    0.884219 0.366746 0.040065 0.133790
H81   H     H_    0.901798 0.402441 0.130968 0.154874
C104  C     C_3   0.958088 0.252495 0.097520 -0.355383
H82   H     H_    0.998789 0.257160 0.142099 0.164709
H83   H     H_    0.918392 0.186508 0.108799 0.111759
H84   H     H_    0.981390 0.222256 0.051500 0.147115
O57   O     O_3   0.634792 0.438535 0.566910 -0.563548
C105  C     C_3   0.586610 0.532120 0.571366 -0.028106
H85   H     H_    0.568720 0.569366 0.519666 0.104476
H86   H     H_    0.609981 0.605333 0.605087 0.155335
C106  C     C_3   0.524622 0.485037 0.602619 -0.346365
H87   H     H_    0.541677 0.444381 0.653429 0.191668
H88   H     H_    0.488563 0.559654 0.609541 0.078530
H89   H     H_    0.497308 0.417381 0.568023 0.169204
O58   O     O_3   0.365173 0.438703 0.433093 -0.564722
C107  C     C_3   0.413447 0.532306 0.428596 -0.028643
H90   H     H_    0.431448 0.569678 0.480294 0.104873
H91   H     H_    0.390119 0.605424 0.394924 0.155370
C108  C     C_3   0.475325 0.485163 0.397240 -0.347353
H92   H     H_    0.458165 0.444423 0.346416 0.187857
H93   H     H_    0.511484 0.559763 0.390326 0.079233
H94   H     H_    0.502569 0.417544 0.431766 0.170139
O59   O     O_3   0.134792 0.938535 0.566910 -0.563548
C109  C     C_3   0.086610 0.032120 0.571366 -0.028106
H95   H     H_    0.068720 0.069366 0.519666 0.104476
H96   H     H_    0.109981 0.105333 0.605087 0.155334
C110  C     C_3   0.024622 0.985037 0.602619 -0.346365
H97   H     H_    0.041677 0.944381 0.653429 0.191668
H98   H     H_    0.988563 0.059654 0.609541 0.078530
H99   H     H_    0.997308 0.917381 0.568023 0.169204
O60   O     O_3   0.865173 0.938703 0.433093 -0.564722
C111  C     C_3   0.913447 0.032306 0.428596 -0.028643
H100  H     H_    0.931448 0.069678 0.480294 0.104873
H101  H     H_    0.890119 0.105424 0.394924 0.155369
C112  C     C_3   0.975325 0.985163 0.397240 -0.347353
H102  H     H_    0.958165 0.944423 0.346416 0.187857
H103  H     H_    0.011484 0.059763 0.390326 0.079232
H104  H     H_    0.002569 0.917544 0.431766 0.170139

loop_
_geom_bond_atom_site_label_1
_geom_bond_atom_site_label_2
_ccdc_geom_bond_type
C58   C62   S    
C39   C51   S    
C67   C83   S    
C8    C24   S    
Cr4   O48   S    
C35   H23   S    
C109  C110  S    
C9    H9    S    
C14   C18   S    
C105  H86   S    
C35   C36   S    
C8    C96   S    
C12   H46   S    
Cr2   O18   S    
C87   C92   T    
C83   O15   A    
Cr7   O19   S    
C9    C25   S    
C36   H20   S    
C43   O55   S    
C15   C19   S    
C40   H28   S    
C11   C19   S    
O56   C103  S    
C98   H67   S    
Cr3   O43   S    
C48   O36   A    
C82   O14   A    
Cr6   O50   S    
Cr8   O32   S    
C13   C29   S    
C16   C20   S    
C8    H44   S    
O59   C109  S    
C10   C18   S    
C75   O47   A    
O55   C101  S    
C98   H69   S    
Cr5   O17   S    
C74   O46   A    
Cr6   O26   S    
C16   H56   S    
C104  H82   S    
Cr2   O2    S    
C42   O54   S    
Cr5   O25   S    
C5    C21   S    
Cr7   O7    S    
Cr11  O39   S    
Cr9   O13   S    
C6    C22   S    
C100  H73   S    
Cr3   O23   S    
Cr1   O1    S    
O58   C107  S    
Cr9   O37   S    
C49   C78   S    
Cr2   O22   S    
C3    C18   S    
C46   O34   A    
O57   C105  S    
C26   H52   S    
Cr1   O21   S    
C37   C42   S    
Cr2   O46   S    
C51   C80   S    
C30   H62   S    
C21   C25   S    
C81   O13   A    
Cr9   O9    S    
C59   C67   T    
C43   C51   S    
C82   O42   A    
C55   C74   S    
C13   H57   S    
C58   C66   T    
C40   C43   S    
C81   O41   A    
C71   O3    A    
C6    C94   S    
C55   C63   T    
Cr4   O4    S    
C77   O9    A    
C56   C64   T    
C78   O6    A    
C109  H95   S    
C47   C88   S    
C23   C27   S    
C14   H58   S    
C52   C79   S    
C109  H96   S    
O54   C99   S    
Cr11  O35   S    
C36   C52   S    
Cr12  O36   S    
C46   C85   S    
Cr7   O51   S    
C5    C93   S    
C44   C52   S    
C103  C104  S    
Cr1   O17   S    
C20   C96   S    
C46   O30   A    
C75   O51   A    
C35   H19   S    
C28   H50   S    
C12   H12   S    
C108  H92   S    
C42   H29   S    
Cr8   O28   S    
Cr6   O6    S    
C15   H59   S    
Cr4   O20   S    
C99   H71   S    
C14   C30   S    
C31   H7    S    
C22   C70   S    
Cr12  O40   S    
C33   C34   S    
C7    H39   S    
Cr4   O24   S    
C86   C89   T    
C41   O53   S    
Cr7   O31   S    
C34   C50   S    
C101  C102  S    
C5    H37   S    
C37   H34   S    
Cr12  O12   S    
C73   O45   A    
C68   C84   S    
Cr9   O17   S    
Cr5   O5    S    
Cr10  O14   S    
C38   C41   S    
C11   H11   S    
C100  H74   S    
C10   H48   S    
C101  H76   S    
C106  H88   S    
C108  H93   S    
C27   H15   S    
C27   H49   S    
C39   H27   S    
C54   C62   T    
C103  H80   S    
C40   C52   S    
C21   C29   S    
C15   C31   S    
C107  C108  S    
C69   O1    A    
C3    O23   A    
C95   H3    S    
Cr11  O11   S    
C78   O10   A    
C99   C100  S    
C23   C31   S    
C14   H54   S    
C1    O21   A    
C24   C32   S    
C25   H51   S    
C112  H102  S    
C10   H10   S    
C23   C71   S    
C66   C82   S    
C37   C49   S    
Cr6   O30   S    
C72   O40   A    
C65   C81   S    
C88   C91   T    
C11   C27   S    
C34   H18   S    
C57   C65   T    
C12   C20   S    
C33   H17   S    
C101  H75   S    
C110  H99   S    
C48   C87   S    
C47   O31   A    
C43   H32   S    
Cr7   O27   S    
C32   H8    S    
C3    O27   A    
C57   C61   S    
C70   O2    A    
C9    H47   S    
C41   H30   S    
C107  H91   S    
C42   C50   S    
C6    H42   S    
C93   O57   S    
C4    C17   S    
C9    C17   S    
C33   H21   S    
Cr3   O47   S    
C44   H31   S    
C71   O39   A    
C25   H13   S    
C102  H78   S    
C35   C51   S    
C18   C94   S    
C38   H33   S    
Cr1   O45   S    
C59   C63   S    
C102  H79   S    
C53   C76   S    
C17   C93   S    
C99   H70   S    
Cr10  O18   S    
C53   C61   T    
C13   H53   S    
C97   C98   S    
C50   C77   S    
C80   O8    A    
C91   C92   S    
C21   C69   S    
C19   C95   S    
C24   C72   S    
C104  H83   S    
C30   H6    S    
Cr5   O49   S    
C4    O24   A    
C94   O58   S    
C29   H5    S    
Cr4   O44   S    
C1    C20   S    
C45   O33   A    
C56   C73   S    
C22   C30   S    
C36   H24   S    
O53   C97   S    
C2    C19   S    
C2    O26   A    
C111  H101  S    
C112  H104  S    
Cr12  O16   S    
C1    O25   A    
Cr8   O8    S    
C24   C28   S    
C80   O12   A    
C102  H77   S    
C33   C49   S    
Cr10  O38   S    
C95   O59   S    
Cr10  O34   S    
C106  H89   S    
C83   O43   A    
C85   C90   T    
C28   H16   S    
C98   H68   S    
Cr9   O33   S    
C39   C44   S    
C38   C50   S    
C32   H64   S    
C47   O35   A    
C16   C32   S    
C41   C49   S    
C7    C95   S    
C74   O50   A    
C73   O49   A    
C111  H100  S    
C96   O60   S    
C96   H4    S    
C13   C17   S    
C60   C64   S    
C60   C68   T    
C29   H61   S    
C48   O32   A    
C104  H84   S    
C110  H98   S    
C105  H85   S    
O60   C111  S    
C94   H2    S    
C112  H103  S    
Cr5   O29   S    
C8    H40   S    
Cr3   O19   S    
C10   C26   S    
C106  H87   S    
C7    C23   S    
C31   H63   S    
C16   H60   S    
C6    H38   S    
C100  H72   S    
C5    H41   S    
Cr6   O18   S    
C79   O11   A    
C45   C86   S    
C69   O37   A    
C37   H25   S    
Cr10  O10   S    
C38   H26   S    
Cr2   O42   S    
C72   O4    A    
C77   O5    A    
C108  H94   S    
Cr3   O3    S    
C84   O16   A    
C107  H90   S    
C11   H45   S    
C2    O22   A    
C54   C75   S    
C105  C106  S    
C76   O52   A    
C4    O28   A    
C79   O7    A    
C7    H43   S    
C39   H36   S    
C34   H22   S    
C111  C112  S    
C45   O29   A    
C97   H65   S    
C22   C26   S    
C40   H35   S    
Cr11  O19   S    
C44   O56   S    
C76   O48   A    
Cr11  O15   S    
Cr1   O41   S    
C26   H14   S    
C70   O38   A    
C12   C28   S    
C89   C90   S    
C110  H97   S    
C103  H81   S    
Cr8   O52   S    
C15   H55   S    
C97   H66   S    
C84   O44   A    
C93   H1    S    
Cr12  O20   S    
Cr8   O20   S    
