data_mof_unit_37673.cif
_audit_creation_date              2012-12-11T15:55:02-0500
_audit_creation_method            fapswitch 2.2
_symmetry_space_group_name_H-M    P1
_symmetry_Int_Tables_number       1
_space_group_crystal_system       triclinic
_cell_length_a                    17.659999
_cell_length_b                    24.285024
_cell_length_c                    15.100781
_cell_angle_alpha                 90.136332
_cell_angle_beta                  125.976126
_cell_angle_gamma                 89.94173
_cell_volume                      5241.02711768

loop_
_atom_site_label
_atom_site_type_symbol
_atom_type_description
_atom_site_fract_x
_atom_site_fract_y
_atom_site_fract_z
_atom_type_partial_charge
C1    C     C_R   0.903554 0.875534 0.092457 -0.131994
C2    C     C_R   0.903482 0.124564 0.092467 -0.129640
C3    C     C_R   0.403554 0.375535 0.092458 -0.132001
C4    C     C_R   0.403481 0.624565 0.092465 -0.129622
C5    C     C_R   0.060674 0.848828 0.908883 -0.041648
C6    C     C_R   0.062842 0.150100 0.908380 -0.024380
C7    C     C_R   0.560675 0.348828 0.908885 -0.041593
C8    C     C_R   0.562841 0.650100 0.908380 -0.024400
C9    C     C_R   0.149480 0.152281 0.090639 -0.156153
C10   C     C_R   0.148564 0.847515 0.090803 -0.154004
C11   C     C_R   0.649480 0.652281 0.090639 -0.156159
C12   C     C_R   0.648563 0.347515 0.090805 -0.154041
C13   C     C_R   0.323141 0.000144 0.274524 0.017183
C14   C     C_R   0.823142 0.500144 0.274524 0.017184
C15   C     C_R   0.939591 0.998802 0.635017 -0.225120
C16   C     C_R   0.439604 0.498802 0.635024 -0.225115
C17   C     C_R   0.119379 0.816720 0.999142 0.047188
C18   C     C_R   0.121627 0.182368 0.998725 0.041898
C19   C     C_R   0.619377 0.316719 0.999145 0.047081
C20   C     C_R   0.621627 0.682369 0.998724 0.041899
C21   C     C_3   0.918885 0.017464 0.370068 -0.464905
C22   C     C_3   0.031587 0.939930 0.478121 -0.471603
C23   C     C_3   0.418892 0.517446 0.370069 -0.464916
C24   C     C_3   0.531636 0.439933 0.478163 -0.471582
C25   C     C_3   0.890238 0.021719 0.447748 -0.282929
C26   C     C_3   0.992973 0.939482 0.544934 -0.293593
C27   C     C_3   0.390247 0.521708 0.447751 -0.282959
C28   C     C_3   0.493010 0.439483 0.544965 -0.293685
C29   C     C_3   0.086415 0.037606 0.531028 -0.370400
C30   C     C_3   0.586412 0.537621 0.531020 -0.370454
C31   C     C_3   0.022766 0.998614 0.433470 0.390936
C32   C     C_3   0.522784 0.498614 0.433481 0.390983
C33   C     C_3   0.969125 0.998689 0.560903 0.308072
C34   C     C_3   0.469141 0.498689 0.560913 0.308135
C35   C     C_R   0.810392 0.123464 0.908925 -0.063991
C36   C     C_R   0.810464 0.876456 0.908894 -0.060394
C37   C     C_R   0.310393 0.623466 0.908922 -0.064007
C38   C     C_R   0.310464 0.376457 0.908895 -0.060379
C39   C     C_3   0.059464 0.034275 0.610756 -0.418910
C40   C     C_3   0.559469 0.534285 0.610755 -0.418911
C41   C     C_3   0.662143 0.187713 0.885673 -0.546857
C42   C     C_3   0.663338 0.811287 0.885284 -0.605961
C43   C     C_3   0.162172 0.687739 0.885647 -0.546686
C44   C     C_3   0.163336 0.311289 0.885286 -0.605956
C45   C     C_3   0.103768 0.734988 0.885032 0.407692
C46   C     C_3   0.105275 0.263904 0.884613 0.414706
C47   C     C_3   0.603749 0.234971 0.885056 0.407174
C48   C     C_3   0.605275 0.763904 0.884612 0.414708
C49   C     C_3   0.313274 0.735263 0.028787 -0.354627
C50   C     C_3   0.314909 0.264661 0.029331 -0.352740
C51   C     C_3   0.813247 0.235263 0.028729 -0.354600
C52   C     C_3   0.814910 0.764661 0.029335 -0.352761
C53   C     C_3   0.731270 0.172112 0.084571 -0.123249
C54   C     C_3   0.731346 0.827588 0.083801 -0.124343
C55   C     C_3   0.231230 0.672100 0.084520 -0.123259
C56   C     C_3   0.231349 0.327587 0.083805 -0.124316
C57   C     C_3   0.756438 0.181362 0.001488 0.272007
C58   C     C_3   0.757192 0.818273 0.001325 0.299420
C59   C     C_3   0.256441 0.681367 0.001481 0.271873
C60   C     C_3   0.257192 0.318273 0.001326 0.299402
C61   C     C_3   0.163004 0.765458 0.998320 0.166666
C62   C     C_3   0.164773 0.233755 0.998002 0.172776
C63   C     C_3   0.663002 0.265456 0.998326 0.167011
C64   C     C_3   0.664773 0.733755 0.998001 0.172782
C65   C     C_3   0.256904 0.784406 0.021525 -0.494653
C66   C     C_3   0.258978 0.215220 0.021622 -0.498858
C67   C     C_3   0.756882 0.284405 0.021479 -0.494623
C68   C     C_3   0.758978 0.715220 0.021621 -0.498872
C69   C     C_3   0.183996 0.724878 0.089526 -0.378072
C70   C     C_3   0.184962 0.274537 0.088979 -0.379761
C71   C     C_3   0.684035 0.224891 0.089569 -0.378175
C72   C     C_3   0.684962 0.774537 0.088978 -0.379744
C73   C     C_3   0.474307 0.949119 0.365848 -0.435158
C74   C     C_3   0.473214 0.052726 0.368907 -0.434655
C75   C     C_3   0.974306 0.449117 0.365847 -0.435244
C76   C     C_3   0.973214 0.552724 0.368904 -0.434657
C77   C     C_R   0.739618 0.954296 0.700508 -0.040041
C78   C     C_R   0.740578 0.045896 0.700142 -0.044556
C79   C     C_R   0.239619 0.454296 0.700507 -0.040028
C80   C     C_R   0.240578 0.545896 0.700141 -0.044552
C81   C     C_3   0.577154 0.950320 0.465526 -0.394876
C82   C     C_3   0.575192 0.052407 0.470246 -0.383681
C83   C     C_3   0.077154 0.450318 0.465526 -0.394696
C84   C     C_3   0.075194 0.552405 0.470242 -0.383677
C85   C     C_3   0.424825 0.999124 0.472111 -0.465144
C86   C     C_3   0.924827 0.499125 0.472111 -0.465135
C87   C     C_3   0.422353 0.000269 0.367496 0.373642
C88   C     C_3   0.922354 0.500269 0.367495 0.373644
C89   C     C_3   0.594425 0.000185 0.540771 0.305758
C90   C     C_3   0.094427 0.500184 0.540769 0.305662
C91   C     C_3   0.526556 0.997965 0.576410 0.086604
C92   C     C_3   0.026558 0.497966 0.576409 0.086568
C93   C     C_R   0.041429 0.045586 0.300541 -0.145911
C94   C     C_R   0.043154 0.953777 0.300046 -0.141335
C95   C     C_R   0.541436 0.545586 0.300545 -0.145911
C96   C     C_R   0.543161 0.453777 0.300050 -0.141332
C97   C     C_R   0.814539 0.862495 0.001109 0.003949
C98   C     C_R   0.814344 0.137412 0.001174 0.006680
C99   C     C_R   0.314539 0.362495 0.001109 0.003943
C100  C     C_R   0.314347 0.637417 0.001169 0.006722
C101  C     C_R   0.690736 0.000128 0.640613 -0.017243
C102  C     C_R   0.190738 0.500128 0.640612 -0.017210
C103  C     C_R   0.047735 0.999293 0.357117 0.016367
C104  C     C_R   0.547750 0.499293 0.357127 0.016358
C105  C     C_R   0.267170 0.953855 0.247073 -0.138935
C106  C     C_R   0.266992 0.046290 0.247084 -0.136450
C107  C     C_R   0.767170 0.453855 0.247072 -0.138930
C108  C     C_R   0.766992 0.546290 0.247084 -0.136455
C109  C     C_R   0.948510 0.045265 0.694409 0.418043
C110  C     C_R   0.949406 0.953175 0.696017 0.420020
C111  C     C_R   0.448517 0.545265 0.694412 0.418043
C112  C     C_R   0.449413 0.453175 0.696020 0.419963
H1    H     H_    0.935253 0.865674 0.176741 0.109386
H2    H     H_    0.935174 0.134623 0.176709 0.108615
H3    H     H_    0.435253 0.365675 0.176742 0.109389
H4    H     H_    0.435167 0.634623 0.176707 0.108595
H5    H     H_    0.872390 0.987500 0.303594 0.179025
H6    H     H_    0.990287 0.909453 0.410873 0.163648
H7    H     H_    0.372411 0.487469 0.303617 0.179021
H8    H     H_    0.490359 0.409444 0.410934 0.163628
H9    H     H_    0.823776 0.998881 0.413395 0.190873
H10   H     H_    0.927828 0.914682 0.498303 0.242207
H11   H     H_    0.323790 0.498866 0.413408 0.190871
H12   H     H_    0.427871 0.414679 0.498329 0.242146
H13   H     H_    0.877794 0.065728 0.454269 0.234366
H14   H     H_    0.045749 0.919703 0.624967 0.177269
H15   H     H_    0.377795 0.565718 0.454257 0.234359
H16   H     H_    0.545785 0.419709 0.625004 0.177263
H17   H     H_    0.078121 0.080775 0.502119 0.167610
H18   H     H_    0.161210 0.026006 0.573816 0.169323
H19   H     H_    0.578088 0.580788 0.502091 0.167593
H20   H     H_    0.661215 0.526038 0.573809 0.169316
H21   H     H_    0.050170 0.076789 0.629507 0.210551
H22   H     H_    0.118079 0.015740 0.689264 0.158250
H23   H     H_    0.550167 0.576797 0.629504 0.210547
H24   H     H_    0.618093 0.515755 0.689264 0.158249
H25   H     H_    0.675429 0.198476 0.824379 0.154714
H26   H     H_    0.677261 0.800327 0.824527 0.163929
H27   H     H_    0.175503 0.698525 0.824398 0.154757
H28   H     H_    0.177257 0.300330 0.824526 0.163964
H29   H     H_    0.623377 0.147979 0.858986 0.213669
H30   H     H_    0.624164 0.850852 0.858013 0.199505
H31   H     H_    0.123398 0.648008 0.858899 0.213687
H32   H     H_    0.124163 0.350853 0.858018 0.199507
H33   H     H_    0.089755 0.763667 0.819768 0.031562
H34   H     H_    0.091457 0.235178 0.819298 0.049090
H35   H     H_    0.589728 0.263641 0.819777 0.031213
H36   H     H_    0.591456 0.735177 0.819296 0.049068
H37   H     H_    0.332154 0.741327 0.970827 0.210922
H38   H     H_    0.334501 0.258663 0.971977 0.213976
H39   H     H_    0.832084 0.241318 0.970726 0.210921
H40   H     H_    0.834506 0.758663 0.971984 0.213958
H41   H     H_    0.753832 0.130024 0.824374 0.099102
H42   H     H_    0.753964 0.869680 0.824384 0.103691
H43   H     H_    0.253833 0.630026 0.824370 0.099122
H44   H     H_    0.253963 0.369681 0.824384 0.103707
H45   H     H_    0.243551 0.812340 0.955271 0.184866
H46   H     H_    0.246133 0.187303 0.955368 0.185359
H47   H     H_    0.743503 0.312334 0.955206 0.184865
H48   H     H_    0.746132 0.687304 0.955366 0.185337
H49   H     H_    0.680097 0.137603 0.052708 0.179346
H50   H     H_    0.679454 0.861711 0.051250 0.180865
H51   H     H_    0.180047 0.637596 0.052614 0.179358
H52   H     H_    0.179461 0.361711 0.051259 0.180850
H53   H     H_    0.618958 0.213983 0.081026 0.209371
H54   H     H_    0.619594 0.785091 0.080111 0.208975
H55   H     H_    0.118900 0.713969 0.080940 0.209393
H56   H     H_    0.119594 0.285092 0.080110 0.208975
H57   H     H_    0.230666 0.744996 0.170835 0.148571
H58   H     H_    0.231912 0.254771 0.170424 0.145478
H59   H     H_    0.730721 0.245020 0.170862 0.148564
H60   H     H_    0.731915 0.754772 0.170424 0.145500
H61   H     H_    0.380114 0.733549 0.112326 0.162321
H62   H     H_    0.381375 0.266749 0.113171 0.161929
H63   H     H_    0.880111 0.233560 0.112249 0.162326
H64   H     H_    0.881373 0.766749 0.113177 0.161937
H65   H     H_    0.299558 0.807960 0.099764 0.187169
H66   H     H_    0.301625 0.191782 0.099802 0.188837
H67   H     H_    0.799551 0.307967 0.099708 0.187153
H68   H     H_    0.801624 0.691781 0.099800 0.188843
H69   H     H_    0.442798 0.910348 0.369198 0.156507
H70   H     H_    0.440071 0.090725 0.372402 0.158122
H71   H     H_    0.942797 0.410347 0.369197 0.156524
H72   H     H_    0.940072 0.590724 0.372400 0.158151
H73   H     H_    0.469737 0.948388 0.289145 0.174026
H74   H     H_    0.470324 0.054634 0.293342 0.176342
H75   H     H_    0.969737 0.448387 0.289144 0.174032
H76   H     H_    0.970324 0.554632 0.293339 0.176334
H77   H     H_    0.622614 0.954001 0.437261 0.212789
H78   H     H_    0.622153 0.052628 0.443793 0.220471
H79   H     H_    0.122616 0.453997 0.437262 0.212831
H80   H     H_    0.122154 0.552625 0.443788 0.220466
H81   H     H_    0.721923 0.911966 0.675489 0.143617
H82   H     H_    0.725115 0.088252 0.674724 0.144166
H83   H     H_    0.221925 0.411966 0.675488 0.143678
H84   H     H_    0.225115 0.588251 0.674722 0.144176
H85   H     H_    0.594428 0.910155 0.507954 0.155925
H86   H     H_    0.588889 0.091328 0.515860 0.155301
H87   H     H_    0.094426 0.410154 0.507955 0.156004
H88   H     H_    0.088892 0.591327 0.515855 0.155331
H89   H     H_    0.385392 0.962738 0.469893 0.156877
H90   H     H_    0.386997 0.035640 0.472891 0.161527
H91   H     H_    0.885394 0.462738 0.469894 0.156875
H92   H     H_    0.886999 0.535640 0.472890 0.161538
H93   H     H_    0.049243 0.088001 0.326358 0.094814
H94   H     H_    0.056924 0.911280 0.325884 0.097463
H95   H     H_    0.549249 0.588002 0.326360 0.094799
H96   H     H_    0.556935 0.411280 0.325888 0.097456
H97   H     H_    0.288222 0.911245 0.263237 0.095376
H98   H     H_    0.287516 0.088981 0.262768 0.095968
H99   H     H_    0.788222 0.411245 0.263237 0.095380
H100  H     H_    0.787517 0.588981 0.262768 0.095982
H101  H     H_    0.022734 0.836610 0.825147 0.192577
H102  H     H_    0.027688 0.160897 0.824042 0.187677
H103  H     H_    0.522741 0.336609 0.825149 0.192602
H104  H     H_    0.527686 0.660897 0.824042 0.187674
H105  H     H_    0.190928 0.166331 0.174571 0.100056
H106  H     H_    0.190321 0.833880 0.174892 0.100388
H107  H     H_    0.690928 0.666331 0.174571 0.100071
H108  H     H_    0.690317 0.333881 0.174894 0.100398
H109  H     H_    0.908109 0.058243 0.330770 0.169045
H110  H     H_    0.106088 0.926489 0.529041 0.182860
H111  H     H_    0.408091 0.558220 0.330742 0.169047
H112  H     H_    0.606146 0.426509 0.529100 0.182861
N1    N     N_R   0.950530 0.896220 0.057200 -0.046689
N2    N     N_R   0.950530 0.103780 0.057200 -0.046424
N3    N     N_R   0.450530 0.396220 0.057200 -0.046692
N4    N     N_R   0.450530 0.603780 0.057200 -0.046426
N5    N     N_R   0.893330 0.103780 0.942800 -0.016930
N6    N     N_R   0.893330 0.896220 0.942800 -0.021297
N7    N     N_R   0.393330 0.603780 0.942800 -0.016934
N8    N     N_R   0.393330 0.396220 0.942800 -0.021313
N9    N     N_R   0.818150 0.971400 0.792440 -0.052174
N10   N     N_R   0.818150 0.028600 0.792440 -0.049755
N11   N     N_R   0.318150 0.471400 0.792440 -0.052204
N12   N     N_R   0.318150 0.528600 0.792440 -0.049759
N13   N     N_R   0.025710 0.028600 0.207560 -0.038930
N14   N     N_R   0.025710 0.971400 0.207560 -0.039985
N15   N     N_R   0.525710 0.528600 0.207560 -0.038929
N16   N     N_R   0.525710 0.471400 0.207560 -0.039985
N17   N     N_R   0.181850 0.971400 0.207560 -0.040410
N18   N     N_R   0.181850 0.028600 0.207560 -0.040206
N19   N     N_R   0.681850 0.471400 0.207560 -0.040410
N20   N     N_R   0.681850 0.528600 0.207560 -0.040206
N21   N     N_R   0.974290 0.028600 0.792440 -0.130303
N22   N     N_R   0.974290 0.971400 0.792440 -0.134495
N23   N     N_R   0.474290 0.528600 0.792440 -0.130301
N24   N     N_R   0.474290 0.471400 0.792440 -0.134509
N25   N     N_R   0.049470 0.896220 0.942800 -0.048636
N26   N     N_R   0.049470 0.103780 0.942800 -0.044000
N27   N     N_R   0.549470 0.396220 0.942800 -0.048657
N28   N     N_R   0.549470 0.603780 0.942800 -0.044002
N29   N     N_R   0.106670 0.103780 0.057200 -0.051013
N30   N     N_R   0.106670 0.896220 0.057200 -0.050554
N31   N     N_R   0.606670 0.603780 0.057200 -0.051013
N32   N     N_R   0.606670 0.396220 0.057200 -0.050549
Ni1   Ni    Ni4+2 0.065600 0.934400 0.131190 0.207714
Ni2   Ni    Ni4+2 0.065600 0.065600 0.131190 0.209506
Ni3   Ni    Ni4+2 0.565600 0.434400 0.131190 0.207705
Ni4   Ni    Ni4+2 0.565600 0.565600 0.131190 0.209504
Ni5   Ni    Ni4+2 0.934400 0.065600 0.868810 0.311003
Ni6   Ni    Ni4+2 0.934400 0.934400 0.868810 0.321408
Ni7   Ni    Ni4+2 0.434400 0.565600 0.868810 0.310998
Ni8   Ni    Ni4+2 0.434400 0.434400 0.868810 0.321451
S1    S     S_3+6 0.490709 0.210387 0.844953 -0.042456
O1    O     O_2   0.501062 0.157381 0.902273 -0.287765
O2    O     O_2   0.443162 0.251805 0.871118 -0.295581
O3    O     O_3   0.422874 0.198658 0.709333 -0.502529
H113  H     H_    0.412857 0.235409 0.675768 0.372023
S2    S     S_3+6 0.491965 0.788144 0.844349 -0.051679
O4    O     O_2   0.446586 0.747136 0.873912 -0.279722
O5    O     O_2   0.500833 0.842108 0.898706 -0.318780
O6    O     O_3   0.422462 0.796904 0.707912 -0.489528
H114  H     H_    0.452771 0.826393 0.693738 0.329364
S3    S     S_3+6 0.990721 0.710395 0.844895 -0.042649
O7    O     O_2   0.001046 0.657345 0.902079 -0.287748
O8    O     O_2   0.943220 0.751777 0.871192 -0.296103
O9    O     O_3   0.922867 0.698762 0.709235 -0.502859
H115  H     H_    0.912154 0.735605 0.675758 0.372590
S4    S     S_3+6 0.991964 0.288143 0.844350 -0.051684
O10   O     O_2   0.946587 0.247135 0.873916 -0.279729
O11   O     O_2   0.000830 0.342108 0.898704 -0.318785
O12   O     O_3   0.922460 0.296901 0.707913 -0.489531
H116  H     H_    0.952765 0.326392 0.693737 0.329371
N33   N     N_3   0.811589 0.156473 0.194577 -0.231995
H117  H     H_    0.857030 0.189935 0.233160 0.118487
H118  H     H_    0.787330 0.146257 0.241146 0.134210
N34   N     N_3   0.811074 0.843991 0.193796 -0.231812
H119  H     H_    0.857072 0.810870 0.233093 0.116065
H120  H     H_    0.786291 0.854308 0.239852 0.126928
N35   N     N_3   0.311526 0.656442 0.194527 -0.231980
H121  H     H_    0.356968 0.689900 0.233154 0.118485
H122  H     H_    0.287238 0.646210 0.241060 0.134196
N36   N     N_3   0.311080 0.343987 0.193801 -0.231811
H123  H     H_    0.357075 0.310863 0.233093 0.116044
H124  H     H_    0.286300 0.354303 0.239860 0.126864
N37   N     N_3   0.542945 0.947157 0.639029 -0.222573
H125  H     H_    0.520930 0.912528 0.588366 0.101054
H126  H     H_    0.502219 0.947871 0.668613 0.118354
N38   N     N_3   0.543581 0.045516 0.647182 -0.217892
H127  H     H_    0.502108 0.041879 0.675469 0.136857
H128  H     H_    0.522854 0.082186 0.602709 0.114621
N39   N     N_3   0.042947 0.447159 0.639030 -0.222572
H129  H     H_    0.020930 0.412528 0.588369 0.101061
H130  H     H_    0.002221 0.447874 0.668616 0.118355
N40   N     N_3   0.043583 0.545517 0.647179 -0.217882
H131  H     H_    0.002110 0.541882 0.675467 0.136875
H132  H     H_    0.022856 0.582187 0.602704 0.114720
S5    S     S_3+6 0.883193 0.106407 0.632708 -0.094717
O13   O     O_2   0.935018 0.144349 0.607018 -0.334543
O14   O     O_2   0.790255 0.092031 0.528475 -0.341601
O15   O     O_3   0.863609 0.139291 0.715506 -0.562994
H133  H     H_    0.828543 0.172944 0.675107 0.399696
S6    S     S_3+6 0.884347 0.891182 0.638003 -0.113980
O16   O     O_2   0.940447 0.848802 0.626945 -0.372101
O17   O     O_2   0.858636 0.867422 0.708689 -0.330096
O18   O     O_3   0.786221 0.904927 0.513396 -0.579586
H134  H     H_    0.750520 0.869962 0.488763 0.367604
S7    S     S_3+6 0.383195 0.606406 0.632704 -0.094714
O19   O     O_2   0.435017 0.644349 0.607012 -0.334560
O20   O     O_2   0.290260 0.592026 0.528471 -0.341588
O21   O     O_3   0.363607 0.639289 0.715498 -0.562992
H135  H     H_    0.328543 0.672943 0.675099 0.399701
S8    S     S_3+6 0.384355 0.391182 0.638001 -0.113830
O22   O     O_2   0.440461 0.348803 0.626952 -0.372312
O23   O     O_2   0.358635 0.367421 0.708677 -0.329681
O24   O     O_3   0.286236 0.404931 0.513391 -0.579631
H136  H     H_    0.250678 0.369914 0.488598 0.367664

loop_
_geom_bond_atom_site_label_1
_geom_bond_atom_site_label_2
_ccdc_geom_bond_type
N11   Ni8   S    
C12   N32   A    
C55   C59   S    
C15   C109  A    
C77   C101  A    
N35   H121  S    
C42   C58   S    
C49   H61   S    
C55   N35   S    
N39   H130  S    
C42   C48   S    
C21   H109  S    
C46   C62   S    
C72   H60   S    
C82   H86   S    
C86   C88   S    
C96   H96   S    
C30   H19   S    
C106  H98   S    
N32   Ni3   S    
C62   C70   S    
C26   H14   S    
C77   H81   S    
C21   H5    S    
N28   Ni7   S    
C17   C61   S    
N29   Ni2   S    
N10   Ni5   S    
S3    O7    D    
C19   C63   S    
S8    O22   D    
C32   C104  S    
C79   C102  A    
C36   C97   A    
C51   C57   S    
C76   H76   S    
N26   N29   A    
C24   H112  S    
N21   N22   A    
C78   C101  A    
N18   Ni2   S    
C107  N19   A    
C1    H1    S    
C73   C81   S    
C44   C46   S    
C80   H84   S    
C40   H23   S    
C11   C20   A    
C24   H8    S    
C6    N26   A    
C92   N40   S    
S6    O16   D    
C24   C32   S    
C73   H69   S    
C90   C92   S    
N39   H129  S    
C5    H101  S    
N40   H131  S    
C95   N15   A    
C81   H77   S    
C52   C58   S    
C85   H90   S    
C14   C107  A    
C63   C71   S    
C7    C19   A    
C96   C104  A    
S2    O5    D    
C53   C71   S    
N38   H127  S    
C2    N2    A    
C56   N36   S    
C22   H6    S    
C89   C101  S    
C72   H54   S    
C9    N29   A    
C13   C106  A    
C8    H104  S    
C111  S7    S    
C25   H9    S    
C56   H52   S    
N1    N6    A    
C55   H51   S    
N33   H118  S    
C81   H85   S    
C2    H2    S    
N27   N32   A    
C46   H34   S    
C91   N38   S    
S8    O24   S    
N16   Ni3   S    
C14   C88   S    
C61   C65   S    
C107  H99   S    
N12   Ni7   S    
C80   C102  A    
N13   Ni2   S    
C67   H67   S    
C68   H48   S    
S6    O17   D    
C12   H108  S    
N4    N7    A    
N23   Ni7   S    
C16   C111  A    
N24   Ni8   S    
C39   H22   S    
S7    O20   D    
C80   N12   A    
C94   H94   S    
N21   Ni5   S    
C93   C103  A    
C21   C31   S    
C82   C89   S    
C45   H33   S    
C64   C68   S    
N35   H122  S    
C23   H7    S    
C79   H83   S    
O15   H133  S    
N17   N18   A    
C90   C102  S    
C16   C34   S    
C33   C39   S    
C29   H17   S    
C93   N13   A    
C74   C87   S    
C89   C91   S    
C24   C28   S    
N9    N10   A    
C43   C59   S    
C47   S1    S    
C48   S2    S    
N13   N14   A    
C59   C100  S    
N37   H126  S    
C108  N20   A    
C84   C90   S    
C108  H100  S    
S5    O14   D    
C47   H35   S    
C62   C66   S    
S3    O9    S    
S4    O10   D    
C112  S8    S    
C69   H57   S    
N30   Ni1   S    
C7    N27   A    
N34   H120  S    
S1    O2    D    
C26   C33   S    
N40   H132  S    
C78   N10   A    
C13   C87   S    
C41   C47   S    
C51   C67   S    
C43   C45   S    
C55   C69   S    
N28   N31   A    
C23   H111  S    
C71   H59   S    
C11   H107  S    
C67   H47   S    
C9    H105  S    
C37   N7    A    
C21   C25   S    
N31   Ni4   S    
C8    N28   A    
N8    Ni8   S    
C35   H41   S    
C73   H73   S    
N4    Ni4   S    
C74   H70   S    
N5    Ni5   S    
C49   C59   S    
C50   C60   S    
C79   N11   A    
C65   H65   S    
C30   H20   S    
C46   S4    S    
C51   H39   S    
C3    C99   A    
C9    C18   A    
C111  N23   A    
C71   H53   S    
O12   H116  S    
O9    H115  S    
C40   H24   S    
C86   H91   S    
C37   C100  A    
C25   C33   S    
N6    Ni6   S    
C42   H26   S    
C43   H31   S    
N15   N16   A    
S2    O6    S    
S4    O12   S    
C76   C84   S    
C36   H42   S    
C22   H110  S    
C83   H79   S    
C74   C82   S    
C47   C63   S    
N36   H123  S    
C48   C64   S    
C5    C17   A    
C54   N34   S    
N19   N20   A    
C105  H97   S    
N14   Ni1   S    
C78   H82   S    
C105  N17   A    
C25   H13   S    
C73   C87   S    
N7    Ni7   S    
C27   H15   S    
N20   Ni4   S    
C11   N31   A    
N11   N12   A    
N25   Ni6   S    
C35   C98   A    
C52   H64   S    
C41   H25   S    
N22   Ni6   S    
C85   H89   S    
C81   C89   S    
S6    O18   S    
C14   C108  A    
O21   H135  S    
C28   C34   S    
N25   N30   A    
C44   H28   S    
C96   N16   A    
C15   C110  A    
C106  N18   A    
N38   H128  S    
C95   H95   S    
C5    N25   A    
N15   Ni4   S    
C13   C105  A    
C53   C57   S    
C38   N8    A    
C45   S3    S    
C56   C60   S    
C69   H55   S    
N33   H117  S    
C70   H56   S    
C6    H102  S    
C52   H40   S    
C28   H12   S    
N19   Ni3   S    
C51   H63   S    
N17   Ni1   S    
C65   H45   S    
C94   C103  A    
C92   N39   S    
C3    N3    A    
C16   C112  A    
C93   H93   S    
C39   H21   S    
C1    N1    A    
C10   N30   A    
C4    H4    S    
C75   H75   S    
C38   C99   A    
C23   C32   S    
C70   H58   S    
C41   C57   S    
O24   H136  S    
C3    H3    S    
C75   C83   S    
C44   C60   S    
C57   C98   S    
C12   C19   A    
C45   C61   S    
C4    N4    A    
S7    O19   D    
O3    H113  S    
C22   C26   S    
S2    O4    D    
C26   H10   S    
C7    H103  S    
C28   H16   S    
N9    Ni6   S    
C74   H74   S    
N36   H124  S    
N37   H125  S    
C37   H43   S    
C38   H44   S    
C60   C99   S    
C75   H71   S    
C85   C91   S    
S5    O13   D    
C84   H88   S    
C66   H66   S    
C8    C20   A    
C49   C65   S    
C34   C40   S    
S3    O8    D    
S4    O11   D    
C91   N37   S    
C10   C17   A    
C53   N33   S    
C94   N14   A    
C42   H30   S    
C43   H27   S    
C23   C27   S    
S1    O1    D    
C76   C88   S    
C52   C68   S    
N3    Ni3   S    
N27   Ni8   S    
C110  N22   A    
N3    N8    A    
S7    O21   S    
C82   H78   S    
C58   C97   S    
C85   C87   S    
C27   C34   S    
C6    C18   A    
C63   C67   S    
C22   C31   S    
C1    C97   A    
C27   H11   S    
C68   H68   S    
C35   N5    A    
C31   C103  S    
C20   C64   S    
N26   Ni5   S    
C41   H29   S    
N2    Ni2   S    
C50   H38   S    
C29   H18   S    
C44   H32   S    
C29   C39   S    
C77   N9    A    
O6    H114  S    
C30   C40   S    
C54   H50   S    
C50   C66   S    
S8    O23   D    
C56   C70   S    
C4    C100  A    
C83   H87   S    
C86   H92   S    
C66   H46   S    
C95   C104  A    
C10   H106  S    
C54   C58   S    
S5    O15   S    
C61   C69   S    
C112  N24   A    
C83   C90   S    
N23   N24   A    
N2    N5    A    
C49   H37   S    
C50   H62   S    
N34   H119  S    
N1    Ni1   S    
C29   C31   S    
C86   C92   S    
C30   C32   S    
C53   H49   S    
C48   H36   S    
C84   H80   S    
C64   C72   S    
O18   H134  S    
S1    O3    S    
C109  N21   A    
C75   C88   S    
C54   C72   S    
C2    C98   A    
C36   N6    A    
C109  S5    S    
C110  S6    S    
C18   C62   S    
C76   H72   S    
C15   C33   S    
