data_mof_unit_24236.cif
_audit_creation_date              2012-12-11T17:45:30-0500
_audit_creation_method            fapswitch 2.2
_symmetry_space_group_name_H-M    P1
_symmetry_Int_Tables_number       1
_space_group_crystal_system       triclinic
_cell_length_a                    14.986738
_cell_length_b                    14.911946
_cell_length_c                    15.098987
_cell_angle_alpha                 110.242365
_cell_angle_beta                  109.171209
_cell_angle_gamma                 109.140249
_cell_volume                      2592.83376496

loop_
_atom_site_label
_atom_site_type_symbol
_atom_type_description
_atom_site_fract_x
_atom_site_fract_y
_atom_site_fract_z
_atom_type_partial_charge
C1    C     C_R   0.973546 0.248796 0.062270 -0.124197
C2    C     C_R   0.705622 0.193487 0.794843 -0.135362
C3    C     C_R   0.776648 0.591913 0.025681 -0.143915
C4    C     C_R   0.315197 0.759975 0.225187 -0.132114
C5    C     C_R   0.941083 0.409385 0.685437 -0.136913
C6    C     C_R   0.674413 0.499234 0.949904 -0.008660
C7    C     C_R   0.958226 0.504043 0.678932 0.041168
C8    C     C_R   0.705042 0.127571 0.703195 0.067001
C9    C     C_R   0.064696 0.870714 0.074926 0.068421
C10   C     C_R   0.612984 0.265750 0.093712 -0.118374
C11   C     C_R   0.691895 0.353867 0.198798 -0.153372
C12   C     C_R   0.324606 0.790023 0.327928 0.052465
C13   C     C_R   0.741510 0.334232 0.281446 0.117873
C14   C     C_R   0.703374 0.224728 0.258859 -0.161653
C15   C     C_R   0.620313 0.136999 0.154723 -0.119105
C16   C     C_R   0.208180 0.408342 0.902758 -0.146511
C17   C     C_R   0.576263 0.157560 0.071844 -0.091591
C18   C     C_R   0.848159 0.430670 0.484021 -0.250958
C19   C     C_R   0.942224 0.513661 0.583865 0.075763
C20   C     C_R   0.025570 0.599749 0.589954 0.015468
C21   C     C_R   0.014619 0.597284 0.495660 -0.249830
C22   C     C_R   0.926669 0.509237 0.395064 0.066116
C23   C     C_R   0.299818 0.499683 0.931400 -0.010097
C24   C     C_R   0.838986 0.426693 0.387557 0.025256
C25   C     C_R   0.154469 0.791454 0.750740 -0.203593
C26   C     C_R   0.255879 0.870192 0.844330 -0.111883
C27   C     C_R   0.337771 0.843566 0.874027 -0.106639
C28   C     C_R   0.996884 0.592477 0.299000 -0.165637
C29   C     C_R   0.318749 0.738548 0.810207 -0.120750
C30   C     C_R   0.216689 0.658427 0.718211 -0.127738
C31   C     C_R   0.133449 0.684160 0.688551 0.119028
C32   C     C_R   0.254458 0.042416 0.534693 -0.128950
C33   C     C_R   0.330802 0.013955 0.520930 -0.127252
C34   C     C_R   0.941700 0.502055 0.303769 0.060831
C35   C     C_R   0.341051 0.930972 0.539629 0.108219
C36   C     C_R   0.275579 0.878272 0.574238 -0.184154
C37   C     C_R   0.195151 0.902855 0.581781 -0.117430
C38   C     C_R   0.185270 0.985472 0.563047 -0.119807
C39   C     C_R   0.526387 0.972985 0.628006 -0.228555
C40   C     C_R   0.299601 0.591333 0.995443 -0.137912
C41   C     C_R   0.622459 0.010239 0.623720 0.049867
C42   C     C_R   0.622740 0.946939 0.529131 0.031093
C43   C     C_R   0.523012 0.865406 0.435082 -0.245411
C44   C     C_R   0.425321 0.853146 0.433205 0.068971
C45   C     C_R   0.686043 0.407238 0.933419 -0.140896
C46   C     C_R   0.427872 0.908199 0.532394 0.016469
C47   C     C_R   0.739331 0.007027 0.452534 -0.204272
C48   C     C_R   0.843191 0.055216 0.465129 -0.115459
C49   C     C_R   0.930766 0.063293 0.545269 -0.111461
C50   C     C_R   0.914298 0.021837 0.611942 -0.138732
C51   C     C_R   0.811332 0.976005 0.601632 -0.146471
C52   C     C_R   0.911772 0.409211 0.211724 -0.136076
C53   C     C_R   0.723839 0.971139 0.523780 0.122138
C54   C     C_3   0.470421 0.387280 0.841048 -0.401382
C55   C     C_3   0.366682 0.389155 0.833779 -0.416048
C56   C     C_R   0.022311 0.593151 0.782446 -0.106822
C57   C     C_3   0.574039 0.519093 0.044884 -0.401245
C58   C     C_3   0.564074 0.591538 0.915383 -0.395576
C59   C     C_3   0.572596 0.499120 0.936502 0.399184
C60   C     C_3   0.396631 0.499736 0.927672 0.406015
C61   C     C_3   0.470571 0.518012 0.039084 -0.389591
C62   C     C_3   0.460112 0.592759 0.911516 -0.411576
C63   C     C_R   0.178363 0.059478 0.811668 -0.136954
C64   C     C_R   0.220467 0.752143 0.313362 -0.121798
C65   C     C_R   0.136331 0.058202 0.881129 -0.193056
C66   C     C_R   0.200201 0.138785 0.992178 0.113473
C67   C     C_R   0.793319 0.195101 0.701654 -0.145411
C68   C     C_R   0.305955 0.220982 0.032874 -0.149238
C69   C     C_R   0.347377 0.221518 0.962580 -0.139962
C70   C     C_R   0.284483 0.139969 0.852461 -0.111281
C71   C     C_R   0.171013 0.043615 0.087972 -0.230690
C72   C     C_R   0.100821 0.989208 0.116884 0.056523
C73   C     C_R   0.052821 0.043864 0.164718 0.024260
C74   C     C_R   0.061328 0.138404 0.162121 -0.240428
C75   C     C_R   0.098045 0.167029 0.096393 0.060743
C76   C     C_R   0.067777 0.252001 0.973715 -0.141451
C77   C     C_R   0.161681 0.124219 0.066254 0.026887
C78   C     C_R   0.000858 0.802318 0.097334 -0.144793
C79   C     C_R   0.865835 0.949842 0.135769 -0.151436
C80   C     C_R   0.794498 0.896759 0.164699 -0.158092
C81   C     C_R   0.835416 0.889414 0.257799 -0.100564
C82   C     C_R   0.947974 0.941072 0.325710 -0.119249
C83   C     C_R   0.019931 0.998747 0.299819 -0.188167
C84   C     C_R   0.978917 0.998278 0.201666 0.117139
C85   C     C_R   0.051641 0.223248 0.048023 0.057535
C86   C     C_R   0.094831 0.807436 0.010599 -0.150162
H1    H     H_    0.938772 0.236361 0.111877 0.092668
H2    H     H_    0.582524 0.281269 0.028460 0.093677
H3    H     H_    0.719150 0.437211 0.213918 0.112946
H4    H     H_    0.379845 0.775836 0.205700 0.089915
H5    H     H_    0.592414 0.053006 0.137566 0.099200
H6    H     H_    0.783991 0.367125 0.481390 0.129003
H7    H     H_    0.082930 0.658924 0.501114 0.130055
H8    H     H_    0.271158 0.951618 0.894456 0.137867
H9    H     H_    0.416121 0.904131 0.946430 0.092555
H10   H     H_    0.383617 0.719990 0.832337 0.099815
H11   H     H_    0.202543 0.576793 0.669984 0.106606
H12   H     H_    0.044804 0.677723 0.808026 0.116249
H13   H     H_    0.125106 0.006572 0.572083 0.092635
H14   H     H_    0.176850 0.323085 0.845405 0.099426
H15   H     H_    0.249298 0.108882 0.523847 0.102765
H16   H     H_    0.383630 0.058042 0.498059 0.111689
H17   H     H_    0.284400 0.815974 0.591470 0.126699
H18   H     H_    0.140765 0.858383 0.602641 0.114961
H19   H     H_    0.524575 0.013376 0.701590 0.124857
H20   H     H_    0.522566 0.818994 0.361525 0.122726
H21   H     H_    0.673235 0.005464 0.393113 0.115285
H22   H     H_    0.856156 0.088046 0.413980 0.127838
H23   H     H_    0.825405 0.173532 0.648963 0.133826
H24   H     H_    0.011458 0.102161 0.556015 0.100983
H25   H     H_    0.981938 0.028821 0.674262 0.115254
H26   H     H_    0.019084 0.676753 0.350139 0.106836
H27   H     H_    0.801054 0.949808 0.657871 0.112161
H28   H     H_    0.470208 0.318285 0.853801 0.143697
H29   H     H_    0.469464 0.370433 0.762860 0.157867
H30   H     H_    0.318187 0.318392 0.837788 0.163979
H31   H     H_    0.582096 0.455146 0.063093 0.148316
H32   H     H_    0.426782 0.452539 0.052782 0.162256
H33   H     H_    0.635922 0.673370 0.980485 0.150202
H34   H     H_    0.975473 0.822185 0.155995 0.130941
H35   H     H_    0.561682 0.577601 0.837123 0.157082
H36   H     H_    0.407455 0.579018 0.831047 0.151903
H37   H     H_    0.355374 0.676589 0.026536 0.087331
H38   H     H_    0.483816 0.675035 0.975620 0.142432
H39   H     H_    0.645381 0.600216 0.114014 0.156272
H40   H     H_    0.493157 0.598035 0.106417 0.151455
H41   H     H_    0.317751 0.139653 0.798778 0.123103
H42   H     H_    0.129111 0.996112 0.727000 0.106583
H43   H     H_    0.055270 0.992701 0.849259 0.118777
H44   H     H_    0.356798 0.282403 0.118773 0.117201
H45   H     H_    0.155017 0.836540 0.988069 0.101439
H46   H     H_    0.428281 0.284971 0.993500 0.113268
H47   H     H_    0.218825 0.011157 0.062928 0.125382
H48   H     H_    0.023968 0.178398 0.198567 0.126489
H49   H     H_    0.859823 0.324279 0.184808 0.113813
H50   H     H_    0.833112 0.950942 0.060877 0.114242
H51   H     H_    0.707502 0.859579 0.113947 0.107024
H52   H     H_    0.779952 0.844961 0.278137 0.117758
H53   H     H_    0.979083 0.934855 0.397417 0.119285
H54   H     H_    0.106724 0.036411 0.351146 0.118465
H55   H     H_    0.194932 0.752015 0.371629 0.119749
H56   H     H_    0.659356 0.167205 0.831495 0.087390
H57   H     H_    0.122953 0.247464 0.944134 0.126953
H58   H     H_    0.624009 0.321385 0.883616 0.093959
H59   H     H_    0.740387 0.206826 0.320420 0.105565
H60   H     H_    0.091070 0.812506 0.728674 0.112889
H61   H     H_    0.316352 0.377888 0.753615 0.153635
H62   H     H_    0.796508 0.677016 0.062887 0.110157
H63   H     H_    0.895530 0.324935 0.619159 0.102871
H64   H     H_    0.514777 0.089956 0.990240 0.102615
N1    N     N_R   0.947080 0.293830 0.002870 -0.041394
N2    N     N_R   0.153670 0.443180 0.946090 -0.036638
N3    N     N_R   0.002360 0.556820 0.208890 -0.038947
N4    N     N_R   0.210070 0.556820 0.002870 -0.033711
N5    N     N_R   0.945960 0.443180 0.152110 -0.039774
N6    N     N_R   0.151710 0.706170 0.208890 -0.042879
N7    N     N_R   0.004320 0.293830 0.946090 -0.041625
N8    N     N_R   0.789930 0.443180 0.997130 -0.035232
N9    N     N_R   0.054040 0.556820 0.847890 -0.040409
N10   N     N_R   0.848290 0.293830 0.791110 -0.041956
N11   N     N_R   0.995680 0.706170 0.053910 -0.041108
N12   N     N_R   0.052920 0.706170 0.997130 -0.041488
N13   N     N_R   0.791050 0.293830 0.847890 -0.038744
N14   N     N_R   0.846330 0.556820 0.053910 -0.036472
N15   N     N_R   0.997640 0.443180 0.791110 -0.040115
N16   N     N_R   0.208950 0.706170 0.152110 -0.039835
Ni1   Ni    Ni4+2 0.869690 0.369690 0.000000 0.211578
Ni2   Ni    Ni4+2 0.130310 0.630310 0.000000 0.217575
Ni3   Ni    Ni4+2 0.000970 0.369690 0.869780 0.215525
Ni4   Ni    Ni4+2 0.999030 0.630310 0.130220 0.213596

loop_
_geom_bond_atom_site_label_1
_geom_bond_atom_site_label_2
_ccdc_geom_bond_type
C70   H41   S    
C25   C31   A    
C66   C68   A    
C63   C65   A    
C58   C62   S    
C6    C45   A    
C27   C29   A    
C71   C77   A    
C41   C42   A    
N14   Ni4   S    
C17   H64   S    
C9    C72   S    
C56   H12   S    
C3    C6    A    
N4    Ni2   S    
C62   H38   S    
N11   N12   A    
C39   C41   A    
C48   H22   S    
C28   H26   S    
C52   N5    A    
C79   H50   S    
C30   H11   S    
C10   H2    S    
C26   C27   A    
C29   C30   A    
C36   H17   S    
C18   C24   A    
N1    N7    A    
C36   C37   A    
C56   N9    A    
C32   C38   A    
C42   C53   S    
C57   H39   S    
C79   C84   A    
C12   C64   A    
C86   H45   S    
C57   C59   S    
C55   H30   S    
C10   C17   A    
C23   C40   A    
C74   H48   S    
C5    H63   S    
N9    Ni2   S    
C60   C62   S    
C18   C19   A    
C73   C74   A    
C1    H1    S    
C66   C77   S    
C50   H25   S    
C13   C14   A    
N7    Ni3   S    
C27   H9    S    
C75   C85   S    
C35   C36   A    
N5    Ni1   S    
C68   C69   A    
N3    Ni4   S    
C45   H58   S    
N10   Ni3   S    
C67   N10   A    
C86   N12   A    
C5    N15   A    
C4    C12   A    
C73   C84   S    
C63   H42   S    
N8    N14   A    
C47   C53   A    
C28   C34   A    
C3    H62   S    
C21   C22   A    
N16   Ni2   S    
C40   N4    A    
C23   C60   S    
C7    C56   A    
C83   H54   S    
C44   C46   A    
N8    Ni1   S    
C81   C82   A    
C4    H4    S    
C54   C59   S    
N15   Ni3   S    
C81   H52   S    
C22   C34   S    
C2    C8    A    
C76   N7    A    
C74   C75   A    
C33   H16   S    
N10   N13   A    
C8    C41   S    
C72   C73   A    
C5    C7    A    
C38   H13   S    
C25   C26   A    
N9    N15   A    
C13   C24   S    
C60   C61   S    
C51   C53   A    
C43   H20   S    
C78   H34   S    
C43   C44   A    
C37   C38   A    
C9    C86   A    
C37   H18   S    
C11   H3    S    
C55   H61   S    
C47   C48   A    
C14   H59   S    
C63   C70   A    
N6    N16   A    
N13   Ni1   S    
C54   H29   S    
C82   H53   S    
C50   C51   A    
C16   N2    A    
C51   H27   S    
C68   H44   S    
C75   C77   A    
C25   H60   S    
C3    N14   A    
C8    C67   A    
C39   C46   A    
N12   Ni2   S    
N11   Ni4   S    
C48   C49   A    
N2    N4    A    
C65   C66   A    
C16   C23   A    
C7    C19   S    
C26   H8    S    
C28   N3    A    
C2    H56   S    
C49   C50   A    
C22   C24   A    
C83   C84   A    
C1    C85   A    
N3    N5    A    
C42   C43   A    
C62   H36   S    
C57   H31   S    
C15   C17   A    
C40   H37   S    
C54   C55   S    
C58   H35   S    
C61   H32   S    
C14   C15   A    
C34   C52   A    
C6    C59   S    
C16   H14   S    
C45   N8    A    
C39   H19   S    
C80   C81   A    
C2    N13   A    
C71   H47   S    
C29   H10   S    
C65   H43   S    
C57   C61   S    
C64   N6    A    
C47   H21   S    
C18   H6    S    
C32   C33   A    
C19   C20   A    
C58   C59   S    
C71   C72   A    
C12   C44   S    
N2    Ni3   S    
C11   C13   A    
C67   H23   S    
C30   C31   A    
C21   H7    S    
C69   H46   S    
N1    Ni1   S    
C54   H28   S    
N6    Ni4   S    
C58   H33   S    
C33   C35   A    
C4    N16   A    
C1    N1    A    
C9    C78   A    
C69   C70   A    
C10   C11   A    
C15   H5    S    
C79   C80   A    
C76   H57   S    
C61   H40   S    
C20   C21   A    
C78   N11   A    
C82   C83   A    
C64   H55   S    
C52   H49   S    
C32   H15   S    
C55   C60   S    
C35   C46   S    
C76   C85   A    
C80   H51   S    
C49   H24   S    
C20   C31   S    
