data_mof_unit_30005.cif
_audit_creation_date              2012-12-11T15:55:36-0500
_audit_creation_method            fapswitch 2.2
_symmetry_space_group_name_H-M    P1
_symmetry_Int_Tables_number       1
_space_group_crystal_system       triclinic
_cell_length_a                    6.946471
_cell_length_b                    14.576442
_cell_length_c                    16.113089
_cell_angle_alpha                 90.205186
_cell_angle_beta                  90.534486
_cell_angle_gamma                 89.648214
_cell_volume                      1631.41624376

loop_
_atom_site_label
_atom_site_type_symbol
_atom_type_description
_atom_site_fract_x
_atom_site_fract_y
_atom_site_fract_z
_atom_type_partial_charge
O1    O     O_R   0.505680 0.583900 0.413320 -0.541265
O2    O     O_R   0.176010 0.594950 0.586080 -0.552082
O3    O     O_R   0.005680 0.416100 0.586680 -0.550539
C1    C     C_R   0.346064 0.619789 0.612906 0.669162
O4    O     O_R   0.175960 0.594930 0.413930 -0.513581
O5    O     O_R   0.005640 0.416080 0.413300 -0.539333
C2    C     C_R   0.344472 0.619130 0.386553 0.741514
O6    O     O_R   0.505720 0.583920 0.586700 -0.512306
O7    O     O_3   0.339190 0.441320 0.500000 -0.388790
V1    V     V_3+5 0.064350 0.510890 0.500000 1.433538
O8    O     O_R   0.675920 0.405050 0.413920 -0.544516
C3    C     C_R   0.844833 0.382557 0.385202 0.694434
O9    O     O_R   0.675960 0.405070 0.586070 -0.552223
C4    C     C_R   0.846282 0.384636 0.616140 0.666911
V2    V     V_3+5 0.564340 0.489110 0.500000 1.408955
O10   O     O_3   0.839370 0.558680 0.500000 -0.348472
C5    C     C_R   0.977501 0.327439 0.756269 -0.128037
C6    C     C_R   0.859817 0.316768 0.684824 -0.101638
C7    C     C_R   0.745074 0.236604 0.682688 -0.127429
C8    C     C_R   0.753095 0.171099 0.747861 -0.143323
C9    C     C_R   0.870450 0.185476 0.818875 -0.066380
C10   C     C_R   0.969042 0.267794 0.821779 -0.074379
C11   C     C_3   0.084204 0.323638 0.880980 0.295042
C12   C     C_3   0.112714 0.389163 0.807380 0.768496
H1    H     H_    0.219001 0.289344 0.903376 0.066400
C13   C     C_R   0.046880 0.222495 0.219591 -0.176064
H2    H     H_    0.187369 0.203869 0.196098 0.116362
C14   C     C_R   0.035452 0.286728 0.284251 -0.145686
C15   C     C_R   0.856082 0.313498 0.316881 -0.047766
C16   C     C_R   0.688506 0.274005 0.283059 -0.156570
C17   C     C_R   0.699939 0.209820 0.218345 -0.159730
H3    H     H_    0.567560 0.181084 0.193951 0.116321
C18   C     C_R   0.879260 0.183340 0.185523 -0.061312
C19   C     C_R   0.193599 0.712396 0.726681 -0.203262
H4    H     H_    0.056627 0.681395 0.711861 0.193391
C20   C     C_R   0.202825 0.775509 0.792221 -0.138586
C21   C     C_R   0.379104 0.815015 0.816028 -0.107099
C22   C     C_R   0.545456 0.790231 0.772328 -0.240894
C23   C     C_R   0.536536 0.729233 0.704701 0.466618
C24   C     C_R   0.359132 0.688226 0.681855 -0.140415
C25   C     C_R   0.188477 0.734690 0.288131 0.507138
C26   C     C_R   0.202278 0.792031 0.218554 -0.285316
C27   C     C_R   0.381580 0.819939 0.188352 -0.244902
C28   C     C_R   0.548181 0.789873 0.231394 0.508577
C29   C     C_R   0.534340 0.720835 0.291782 -0.290365
C30   C     C_R   0.354857 0.691368 0.320764 -0.248621
O11   O     O_R   0.229200 0.915950 0.913350 -0.542056
O12   O     O_R   0.559090 0.905000 0.086080 -0.512092
O13   O     O_R   0.729280 0.083880 0.086680 -0.542883
C31   C     C_R   0.391108 0.884456 0.116378 0.745040
O14   O     O_R   0.558920 0.904980 0.913920 -0.544451
O15   O     O_R   0.729110 0.083860 0.913300 -0.538645
C32   C     C_R   0.389682 0.882680 0.885196 0.713845
O16   O     O_R   0.229360 0.915970 0.086730 -0.543301
O17   O     O_3   0.395680 0.058580 0.000030 -0.377755
V3    V     V_3+5 0.670570 0.989070 0.999990 1.444972
O18   O     O_R   0.058820 0.094950 0.913870 -0.546392
C33   C     C_R   0.887943 0.116844 0.885613 0.675590
O19   O     O_R   0.058990 0.094970 0.086020 -0.549454
C34   C     C_R   0.890379 0.115556 0.116200 0.657079
V4    V     V_3+5 0.170560 0.010930 0.999930 1.402016
O20   O     O_3   0.895590 0.941310 0.999960 -0.359048
H5    H     H_    0.651341 0.223663 0.629904 0.105102
H6    H     H_    0.071757 0.792411 0.824943 0.138294
H7    H     H_    0.683557 0.819001 0.789698 0.130945
O21   O     O_3   0.704614 0.705920 0.664420 -0.556947
C35   C     C_3   0.749302 0.776208 0.608073 -0.266771
H8    H     H_    0.882644 0.756440 0.575044 0.161248
H9    H     H_    0.632958 0.785096 0.560706 0.115124
H10   H     H_    0.778126 0.842219 0.640652 0.118023
O22   O     O_3   0.011411 0.723561 0.324455 -0.535175
C36   C     C_3   0.000383 0.784151 0.393049 -0.205204
H11   H     H_    0.028561 0.856409 0.374910 0.104903
H12   H     H_    0.102333 0.764122 0.443470 0.107704
H13   H     H_    0.853153 0.781312 0.418807 0.134507
H14   H     H_    0.071972 0.818006 0.190242 0.218908
O23   O     O_3   0.725269 0.828492 0.216675 -0.536360
C37   C     C_3   0.734661 0.913099 0.259860 -0.202091
H15   H     H_    0.631606 0.964425 0.234103 0.112559
H16   H     H_    0.881052 0.941881 0.253021 0.134662
H17   H     H_    0.707174 0.904499 0.327316 0.102962
H18   H     H_    0.664502 0.692946 0.318677 0.218056
H19   H     H_    0.668306 0.109226 0.742451 0.102363
O24   O     O_3   0.969703 0.365875 0.942689 -0.533628
C38   C     C_3   0.959234 0.309674 0.013126 -0.159908
H20   H     H_    0.103610 0.285965 0.034966 0.115750
H21   H     H_    0.862697 0.251052 0.000438 0.115227
H22   H     H_    0.894462 0.350122 0.064311 0.169849
O25   O     O_3   0.308577 0.382394 0.784971 -0.592206
C39   C     C_3   0.340789 0.424419 0.708473 -0.133028
H23   H     H_    0.485229 0.456028 0.710791 0.144283
H24   H     H_    0.235647 0.479535 0.694646 0.141223
H25   H     H_    0.337657 0.371682 0.658695 0.150318
O26   O     O_3   0.059598 0.481482 0.828052 -0.534562
C40   C     C_3   0.874226 0.507377 0.800027 -0.186360
H26   H     H_    0.762106 0.458839 0.821130 0.172351
H27   H     H_    0.871947 0.515345 0.731671 0.112271
H28   H     H_    0.838726 0.575494 0.826923 0.175739
H29   H     H_    0.167848 0.315557 0.308528 0.119659
H30   H     H_    0.547968 0.292764 0.306418 0.115764

loop_
_geom_bond_atom_site_label_1
_geom_bond_atom_site_label_2
_ccdc_geom_bond_type
O17   V3    S    
C3    C15   S    
C25   C26   A    
C4    C6    S    
C20   H6    S    
C40   H26   S    
C1    O6    A    
C12   O25   S    
O18   C33   A    
C40   H28   S    
O23   C37   S    
C13   H2    S    
C31   O16   A    
O13   C34   A    
C19   C24   A    
C28   O23   S    
C21   C22   A    
O14   V3    S    
O5    C3    A    
C16   C17   A    
C37   H16   S    
C29   H18   S    
V2    O10   S    
C16   H30   S    
C19   H4    S    
O8    V2    S    
C1    C24   S    
C7    H5    S    
C25   C30   A    
C17   C18   A    
O1    V2    S    
O7    V1    S    
O11   C32   A    
C21   C32   S    
O12   C31   A    
O21   C35   S    
O19   C34   A    
O9    C4    A    
V4    O20   S    
C36   H13   S    
C38   H21   S    
O19   V4    S    
C5    C12   S    
C11   O24   S    
C35   H8    S    
C2    C30   S    
O24   C38   S    
C36   H12   S    
C23   C24   A    
O4    C2    A    
C37   H15   S    
C6    C7    A    
C38   H20   S    
C35   H9    S    
O2    C1    A    
C27   C28   A    
O11   V4    S    
C15   C16   A    
C12   O26   S    
C13   C18   A    
C39   H24   S    
C17   H3    S    
C22   H7    S    
C11   C12   S    
C5    C6    A    
O3    C4    A    
O15   C33   A    
C14   H29   S    
O6    V2    S    
O9    V2    S    
C23   O21   S    
V3    O20   S    
C26   C27   A    
O2    V1    S    
C28   C29   A    
C39   H25   S    
C38   H22   S    
O12   V3    S    
C14   C15   A    
O1    C2    A    
C26   H14   S    
C36   H11   S    
O5    V1    S    
O8    C3    A    
C40   H27   S    
C27   C31   S    
O18   V4    S    
O16   V4    S    
C18   C34   S    
O13   V3    S    
C13   C14   A    
C5    C10   A    
C25   O22   S    
C35   H10   S    
C7    C8    A    
O7    V2    S    
C9    C33   S    
O3    V1    S    
V1    O10   S    
C37   H17   S    
C39   H23   S    
C22   C23   A    
O17   V4    S    
C19   C20   A    
C11   H1    S    
O26   C40   S    
C29   C30   A    
O4    V1    S    
O22   C36   S    
C8    C9    A    
C20   C21   A    
C8    H19   S    
C10   C11   S    
O14   C32   A    
O25   C39   S    
C9    C10   A    
O15   V3    S    
