data_mof_unit_36866.cif
_audit_creation_date              2012-12-10T20:31:04-0500
_audit_creation_method            fapswitch 2.2
_symmetry_space_group_name_H-M    P1
_symmetry_Int_Tables_number       1
_space_group_crystal_system       triclinic
_cell_length_a                    15.009183
_cell_length_b                    10.676379
_cell_length_c                    9.85094
_cell_angle_alpha                 89.955515
_cell_angle_beta                  89.841171
_cell_angle_gamma                 90.074117
_cell_volume                      1578.54346596

loop_
_atom_site_label
_atom_site_type_symbol
_atom_type_description
_atom_site_fract_x
_atom_site_fract_y
_atom_site_fract_z
_atom_type_partial_charge
C1    C     C_R   0.502674 0.259902 0.500064 0.882728
C2    C     C_R   0.907147 0.524902 0.376999 0.047519
C3    C     C_R   0.953308 0.448854 0.739946 -0.200862
C4    C     C_R   0.045764 0.448152 0.739470 -0.163895
C5    C     C_R   0.092284 0.473843 0.619276 0.129001
C6    C     C_R   0.046295 0.499881 0.497611 0.006543
C7    C     C_R   0.093003 0.525964 0.375827 0.023646
C8    C     C_R   0.045969 0.550757 0.254989 0.382222
C9    C     C_R   0.953302 0.549904 0.256530 -0.260470
C10   C     C_R   0.184296 0.473721 0.618880 -0.232251
C11   C     C_R   0.230618 0.500291 0.499393 -0.102363
C12   C     C_R   0.326563 0.500091 0.500027 0.898086
C13   C     C_R   0.185509 0.526589 0.378728 -0.197041
C14   C     C_R   0.515807 0.063733 0.623305 0.139795
C15   C     C_R   0.516866 0.128548 0.500673 -0.103108
C16   C     C_R   0.535092 0.064916 0.379204 -0.219916
C17   C     C_R   0.535296 0.935375 0.379169 -0.218534
C18   C     C_R   0.517241 0.871409 0.500594 -0.102289
C19   C     C_R   0.516083 0.935975 0.623289 0.121669
C20   C     C_3   0.451684 0.928306 0.739093 -0.458745
C21   C     C_3   0.451182 0.070264 0.738850 -0.489757
C22   C     C_R   0.459669 0.405108 0.071683 0.200458
C23   C     C_R   0.502885 0.740067 0.499951 0.886097
C24   C     C_R   0.546765 0.587089 0.071746 -0.126334
C25   C     C_R   0.546797 0.587073 0.927658 -0.129241
C26   C     C_R   0.459264 0.405492 0.928968 0.207375
C27   C     C_3   0.362686 0.372975 0.925092 -0.503470
C28   C     C_3   0.363642 0.370556 0.078942 -0.469153
C29   C     C_R   0.673386 0.500104 0.499799 0.885383
C30   C     C_R   0.814947 0.524660 0.378363 -0.225647
C31   C     C_R   0.769207 0.500031 0.499296 -0.070222
C32   C     C_R   0.814936 0.475125 0.619696 -0.253729
C33   C     C_R   0.907088 0.474511 0.619995 0.124495
C34   C     C_R   0.953549 0.499761 0.498139 0.064477
H1    H     H_    0.778916 0.544504 0.285489 0.159244
H2    H     H_    0.543273 0.886435 0.283606 0.166584
H3    H     H_    0.386667 0.886368 0.709666 0.213077
H4    H     H_    0.482535 0.887586 0.831604 0.202366
H5    H     H_    0.385928 0.110816 0.708755 0.201872
H6    H     H_    0.481512 0.111664 0.831394 0.203927
H7    H     H_    0.583103 0.658790 0.125981 0.139884
H8    H     H_    0.583164 0.658749 0.873003 0.146096
H9    H     H_    0.321667 0.450558 0.883997 0.228441
H10   H     H_    0.350221 0.279683 0.879139 0.195886
H11   H     H_    0.321908 0.445102 0.125146 0.236020
H12   H     H_    0.778955 0.455326 0.712952 0.161604
H13   H     H_    0.353530 0.275345 0.122083 0.200953
H14   H     H_    0.918013 0.429213 0.833729 0.156450
H15   H     H_    0.080902 0.427721 0.832847 0.192277
H16   H     H_    0.219640 0.452121 0.711452 0.157981
H17   H     H_    0.222973 0.548398 0.287824 0.204585
H18   H     H_    0.917327 0.568894 0.163470 0.177573
H19   H     H_    0.542951 0.114069 0.283646 0.170633
N1    N     N_R   0.499390 0.499140 0.142800 -0.106001
N2    N     N_R   0.499390 0.499180 0.857150 -0.105632
O1    O     O_R   0.500010 0.316790 0.614690 -0.618101
O2    O     O_R   0.500000 0.316760 0.385350 -0.623981
O3    O     O_R   0.367850 0.499990 0.614680 -0.621334
O4    O     O_R   0.367840 0.499950 0.385340 -0.624840
O5    O     O_R   0.500000 0.683240 0.614650 -0.620373
O6    O     O_R   0.499990 0.683210 0.385310 -0.624842
O7    O     O_R   0.632160 0.500050 0.614660 -0.626818
O8    O     O_R   0.632150 0.500010 0.385320 -0.628538
Zn1   Zn    Zn3+2 0.500010 0.500020 0.653130 0.949209
Zn2   Zn    Zn3+2 0.499990 0.499980 0.346870 0.948907
Cl1   Cl    Cl    0.099751 0.582656 0.099242 -0.685573

loop_
_geom_bond_atom_site_label_1
_geom_bond_atom_site_label_2
_ccdc_geom_bond_type
C25   H8    S    
C2    C9    A    
C7    C13   A    
C11   C12   S    
O1    Zn1   S    
C28   H13   S    
C8    Cl1   S    
C6    C7    A    
C1    C15   S    
C17   H2    S    
C1    O2    A    
C20   H4    S    
C19   C20   S    
C21   H5    S    
O5    Zn1   S    
C4    H15   S    
C2    C30   A    
C12   O3    A    
N2    Zn1   S    
C2    C34   A    
O8    Zn2   S    
C17   C18   A    
C24   C25   A    
C5    C10   A    
C22   N1    A    
N1    Zn2   S    
C22   C28   S    
C4    C5    A    
C32   C33   A    
C20   H3    S    
C11   C13   A    
C30   C31   A    
C26   C27   S    
C5    C6    A    
C9    H18   S    
C24   H7    S    
C30   H1    S    
C15   C16   A    
C14   C19   A    
C14   C21   S    
C29   O8    A    
C26   N2    A    
C33   C34   A    
O6    Zn2   S    
O3    Zn1   S    
C23   O5    A    
C28   H11   S    
C7    C8    A    
C10   C11   A    
C3    C33   A    
C24   N1    A    
C18   C23   S    
C10   H16   S    
C27   H9    S    
C3    H14   S    
C23   O6    A    
C20   C21   S    
C6    C34   A    
C29   C31   S    
C18   C19   A    
C22   C26   A    
C27   C28   S    
C29   O7    A    
C16   C17   A    
O7    Zn1   S    
C14   C15   A    
C13   H17   S    
C12   O4    A    
C32   H12   S    
C27   H10   S    
C1    O1    A    
C31   C32   A    
O4    Zn2   S    
C3    C4    A    
C25   N2    A    
O2    Zn2   S    
C8    C9    A    
C16   H19   S    
C21   H6    S    
