data_mof_unit_43707.cif
_audit_creation_date              2012-12-10T17:01:27-0500
_audit_creation_method            fapswitch 2.2
_symmetry_space_group_name_H-M    P1
_symmetry_Int_Tables_number       1
_space_group_crystal_system       triclinic
_cell_length_a                    12.842209
_cell_length_b                    10.705539
_cell_length_c                    10.051389
_cell_angle_alpha                 89.573756
_cell_angle_beta                  97.879095
_cell_angle_gamma                 90.682362
_cell_volume                      1368.72650318

loop_
_atom_site_label
_atom_site_type_symbol
_atom_type_description
_atom_site_fract_x
_atom_site_fract_y
_atom_site_fract_z
_atom_type_partial_charge
C1    C     C_R   0.494436 0.262766 0.499583 0.951100
C2    C     C_2   0.473733 0.131984 0.498791 -0.390379
C3    C     C_2   0.543478 0.587916 0.931950 0.343022
C4    C     C_R   0.298503 0.503103 0.472852 0.861400
C5    C     C_2   0.563951 0.567376 0.083906 0.416151
C6    C     C_R   0.496870 0.737353 0.498534 0.935648
C7    C     C_R   0.701892 0.505175 0.527503 0.893186
C8    C     C_R   0.814507 0.520958 0.545674 -0.138622
C9    C     C_R   0.186291 0.508636 0.454698 -0.087438
C10   C     C_R   0.022612 0.416476 0.359584 -0.181526
C11   C     C_R   0.129788 0.428069 0.362658 -0.248607
C12   C     C_R   0.028686 0.566472 0.544669 0.035141
C13   C     C_R   0.135995 0.586065 0.538066 0.163110
C14   C     C_3   0.366287 0.351907 0.089632 -0.755761
C15   C     C_3   0.762699 0.781342 0.680437 -0.689574
C16   C     C_3   0.031963 0.827888 0.739057 -0.713415
C17   C     C_3   0.215398 0.791258 0.524196 -0.752149
C18   C     C_R   0.972704 0.481407 0.452509 0.095808
C19   C     C_R   0.867190 0.459910 0.454282 -0.275691
C20   C     C_R   0.868260 0.603426 0.641600 0.109199
C21   C     C_R   0.976223 0.624839 0.642651 0.183268
C22   C     C_2   0.452040 0.932909 0.385937 0.483176
C23   C     C_2   0.496773 0.870009 0.494843 -0.374127
C24   C     C_2   0.462616 0.068270 0.384219 -0.288816
H1    H     H_    0.824935 0.395584 0.382468 0.168217
H2    H     H_    0.348038 0.543081 0.103206 0.254112
H3    H     H_    0.347979 0.331402 0.192135 0.264020
H4    H     H_    0.427055 0.286136 0.065089 0.220816
H5    H     H_    0.293763 0.337026 0.017457 0.219040
H6    H     H_    0.771679 0.614973 0.791394 0.263094
H7    H     H_    0.699683 0.757248 0.598180 0.227659
H8    H     H_    0.818587 0.846061 0.639549 0.225867
H9    H     H_    0.728186 0.830059 0.760845 0.246396
H10   H     H_    0.020899 0.661471 0.845192 0.228306
H11   H     H_    0.110957 0.865676 0.778283 0.242981
H12   H     H_    0.463577 0.088861 0.594317 0.155982
H13   H     H_    0.974409 0.867402 0.799808 0.229678
H14   H     H_    0.012211 0.858522 0.632732 0.238634
H15   H     H_    0.252160 0.663188 0.681346 0.261786
H16   H     H_    0.252691 0.868066 0.588150 0.233378
H17   H     H_    0.142103 0.826809 0.465252 0.244393
H18   H     H_    0.270179 0.762340 0.454204 0.248124
H19   H     H_    0.372358 0.933257 0.207086 0.322937
H20   H     H_    0.492860 0.414558 0.894334 0.142515
H21   H     H_    0.979490 0.352128 0.288937 0.144107
H22   H     H_    0.169176 0.370628 0.296974 0.156136
H23   H     H_    0.539214 0.915320 0.582402 0.117811
H24   H     H_    0.463671 0.114719 0.287879 0.175629
H25   H     H_    0.588976 0.760591 0.948909 0.319271
H26   H     H_    0.699815 0.649992 0.095469 0.311832
N1    N     N_2   0.501130 0.501330 0.852280 -0.190352
N2    N     N_2   0.501160 0.501360 0.147950 -0.047258
N3    N     N_2   0.402182 0.479598 0.079207 -0.294953
N4    N     N_2   0.815391 0.669598 0.734442 -0.305787
N5    N     N_2   0.033085 0.692938 0.751242 -0.283977
N6    N     N_2   0.191505 0.687319 0.608151 -0.289961
O1    O     O_R   0.499980 0.319060 0.613040 -0.627880
O2    O     O_3   0.651731 0.619867 0.158163 -0.739653
O3    O     O_3   0.400630 0.870539 0.275305 -0.755120
O4    O     O_R   0.500020 0.319100 0.386900 -0.619274
O5    O     O_R   0.346340 0.499960 0.594380 -0.625348
O6    O     O_R   0.346380 0.500000 0.368250 -0.628019
O7    O     O_R   0.499980 0.680900 0.613100 -0.560215
O8    O     O_R   0.500020 0.680940 0.386960 -0.527873
O9    O     O_R   0.653620 0.500000 0.631750 -0.620598
O10   O     O_R   0.653660 0.500040 0.405620 -0.557102
O11   O     O_3   0.572460 0.698774 0.876009 -0.745782
Zn1   Zn    Zn3+2 0.499980 0.499970 0.650990 0.972716
Zn2   Zn    Zn3+2 0.500020 0.500030 0.349010 1.009609

loop_
_geom_bond_atom_site_label_1
_geom_bond_atom_site_label_2
_ccdc_geom_bond_type
C6    O7    A    
C15   N4    S    
C5    N2    D    
C15   H7    S    
C7    C8    S    
C1    O1    A    
C14   H3    S    
C7    O9    A    
H6    N4    S    
H15   N6    S    
O5    Zn1   S    
H19   O3    S    
C16   H13   S    
C13   N6    S    
O10   Zn2   S    
O9    Zn1   S    
C10   H21   S    
C17   H18   S    
C4    C9    S    
C16   N5    S    
H10   N5    S    
O8    Zn2   S    
C12   C13   A    
C7    O10   A    
C9    C11   A    
C17   N6    S    
C8    C20   A    
C12   C21   A    
C5    O2    S    
C10   C18   A    
C6    C23   S    
O4    Zn2   S    
H20   N1    S    
O1    Zn1   S    
C1    C2    S    
C22   C24   S    
N1    Zn1   S    
C16   H11   S    
C2    C24   D    
C19   H1    S    
C17   H17   S    
C8    C19   A    
C23   H23   S    
C10   C11   A    
C14   H5    S    
C12   C18   A    
C24   H24   S    
H2    N3    S    
C4    O6    A    
C15   H8    S    
C14   N3    S    
C2    H12   S    
N2    N3    S    
C20   N4    S    
C18   C19   A    
C1    O4    A    
C6    O8    A    
C22   O3    S    
C21   N5    S    
C3    N1    D    
O7    Zn1   S    
C11   H22   S    
C9    C13   A    
N2    Zn2   S    
H25   O11   S    
C14   H4    S    
C20   C21   A    
C22   C23   D    
C4    O5    A    
C15   H9    S    
C3    O11   S    
O6    Zn2   S    
C16   H14   S    
C3    C5    S    
C17   H16   S    
H26   O2    S    
