data_mof_unit_10665.cif
_audit_creation_date              2012-12-10T19:08:08-0500
_audit_creation_method            fapswitch 2.2
_symmetry_space_group_name_H-M    P1
_symmetry_Int_Tables_number       1
_space_group_crystal_system       triclinic
_cell_length_a                    9.075678
_cell_length_b                    10.858914
_cell_length_c                    9.56174
_cell_angle_alpha                 89.997836
_cell_angle_beta                  90.017132
_cell_angle_gamma                 90.696131
_cell_volume                      942.259072665

loop_
_atom_site_label
_atom_site_type_symbol
_atom_type_description
_atom_site_fract_x
_atom_site_fract_y
_atom_site_fract_z
_atom_type_partial_charge
C1    C     C_R   0.513303 0.262669 0.499500 0.799149
C2    C     C_R   0.538040 0.933321 0.371206 -0.214092
C3    C     C_R   0.522192 0.870898 0.498658 -0.131630
C4    C     C_R   0.544520 0.938559 0.620613 0.057700
C5    C     C_3   0.480797 0.936878 0.764308 -0.035608
C6    C     C_3   0.523002 0.074134 0.771690 0.255684
C7    C     C_R   0.628098 0.489402 0.073949 0.156673
C8    C     C_R   0.371541 0.500853 0.073979 -0.063208
C9    C     C_R   0.371532 0.500460 0.925725 -0.067820
C10   C     C_R   0.628556 0.491353 0.927442 0.144096
C11   C     C_3   0.765405 0.571093 0.924585 0.270342
C12   C     C_R   0.220721 0.500034 0.499912 0.857881
C13   C     C_3   0.761720 0.569906 0.083611 -0.478406
C14   C     C_R   0.502160 0.737851 0.500068 0.791378
C15   C     C_R   0.779262 0.499200 0.499841 0.815454
C16   C     C_1   0.065561 0.499988 0.499540 -0.209359
C17   C     C_1   0.934435 0.499692 0.499269 -0.228925
C18   C     C_R   0.570283 0.063413 0.620076 -0.035827
C19   C     C_R   0.544287 0.130092 0.496063 -0.149856
C20   C     C_R   0.548038 0.062409 0.367194 0.160162
Cu1   Cu    Cu3+1 0.499990 0.499980 0.640670 0.932816
Cu2   Cu    Cu3+1 0.500010 0.500020 0.359330 0.938590
H1    H     H_    0.856711 0.520915 0.130290 0.153659
H2    H     H_    0.737946 0.660769 0.131905 0.226978
H3    H     H_    0.534850 0.882259 0.273819 0.175478
H4    H     H_    0.542219 0.876540 0.837332 0.231160
H5    H     H_    0.430155 0.137747 0.792253 0.119829
H6    H     H_    0.267149 0.503396 0.127858 0.140798
H7    H     H_    0.267131 0.502485 0.871725 0.142031
H8    H     H_    0.862404 0.520310 0.885461 0.053930
N1    N     N_R   0.500920 0.500930 0.147930 -0.168445
N2    N     N_R   0.500930 0.500890 0.852020 -0.170764
O1    O     O_R   0.500000 0.319640 0.618810 -0.613904
O2    O     O_R   0.500020 0.319680 0.381230 -0.569413
O3    O     O_R   0.288380 0.499980 0.618770 -0.591985
O4    O     O_R   0.288400 0.500020 0.381190 -0.584871
O5    O     O_R   0.499980 0.680320 0.618770 -0.562836
O6    O     O_R   0.500000 0.680360 0.381190 -0.581723
O7    O     O_R   0.711600 0.499980 0.618810 -0.609298
O8    O     O_R   0.711620 0.500020 0.381230 -0.572113
C21   C     C_3   0.557593 0.121674 0.224300 -0.780081
H9    H     H_    0.651458 0.188218 0.220986 0.231027
H10   H     H_    0.577314 0.052696 0.140819 0.244871
H11   H     H_    0.452630 0.167971 0.198384 0.241483
O9    O     O_3   0.742727 0.691753 0.872490 -0.583464
C22   C     C_3   0.835470 0.718146 0.756457 0.120456
H12   H     H_    0.767946 0.713312 0.660593 0.184865
H13   H     H_    0.931138 0.655833 0.743743 0.116747
C23   C     C_3   0.897419 0.848607 0.765782 -0.387760
H14   H     H_    0.807908 0.912021 0.793828 0.269155
H15   H     H_    0.983452 0.853416 0.848386 0.219366
C24   C     C_3   0.963105 0.887977 0.625182 -0.946053
H16   H     H_    0.049495 0.822600 0.591801 0.262188
H17   H     H_    0.013238 0.981040 0.633864 0.256981
H18   H     H_    0.875787 0.890974 0.543818 0.261970
C25   C     C_3   0.314395 0.914111 0.766653 -0.923050
H19   H     H_    0.259393 0.973617 0.688654 0.242336
H20   H     H_    0.289279 0.816120 0.742546 0.266379
H21   H     H_    0.270647 0.935454 0.872206 0.241712
O10   O     O_3   0.641233 0.085505 0.868343 -0.634841
C26   C     C_3   0.719950 0.198061 0.858328 0.054119
H22   H     H_    0.730112 0.236562 0.965510 0.151344
H23   H     H_    0.665369 0.268284 0.794086 0.173644
C27   C     C_3   0.874389 0.173860 0.801492 -0.349015
H24   H     H_    0.926371 0.099754 0.863745 0.235587
H25   H     H_    0.864965 0.144124 0.690801 0.224537
C28   C     C_3   0.973992 0.287460 0.808541 -0.952538
H26   H     H_    0.928449 0.361162 0.742100 0.268009
H27   H     H_    0.085318 0.264432 0.768841 0.261549
H28   H     H_    0.984603 0.320316 0.918144 0.244768

loop_
_geom_bond_atom_site_label_1
_geom_bond_atom_site_label_2
_ccdc_geom_bond_type
C8    C9    A    
C7    C10   A    
C24   H18   S    
C15   O8    A    
Cu1   O3    S    
C6    O10   S    
C12   O4    A    
Cu2   O4    S    
C21   H9    S    
C5    C25   S    
C6    H5    S    
Cu1   O7    S    
C25   H21   S    
C9    H7    S    
C23   C24   S    
Cu2   O8    S    
C27   H24   S    
C28   H28   S    
C19   C20   A    
C7    C13   S    
C2    C3    A    
C14   O6    A    
C4    C18   A    
C23   H14   S    
Cu1   Cu2   S    
C24   H16   S    
C14   O5    A    
C21   H10   S    
C22   C23   S    
C15   O7    A    
C5    C6    S    
C3    C14   S    
C11   H8    S    
C8    H6    S    
C16   C17   T    
C21   H11   S    
C25   H20   S    
C1    O2    A    
C20   C21   S    
C2    H3    S    
C26   H22   S    
Cu2   O2    S    
Cu1   N2    S    
C22   H13   S    
C6    C18   S    
C11   O9    S    
C26   C27   S    
C7    N1    A    
C10   C11   S    
C1    O1    A    
C28   H26   S    
Cu2   O6    S    
C27   C28   S    
C10   N2    A    
C11   C13   S    
Cu1   O1    S    
C25   H19   S    
C13   H1    S    
Cu1   O5    S    
C15   C17   S    
C18   C19   A    
Cu2   N1    S    
C26   H23   S    
C22   H12   S    
C4    C5    S    
C12   C16   S    
C9    N2    A    
C28   H27   S    
O9    C22   S    
C1    C19   S    
C2    C20   A    
C12   O3    A    
C8    N1    A    
C5    H4    S    
C13   H2    S    
C24   H17   S    
O10   C26   S    
C23   H15   S    
C3    C4    A    
C27   H25   S    
