data_mof_unit_14047.cif
_audit_creation_date              2012-12-10T16:37:22-0500
_audit_creation_method            fapswitch 2.2
_symmetry_space_group_name_H-M    P1
_symmetry_Int_Tables_number       1
_space_group_crystal_system       triclinic
_cell_length_a                    16.762398
_cell_length_b                    16.85891
_cell_length_c                    16.593562
_cell_angle_alpha                 65.763657
_cell_angle_beta                  65.440769
_cell_angle_gamma                 65.525261
_cell_volume                      3717.47299693

loop_
_atom_site_label
_atom_site_type_symbol
_atom_type_description
_atom_site_fract_x
_atom_site_fract_y
_atom_site_fract_z
_atom_type_partial_charge
C1    C     C_R   0.400480 0.048723 0.659349 -0.241575
C2    C     C_R   0.481439 0.685697 0.913938 -0.263191
C3    C     C_R   0.946464 0.597509 0.344020 -0.226388
C4    C     C_R   0.089769 0.394042 0.645195 -0.267979
C5    C     C_R   0.978866 0.177031 0.430048 0.965905
C6    C     C_R   0.040025 0.820356 0.561104 0.920851
C7    C     C_R   0.179916 0.439273 0.958604 0.930553
C8    C     C_R   0.820347 0.560053 0.043059 0.921719
C9    C     C_R   0.440129 0.956605 0.180026 0.927158
C10   C     C_R   0.560088 0.041375 0.820033 0.928916
C11   C     C_R   0.570007 0.823022 0.020913 0.987897
C12   C     C_R   0.607794 0.909887 0.353784 -0.279163
C13   C     C_R   0.430150 0.176705 0.979427 0.928725
C14   C     C_R   0.041777 0.560657 0.819778 0.931154
C15   C     C_R   0.958960 0.439696 0.179943 0.922315
C16   C     C_R   0.823097 0.020147 0.570307 0.979873
C17   C     C_R   0.179665 0.957575 0.439706 0.922759
C18   C     C_R   0.441103 0.077811 0.696747 0.134669
C19   C     C_R   0.562935 0.901036 0.304120 0.118815
C20   C     C_R   0.072125 0.708855 0.437832 0.137528
C21   C     C_R   0.075815 0.261178 0.477218 0.113976
C22   C     C_R   0.688667 0.443172 0.102580 0.119222
C23   C     C_R   0.039832 0.671747 0.400414 -0.241951
C24   C     C_R   0.311304 0.555013 0.905681 0.125750
C25   C     C_R   0.291178 0.922451 0.563476 0.140501
C26   C     C_R   0.739610 0.922985 0.523350 0.109960
C27   C     C_R   0.473919 0.266259 0.077581 0.120741
C28   C     C_R   0.527404 0.730374 0.926897 0.111651
C29   C     C_R   0.918770 0.556492 0.305978 0.150701
C30   C     C_R   0.098724 0.439155 0.694383 0.130571
C31   C     C_R   0.549123 0.985864 0.560400 0.024196
C32   C     C_R   0.464081 0.946992 0.470928 0.031352
C33   C     C_R   0.049810 0.536368 0.529913 0.029885
C34   C     C_R   0.089846 0.303153 0.525626 -0.270851
C35   C     C_R   0.011541 0.450402 0.441076 0.029347
C36   C     C_R   0.551106 0.542487 0.012225 0.027920
C37   C     C_R   0.450468 0.454014 0.993401 0.025087
C38   C     C_R   0.603020 0.944568 0.488048 0.046458
C39   C     C_R   0.413243 0.971042 0.554311 0.025402
C40   C     C_R   0.063377 0.441591 0.563693 0.042605
C41   C     C_R   0.994768 0.545592 0.409900 0.021293
C42   C     C_R   0.486444 0.593307 0.961625 0.046831
C43   C     C_R   0.515981 0.402805 0.043109 0.023163
C44   C     C_R   0.559348 0.934798 0.436470 0.046627
C45   C     C_R   0.638483 0.398866 0.094678 -0.268647
C46   C     C_R   0.453388 0.001297 0.592397 0.017715
C47   C     C_R   0.433249 0.549453 0.955487 0.040502
C48   C     C_R   0.568318 0.446963 0.050810 0.041551
C49   C     C_R   0.053566 0.397534 0.512556 0.048241
C50   C     C_R   0.024613 0.586332 0.447576 0.025630
C51   C     C_R   0.538457 0.052145 0.673545 0.028118
C52   C     C_R   0.465776 0.921170 0.334264 0.052558
C53   C     C_R   0.066683 0.672522 0.533694 -0.002623
C54   C     C_R   0.013917 0.311672 0.423069 0.040374
C55   C     C_R   0.670507 0.538419 0.065662 0.066626
C56   C     C_R   0.361707 0.598375 0.914072 -0.265439
C57   C     C_R   0.329457 0.459723 0.940738 0.064400
C58   C     C_R   0.328200 0.928492 0.467223 0.000459
C59   C     C_R   0.688125 0.984734 0.577784 0.026658
C60   C     C_R   0.422290 0.313678 0.013214 -0.010355
C61   C     C_R   0.577793 0.683719 0.991770 0.021722
C62   C     C_R   0.946382 0.459963 0.327801 0.012390
C63   C     C_R   0.076624 0.535671 0.665331 0.050440
C64   C     C_R   0.585898 0.066172 0.718897 -0.196646
C65   C     C_R   0.413525 0.924381 0.282165 -0.158780
C66   C     C_R   0.068560 0.720611 0.586611 -0.140039
C67   C     C_R   0.327731 0.954583 0.601682 -0.249074
C68   C     C_R   0.975648 0.271842 0.391313 -0.165871
C69   C     C_R   0.719601 0.587720 0.070234 -0.169026
C70   C     C_R   0.280563 0.411223 0.934215 -0.165076
C71   C     C_R   0.280163 0.926679 0.414195 -0.147404
C72   C     C_R   0.727627 0.024029 0.608639 -0.144165
C73   C     C_R   0.391100 0.271610 0.976626 -0.134907
C74   C     C_R   0.608833 0.727194 0.026582 -0.127901
C75   C     C_R   0.934656 0.412759 0.280977 -0.137906
C76   C     C_R   0.072520 0.587929 0.717649 -0.166473
C77   C     C_R   0.673119 0.073270 0.672451 0.006074
C78   C     C_R   0.698042 0.908841 0.474608 -0.275211
C79   C     C_R   0.326866 0.911660 0.328155 0.000015
C80   C     C_R   0.082899 0.674868 0.672324 0.001037
C81   C     C_R   0.929131 0.325852 0.325130 -0.003545
C82   C     C_R   0.674843 0.676257 0.072849 -0.002371
C83   C     C_R   0.325465 0.323385 0.930126 0.005140
C84   C     C_R   0.591652 0.008833 0.602839 -0.001885
C85   C     C_R   0.419253 0.932715 0.423743 0.001055
C86   C     C_R   0.063750 0.581663 0.576757 0.001574
C87   C     C_R   0.989301 0.407539 0.398458 0.000785
C88   C     C_R   0.599040 0.587940 0.024047 -0.009123
C89   C     C_R   0.521851 0.310063 0.088988 -0.207989
C90   C     C_R   0.401474 0.409343 0.981726 0.004929
H1    H     H_    0.326287 0.069332 0.678677 0.143656
H2    H     H_    0.445052 0.724623 0.862853 0.139346
H3    H     H_    0.924360 0.671103 0.325805 0.139667
H4    H     H_    0.103768 0.321063 0.672816 0.138271
H5    H     H_    0.728123 0.174441 0.633204 0.174830
H6    H     H_    0.655355 0.161911 0.738737 0.183912
H7    H     H_    0.254923 0.937783 0.241355 0.230708
H8    H     H_    0.334859 0.832841 0.256969 0.196811
H9    H     H_    0.164899 0.668455 0.737495 0.198395
H10   H     H_    0.057455 0.744689 0.761033 0.233085
H11   H     H_    0.832436 0.265267 0.356683 0.186563
H12   H     H_    0.681275 0.897181 0.325562 0.137051
H13   H     H_    0.924859 0.246392 0.261839 0.226918
H14   H     H_    0.755753 0.726511 0.092908 0.218356
H15   H     H_    0.692654 0.665941 0.191098 0.176336
H16   H     H_    0.246224 0.273062 0.907859 0.223769
H17   H     H_    0.306847 0.337310 0.810950 0.182470
H18   H     H_    0.417917 0.173800 0.757269 0.197913
H19   H     H_    0.346082 0.107369 0.813772 0.201307
H20   H     H_    0.657976 0.794022 0.259822 0.182512
H21   H     H_    0.663312 0.896439 0.182928 0.185278
H22   H     H_    0.165569 0.776095 0.404009 0.205527
H23   H     H_    0.039224 0.704132 0.329136 0.144795
H24   H     H_    0.087194 0.829898 0.342622 0.199984
H25   H     H_    0.201283 0.172181 0.443805 0.178998
H26   H     H_    0.127537 0.129409 0.543278 0.203790
H27   H     H_    0.716361 0.361121 0.222869 0.179890
H28   H     H_    0.800980 0.339504 0.126844 0.190164
H29   H     H_    0.285633 0.639853 0.786302 0.175906
H30   H     H_    0.199575 0.659235 0.882286 0.188534
H31   H     H_    0.221905 0.831682 0.595289 0.202656
H32   H     H_    0.168428 0.908502 0.658262 0.201263
H33   H     H_    0.872573 0.871994 0.456531 0.204462
H34   H     H_    0.135491 0.261337 0.567875 0.138946
H35   H     H_    0.829581 0.798915 0.555919 0.177145
H36   H     H_    0.529970 0.130294 0.126470 0.223946
H37   H     H_    0.413236 0.162341 0.146695 0.185272
H38   H     H_    0.463270 0.861478 0.870141 0.204765
H39   H     H_    0.562884 0.815203 0.798491 0.179403
H40   H     H_    0.823803 0.577516 0.245070 0.171116
H41   H     H_    0.888225 0.651047 0.190205 0.195505
H42   H     H_    0.208258 0.346108 0.735027 0.172656
H43   H     H_    0.106233 0.339606 0.814389 0.187254
H44   H     H_    0.657063 0.325914 0.123227 0.135531
H45   H     H_    0.342318 0.671531 0.887430 0.140261
H46   H     H_    0.294757 0.954752 0.673272 0.139547
H47   H     H_    0.740585 0.863654 0.431754 0.139066
H48   H     H_    0.559446 0.270361 0.138964 0.145596
N1    N     N_3   0.708025 0.124840 0.694298 -0.402164
N2    N     N_3   0.133181 0.170693 0.475018 -0.421100
N3    N     N_3   0.752227 0.391521 0.155809 -0.438863
N4    N     N_3   0.248677 0.608154 0.852098 -0.461660
N5    N     N_3   0.231496 0.867322 0.627632 -0.461006
N6    N     N_3   0.830838 0.866520 0.524966 -0.422844
N7    N     N_3   0.467683 0.179623 0.143620 -0.452542
N8    N     N_3   0.530639 0.819602 0.866310 -0.430793
N9    N     N_3   0.853939 0.614800 0.254729 -0.475699
N10   N     N_3   0.143176 0.384969 0.765205 -0.449531
N11   N     N_3   0.285273 0.882413 0.289021 -0.451242
N12   N     N_3   0.112182 0.716937 0.710528 -0.457437
N13   N     N_3   0.879359 0.293947 0.297945 -0.448227
N14   N     N_3   0.692677 0.712933 0.125996 -0.437346
N15   N     N_3   0.308446 0.288405 0.874846 -0.453263
N16   N     N_3   0.381355 0.141967 0.748764 -0.466591
N17   N     N_3   0.618243 0.858750 0.231382 -0.415564
N18   N     N_3   0.128352 0.767150 0.372764 -0.447446
O1    O     O_R   0.982940 0.138950 0.510160 -0.613347
O2    O     O_R   0.982940 0.510160 0.138950 -0.640216
O3    O     O_R   0.861050 0.017060 0.489840 -0.628602
O4    O     O_R   0.138950 0.982940 0.510160 -0.651149
O5    O     O_R   0.867700 0.025880 0.612340 -0.600544
O6    O     O_R   0.132300 0.974120 0.387660 -0.620252
O7    O     O_R   0.025880 0.612340 0.867700 -0.636540
O8    O     O_R   0.974120 0.387660 0.132300 -0.605400
O9    O     O_R   0.612340 0.867700 0.025880 -0.606104
O10   O     O_R   0.387660 0.132300 0.974120 -0.615690
O11   O     O_R   0.387660 0.974120 0.132300 -0.643958
O12   O     O_R   0.017060 0.861050 0.489840 -0.655966
O13   O     O_R   0.612340 0.025880 0.867700 -0.599156
O14   O     O_R   0.132300 0.387660 0.974120 -0.633486
O15   O     O_R   0.867700 0.612340 0.025880 -0.642583
O16   O     O_R   0.974120 0.132300 0.387660 -0.643743
O17   O     O_R   0.025880 0.867700 0.612340 -0.620664
O18   O     O_R   0.138950 0.510160 0.982940 -0.606685
O19   O     O_R   0.861050 0.489840 0.017060 -0.603762
O20   O     O_R   0.510160 0.982940 0.138950 -0.629776
O21   O     O_R   0.489840 0.017060 0.861050 -0.641172
O22   O     O_R   0.489840 0.861050 0.017060 -0.632280
O23   O     O_R   0.510160 0.138950 0.982940 -0.649202
O24   O     O_R   0.017060 0.489840 0.861050 -0.606130
Zn1   Zn    Zn3+2 0.004880 0.004880 0.583590 0.923551
Zn2   Zn    Zn3+2 0.995120 0.995120 0.416410 0.896887
Zn3   Zn    Zn3+2 0.004880 0.583590 0.004880 0.910541
Zn4   Zn    Zn3+2 0.995120 0.416410 0.995120 0.930274
Zn5   Zn    Zn3+2 0.583590 0.004880 0.004880 0.927995
Zn6   Zn    Zn3+2 0.416410 0.995120 0.995120 0.902832

loop_
_geom_bond_atom_site_label_1
_geom_bond_atom_site_label_2
_ccdc_geom_bond_type
C15   C75   S    
C78   H47   S    
C65   C79   A    
C19   N17   S    
C64   C77   A    
C41   C50   A    
C36   C42   A    
C16   C72   S    
H28   N3    S    
H6    N1    S    
C71   C79   A    
C8    O19   A    
C4    C30   A    
O20   Zn5   S    
C36   C88   A    
C10   O13   A    
C80   N12   S    
C1    C18   A    
C26   C78   A    
C37   C90   A    
C68   C81   A    
O15   Zn3   S    
C52   C85   A    
O6    Zn2   S    
C27   C60   A    
C54   C87   A    
C58   C71   A    
C54   C68   A    
C63   C76   A    
H35   N6    S    
C40   C49   A    
C7    O18   A    
C60   C73   A    
C14   O7    A    
C22   N3    S    
C9    O20   A    
C32   C39   A    
C55   C88   A    
C3    C29   A    
C17   O4    A    
H31   N5    S    
C69   C82   A    
C35   C87   A    
C19   C52   A    
C4    C40   A    
C24   N4    S    
C24   C57   A    
C31   C46   A    
C25   C67   A    
H33   N6    S    
C35   C49   A    
C27   C89   A    
C53   C86   A    
H20   N17   S    
C57   C70   A    
C37   C47   A    
C43   C48   A    
C18   N16   S    
C8    O15   A    
H13   N13   S    
C59   C72   A    
C79   N11   S    
C28   C61   A    
O17   Zn1   S    
C1    H1    S    
C30   C63   A    
C16   O3    A    
C82   N14   S    
C25   N5    S    
O1    Zn1   S    
H32   N5    S    
C74   C82   A    
C5    C68   S    
C26   N6    S    
C12   H12   S    
H24   N18   S    
H36   N7    S    
C18   C51   A    
C32   C44   A    
H9    N12   S    
C6    O12   A    
C33   C40   A    
C57   C90   A    
O7    Zn3   S    
H42   N10   S    
C76   C80   A    
C15   O8    A    
C9    O11   A    
H30   N4    S    
C59   C84   A    
C15   O2    A    
H43   N10   S    
C8    C69   S    
C75   C81   A    
C23   C50   A    
C21   C34   A    
C38   C78   A    
H10   N12   S    
C33   C50   A    
C81   N13   S    
O11   Zn6   S    
H11   N13   S    
O9    Zn5   S    
C31   C84   A    
C14   C76   S    
C37   C43   A    
H27   N3    S    
C33   C86   A    
C38   C44   A    
C72   C77   A    
O8    Zn4   S    
C61   C88   A    
C23   H23   S    
C20   C23   A    
C27   N7    S    
H16   N15   S    
C45   H44   S    
C3    H3    S    
C11   O22   A    
C43   C89   A    
C2    H2    S    
C70   C83   A    
H39   N8    S    
C55   C69   A    
C35   C41   A    
H37   N7    S    
C39   C46   A    
C4    H4    S    
C13   C73   S    
C17   C71   S    
C5    O1    A    
C63   C86   A    
C61   C74   A    
C62   C75   A    
C25   C58   A    
C58   C85   A    
O4    Zn1   S    
C56   H45   S    
C66   C80   A    
O2    Zn3   S    
C45   C48   A    
H15   N14   S    
C29   C62   A    
C3    C41   A    
C34   C49   A    
C34   H34   S    
C20   N18   S    
O14   Zn4   S    
H40   N9    S    
O10   Zn6   S    
C10   O21   A    
H5    N1    S    
C10   C64   S    
C51   C64   A    
C77   N1    S    
C20   C53   A    
C11   C74   S    
O18   Zn3   S    
C29   N9    S    
C30   N10   S    
C22   C55   A    
C83   N15   S    
C6    O17   A    
C60   C90   A    
C16   O5    A    
C24   C56   A    
C39   C67   A    
C62   C87   A    
C28   N8    S    
C31   C38   A    
H14   N14   S    
C67   H46   S    
O13   Zn5   S    
C12   C44   A    
H19   N16   S    
C53   C66   A    
H38   N8    S    
C13   O10   A    
C21   C54   A    
C2    C42   A    
C32   C85   A    
C12   C19   A    
C13   O23   A    
C5    O16   A    
O23   Zn5   S    
C36   C48   A    
C42   C47   A    
O3    Zn2   S    
O5    Zn1   S    
C7    C70   S    
C1    C46   A    
O12   Zn2   S    
C9    C65   S    
C17   O6    A    
O21   Zn6   S    
O22   Zn6   S    
H17   N15   S    
O16   Zn2   S    
C6    C66   S    
C22   C45   A    
H18   N16   S    
H25   N2    S    
C89   H48   S    
H22   N18   S    
C7    O14   A    
C11   O9    A    
H29   N4    S    
H7    N11   S    
O19   Zn4   S    
C26   C59   A    
C2    C28   A    
H41   N9    S    
C21   N2    S    
H21   N17   S    
C51   C84   A    
C73   C83   A    
C14   O24   A    
C52   C65   A    
O24   Zn4   S    
C47   C56   A    
H26   N2    S    
H8    N11   S    
