data_mof_unit_41494.cif
_audit_creation_date              2013-03-05T15:45:20-0500
_audit_creation_method            fapswitch 2.2
_symmetry_space_group_name_H-M    P1
_symmetry_Int_Tables_number       1
_space_group_crystal_system       triclinic
_cell_length_a                    10.878146
_cell_length_b                    11.093187
_cell_length_c                    9.925048
_cell_angle_alpha                 111.2879
_cell_angle_beta                  98.194379
_cell_angle_gamma                 92.041074
_cell_volume                      1099.60683117

loop_
_atom_site_label
_atom_site_type_symbol
_atom_site_description
_atom_site_fract_x
_atom_site_fract_y
_atom_site_fract_z
_atom_type_partial_charge
O1    O     O_R   0.511700 0.332340 0.577400 -0.556512
O2    O     O_R   0.488300 0.667660 0.422600 -0.556512
O3    O     O_R   0.474680 0.295500 0.332650 -0.534604
O4    O     O_R   0.525320 0.704500 0.667350 -0.534604
C1    C     C_R   0.491254 0.254216 0.440121 0.765788
C2    C     C_R   0.508746 0.745784 0.559879 0.765787
O5    O     O_R   0.338170 0.518410 0.622370 -0.528486
O6    O     O_R   0.661830 0.481590 0.377630 -0.528486
O7    O     O_R   0.301150 0.481570 0.377630 -0.590131
O8    O     O_R   0.698850 0.518430 0.622370 -0.590131
C3    C     C_R   0.262977 0.499326 0.500588 0.780706
C4    C     C_R   0.737023 0.500674 0.499412 0.780706
Cu1   Cu    Cu3+1 0.521920 0.521810 0.644910 1.058099
Cu2   Cu    Cu3+1 0.478080 0.478190 0.355090 1.058099
H1    H     H_    0.045713 0.125196 0.085071 0.211497
H2    H     H_    0.954287 0.874803 0.914930 0.211497
C5    C     C_R   0.162983 0.709185 0.713453 -0.201466
C6    C     C_R   0.837017 0.290815 0.286548 -0.201466
C7    C     C_R   0.118024 0.803622 0.827343 0.359560
C8    C     C_R   0.881976 0.196378 0.172657 0.359559
C9    C     C_R   0.990549 0.801415 0.828536 -0.158897
C10   C     C_R   0.009451 0.198584 0.171465 -0.158897
C11   C     C_R   0.908659 0.707816 0.715946 -0.170935
C12   C     C_R   0.091341 0.292183 0.284056 -0.170934
C13   C     C_R   0.952988 0.603225 0.607535 0.069378
C14   C     C_R   0.047012 0.396774 0.392465 0.069378
C15   C     C_R   0.082707 0.603118 0.607680 0.018548
C16   C     C_R   0.917293 0.396882 0.392320 0.018549
C17   C     C_R   0.870949 0.500679 0.498914 -0.110464
C18   C     C_R   0.129051 0.499321 0.501087 -0.110463
H3    H     H_    0.261549 0.719805 0.711752 0.187721
H4    H     H_    0.738451 0.280196 0.288248 0.187721
H5    H     H_    0.810888 0.719956 0.717195 0.192713
H6    H     H_    0.189112 0.280043 0.282806 0.192713
H7    H     H_    0.487441 0.862501 0.373707 0.232703
H8    H     H_    0.512560 0.137499 0.626292 0.232702
C19   C     C_2   0.487916 0.114359 0.404783 0.221520
C20   C     C_2   0.512084 0.885641 0.595217 0.221520
C21   C     C_2   0.500691 0.069365 0.513668 -0.163826
C22   C     C_2   0.499310 0.930635 0.486332 -0.163826
N1    N     N_2   0.445130 0.445420 0.137360 -0.285757
N2    N     N_2   0.554870 0.554580 0.862640 -0.285757
C23   C     C_2   0.511347 0.510514 0.080800 0.396277
C24   C     C_2   0.488653 0.489486 0.919200 0.396277
H9    H     H_    0.625293 0.622956 0.930535 0.239583
H10   H     H_    0.374707 0.377044 0.069465 0.239584
N3    N     N_R   0.202047 0.901910 0.941898 0.136240
O9    O     O_R   0.179125 0.944492 0.075529 -0.348728
O10   O     O_R   0.304886 0.944689 0.914871 -0.240148
N4    N     N_R   0.797953 0.098090 0.058103 0.136240
O11   O     O_R   0.820877 0.055506 0.924472 -0.348730
O12   O     O_R   0.695110 0.055316 0.085127 -0.240147
Cl1   Cl    Cl    0.531313 0.989907 0.781386 -0.403520
Cl2   Cl    Cl    0.468687 0.010093 0.218613 -0.403521
Cl3   Cl    Cl    0.366999 0.371587 0.805436 -0.576859
Cl4   Cl    Cl    0.633001 0.628413 0.194564 -0.576860

loop_
_geom_bond_atom_site_label_1
_geom_bond_atom_site_label_2
_geom_bond_distance
_ccdc_geom_bond_type
C19   C21   1.337953 D    
N4    O12   1.299547 A    
O7    Cu2   1.969163 S    
C2    C20   1.458976 S    
C14   C18   1.419745 A    
H2    C9    1.079828 S    
C1    C19   1.458976 S    
C4    C17   1.457573 S    
C13   C15   1.410944 A    
O7    C3    1.294709 A    
C14   C16   1.410944 A    
N3    O9    1.300815 A    
O6    C4    1.301860 A    
C23   C24   1.516308 S    
C9    C11   1.388607 A    
N4    O11   1.300816 A    
O2    Cu2   1.954103 S    
C6    C16   1.420446 A    
N3    O10   1.299545 A    
Cu1   Cu2   2.705098 S    
C15   C18   1.417071 A    
C20   C22   1.337952 D    
N1    C23   1.314516 D    
C24   Cl3   1.765006 S    
C20   Cl1   1.765356 S    
O2    C2    1.303623 A    
N1    H10   1.027911 S    
N2    C24   1.314516 D    
O3    Cu2   1.955175 S    
Cu2   N1    2.032234 S    
O1    C1    1.303623 A    
C19   Cl2   1.765356 S    
O8    C4    1.294710 A    
Cu1   N2    2.032233 S    
C5    C7    1.395941 A    
C8    C10   1.387852 A    
O5    C3    1.301861 A    
C7    N3    1.431628 S    
C11   C13   1.420463 A    
C13   C17   1.419746 A    
C5    H3    1.077693 S    
C10   C12   1.388608 A    
C6    H4    1.077693 S    
H7    C22   1.084372 S    
C5    C15   1.420446 A    
C23   Cl4   1.765006 S    
O5    Cu1   1.976850 S    
O1    Cu1   1.954104 S    
C11   H5    1.078053 S    
C6    C8    1.395941 A    
O4    C2    1.298373 A    
H1    C10   1.079828 S    
C21   C22   1.461595 S    
C16   C17   1.417070 A    
C8    N4    1.431628 S    
O6    Cu2   1.976850 S    
C7    C9    1.387852 A    
N2    H9    1.027911 S    
H8    C21   1.084373 S    
C12   H6    1.078053 S    
O4    Cu1   1.955175 S    
C3    C18   1.457572 S    
C12   C14   1.420463 A    
O3    C1    1.298373 A    
O8    Cu1   1.969162 S    
