data_mof_unit_10684.cif
_audit_creation_date              2013-03-05T15:54:38-0500
_audit_creation_method            fapswitch 2.2
_symmetry_space_group_name_H-M    P1
_symmetry_Int_Tables_number       1
_space_group_crystal_system       triclinic
_cell_length_a                    14.042034
_cell_length_b                    14.048577
_cell_length_c                    30.10221
_cell_angle_alpha                 97.112811
_cell_angle_beta                  97.024229
_cell_angle_gamma                 61.274639
_cell_volume                      5153.93738099

loop_
_atom_site_label
_atom_site_type_symbol
_atom_site_description
_atom_site_fract_x
_atom_site_fract_y
_atom_site_fract_z
_atom_type_partial_charge
O1    O     O_R   0.688580 0.499770 0.460490 -0.545340
O2    O     O_R   0.480400 0.672610 0.462660 -0.543079
C1    C     C_R   0.385450 0.711635 0.442558 0.850630
O3    O     O_R   0.315310 0.685650 0.451800 -0.510199
O4    O     O_R   0.346220 0.474990 0.446280 -0.529252
C2    C     C_R   0.398886 0.381065 0.426469 0.813443
O5    O     O_R   0.492270 0.312460 0.441630 -0.509343
O6    O     O_R   0.669740 0.350480 0.455640 -0.511069
C3    C     C_R   0.710817 0.404921 0.442462 0.834797
O7    O     O_R   0.691150 0.501150 0.557860 -0.524877
O8    O     O_R   0.482790 0.673890 0.552920 -0.529811
C4    C     C_R   0.389643 0.711520 0.568276 0.803533
O9    O     O_R   0.317880 0.687030 0.549170 -0.512837
O10   O     O_R   0.348600 0.476260 0.536540 -0.502562
C5    C     C_R   0.401551 0.382540 0.552100 0.851833
O11   O     O_R   0.494840 0.313840 0.539010 -0.547102
O12   O     O_R   0.672120 0.351750 0.545910 -0.534576
C6    C     C_R   0.712932 0.407814 0.568558 0.810902
Cr1   Cr    Cr6+3 0.581000 0.584320 0.508140 1.009008
Cr2   Cr    Cr6+3 0.339110 0.576430 0.496080 1.086265
Cr3   Cr    Cr6+3 0.579910 0.339270 0.495810 1.035916
O13   O     O_3   0.500010 0.500010 0.500010 -0.371010
C7    C     C_1   0.366030 0.363166 0.380819 -0.069787
C8    C     C_R   0.240778 0.412317 0.270290 -0.138698
C9    C     C_R   0.231965 0.408615 0.223569 -0.128364
C10   C     C_R   0.414482 0.254676 0.221465 0.200021
C11   C     C_R   0.424000 0.258629 0.268736 0.331493
C12   C     C_R   0.335897 0.337678 0.292959 -0.069635
C13   C     C_R   0.318319 0.330454 0.199114 -0.022422
C14   C     C_1   0.303366 0.320858 0.151050 0.072169
C15   C     C_1   0.347840 0.350853 0.341063 0.092500
C16   C     C_1   0.291084 0.303615 0.111221 -0.089589
H1    H     H_    0.173784 0.474337 0.288815 0.201539
H2    H     H_    0.157184 0.466006 0.206444 0.190388
H3    H     H_    0.850005 0.461535 0.100531 0.188414
H4    H     H_    0.798998 0.505080 0.404910 0.211634
C17   C     C_R   0.771465 0.365425 0.401370 -0.204796
C18   C     C_R   0.785228 0.268998 0.375285 0.294720
C19   C     C_R   0.816459 0.251431 0.331576 -0.114127
C20   C     C_R   0.837328 0.326020 0.313743 -0.108500
C21   C     C_R   0.838369 0.414488 0.341083 0.409539
C22   C     C_R   0.804152 0.433727 0.384626 -0.246076
C23   C     C_R   0.830807 0.400659 0.158698 0.274812
C24   C     C_R   0.856016 0.391211 0.114475 -0.171111
C25   C     C_R   0.902012 0.200550 0.108206 -0.202650
C26   C     C_R   0.877218 0.208293 0.152618 0.353065
C27   C     C_R   0.846262 0.308267 0.178512 -0.111046
C28   C     C_1   0.843494 0.313437 0.226190 0.168995
C29   C     C_1   0.842640 0.318068 0.266189 0.170789
C30   C     C_R   0.896639 0.290129 0.089642 -0.162243
H5    H     H_    0.931368 0.122564 0.088959 0.205342
H6    H     H_    0.819475 0.181575 0.310627 0.237352
C31   C     C_R   0.366150 0.768532 0.401881 -0.215066
C32   C     C_R   0.457433 0.743001 0.378682 -0.223107
C33   C     C_R   0.445207 0.772386 0.335293 0.281478
C34   C     C_R   0.340632 0.829257 0.314545 -0.101315
C35   C     C_R   0.247890 0.864668 0.338450 0.244830
C36   C     C_R   0.260416 0.834827 0.382590 0.250084
C37   C     C_R   0.269211 0.814079 0.149908 0.299662
C38   C     C_R   0.257017 0.835242 0.104491 0.252282
C39   C     C_R   0.357253 0.938068 0.123378 -0.183571
C40   C     C_R   0.369321 0.916646 0.167936 -0.128291
C41   C     C_R   0.321956 0.858831 0.181463 -0.026923
C42   C     C_1   0.325394 0.850006 0.228298 0.118348
C43   C     C_1   0.330053 0.842887 0.267744 0.148561
C44   C     C_R   0.296627 0.902646 0.091646 -0.171954
H7    H     H_    0.539251 0.693353 0.392991 0.193399
H8    H     H_    0.411516 0.949639 0.192269 0.185591
H9    H     H_    0.389003 0.989351 0.114529 0.187114
C45   C     C_R   0.364637 0.360666 0.591817 -0.252823
C46   C     C_R   0.440430 0.273470 0.616687 -0.236526
C47   C     C_R   0.423140 0.266134 0.660248 0.288961
C48   C     C_R   0.328194 0.345701 0.679545 -0.117284
C49   C     C_R   0.245897 0.427012 0.653705 0.181733
C50   C     C_R   0.263420 0.434475 0.609466 0.328004
C51   C     C_R   0.222260 0.416793 0.835785 0.222940
C52   C     C_R   0.214594 0.402090 0.880255 0.211709
C53   C     C_R   0.398556 0.247844 0.880847 0.245580
C54   C     C_R   0.406105 0.264666 0.836691 0.272539
C55   C     C_R   0.315451 0.344488 0.813564 -0.203268
C56   C     C_1   0.316724 0.347931 0.766249 0.194289
C57   C     C_1   0.319664 0.347628 0.726588 0.151773
C58   C     C_R   0.298787 0.310078 0.901472 -0.331729
H10   H     H_    0.517416 0.214470 0.603591 0.203225
C59   C     C_1   0.762750 0.376128 0.612426 -0.107581
C60   C     C_R   0.890843 0.366065 0.723224 -0.096656
C61   C     C_R   0.909894 0.353024 0.769292 -0.117427
C62   C     C_R   0.789763 0.272286 0.763803 -0.083376
C63   C     C_R   0.770576 0.285451 0.717690 -0.120857
C64   C     C_R   0.820938 0.332542 0.697339 0.092340
C65   C     C_R   0.858817 0.306867 0.789737 0.083382
C66   C     C_1   0.880675 0.293198 0.837108 0.001076
C67   C     C_1   0.793659 0.354060 0.650739 -0.011804
C68   C     C_1   0.907209 0.282250 0.876511 -0.095380
H11   H     H_    0.929326 0.403535 0.707961 0.172659
H12   H     H_    0.964052 0.379414 0.789032 0.166595
H13   H     H_    0.750587 0.235778 0.779193 0.198570
H14   H     H_    0.715412 0.260299 0.698025 0.161287
C69   C     C_1   0.374854 0.759888 0.613380 -0.076335
C70   C     C_R   0.288897 0.781386 0.719764 -0.179805
C71   C     C_R   0.279380 0.797253 0.765999 -0.106038
C72   C     C_R   0.396638 0.881308 0.774076 -0.186732
C73   C     C_R   0.406622 0.866502 0.727397 0.376759
C74   C     C_R   0.351546 0.815914 0.700104 -0.021789
C75   C     C_R   0.333201 0.847096 0.793256 0.041290
C76   C     C_1   0.314946 0.872738 0.840265 0.016727
C77   C     C_1   0.364012 0.789707 0.652601 0.083497
C78   C     C_1   0.294136 0.902362 0.878830 -0.105437
H15   H     H_    0.247507 0.741423 0.699210 0.183442
H16   H     H_    0.229105 0.771635 0.780423 0.172168
H17   H     H_    0.436256 0.921906 0.795437 0.201959
O14   O     O_R   0.167510 0.972920 0.030390 -0.513088
O15   O     O_R   0.990840 0.178580 0.027590 -0.534318
C79   C     C_R   0.950940 0.272856 0.048300 0.818531
O16   O     O_R   0.972840 0.345510 0.038590 -0.538665
O17   O     O_R   0.181550 0.320660 0.045200 -0.529586
C80   C     C_R   0.275275 0.270185 0.065434 0.812538
O18   O     O_R   0.346150 0.177650 0.050510 -0.527532
O19   O     O_R   0.314200 0.996600 0.036060 -0.542528
C81   C     C_R   0.261010 0.953470 0.048668 0.833624
O20   O     O_R   0.168690 0.969990 0.933130 -0.526000
O21   O     O_R   0.991920 0.175870 0.937430 -0.530089
C82   C     C_R   0.952457 0.269086 0.922016 0.811695
O22   O     O_R   0.974010 0.342590 0.941330 -0.518873
O23   O     O_R   0.182630 0.317940 0.955040 -0.516366
C83   C     C_R   0.277316 0.268140 0.940183 0.897101
O24   O     O_R   0.347320 0.174720 0.953250 -0.501248
O25   O     O_R   0.315290 0.993890 0.945900 -0.526990
C84   C     C_R   0.261585 0.950874 0.922848 0.809888
Cr4   Cr    Cr6+3 0.082090 0.079210 0.982490 1.031757
Cr5   Cr    Cr6+3 0.082460 0.324610 0.994920 1.038762
Cr6   Cr    Cr6+3 0.323630 0.087860 0.996130 1.043200
O26   O     O_3   0.162730 0.163890 0.991180 -0.370287
N1    N     N_R   0.889280 0.113163 0.171383 0.137915
O27   O     O_R   0.827721 0.122386 0.202371 -0.307860
O28   O     O_R   0.955211 0.016246 0.154750 -0.316655
Br1   Br    Br    0.187660 0.771184 0.060811 -0.350298
Br2   Br    Br    0.210811 0.728082 0.169387 -0.349262
Br3   Br    Br    0.104714 0.949703 0.309946 -0.346136
Br4   Br    Br    0.133456 0.886097 0.415884 -0.339908
Br5   Br    Br    0.574178 0.725209 0.304248 -0.347135
Br6   Br    Br    0.089171 0.511460 0.910720 -0.342217
Br7   Br    Br    0.103574 0.533552 0.804407 -0.383470
Br8   Br    Br    0.109499 0.527313 0.678687 -0.361542
N2    N     N_R   0.179470 0.517263 0.583021 0.146377
O29   O     O_R   0.144462 0.490726 0.543905 -0.342418
O30   O     O_R   0.141582 0.619528 0.596911 -0.320097
N3    N     N_R   0.506396 0.201568 0.815457 0.161773
O31   O     O_R   0.554266 0.250123 0.801005 -0.363362
O32   O     O_R   0.543134 0.097572 0.805919 -0.269964
N4    N     N_R   0.493533 0.170639 0.905184 0.165805
O33   O     O_R   0.536012 0.067268 0.892771 -0.300913
O34   O     O_R   0.531073 0.202645 0.942385 -0.335002
Br9   Br    Br    0.535764 0.149824 0.693155 -0.310444
Br10  Br    Br    0.529559 0.141532 0.187330 -0.332232
N5    N     N_R   0.472353 0.902827 0.708752 0.128969
O35   O     O_R   0.451113 0.932571 0.667906 -0.342301
O36   O     O_R   0.549210 0.914135 0.733773 -0.284800
N6    N     N_R   0.522813 0.183528 0.292002 0.147460
O37   O     O_R   0.519305 0.129785 0.323465 -0.319270
O38   O     O_R   0.616239 0.172848 0.283451 -0.304030
Br11  Br    Br    0.783663 0.539674 0.191975 -0.345533
N7    N     N_R   0.870109 0.486844 0.324875 0.143082
O39   O     O_R   0.938385 0.452477 0.293737 -0.350040
O40   O     O_R   0.841353 0.583392 0.344805 -0.303291
Br12  Br    Br    0.759026 0.159167 0.395136 -0.286506

loop_
_geom_bond_atom_site_label_1
_geom_bond_atom_site_label_2
_geom_bond_distance
_ccdc_geom_bond_type
C33   C34   1.398669 A    
C83   O24   1.279313 A    
C33   Br5   1.923322 S    
C31   C36   1.415250 A    
C61   C65   1.402670 A    
C21   C22   1.401211 A    
C48   C57   1.431525 S    
H4    C22   1.082759 S    
N7    O39   1.301392 A    
O20   Cr4   2.030917 S    
O25   C84   1.273445 A    
N2    O29   1.301163 A    
C72   H17   1.083937 S    
C82   O22   1.266728 A    
O4    Cr2   1.912825 S    
O16   Cr5   2.036806 S    
C31   C32   1.405112 A    
C50   N2    1.434535 S    
C4    O9    1.267721 A    
O8    Cr1   1.915422 S    
C10   C11   1.409557 A    
C17   C18   1.418127 A    
O19   Cr6   1.920871 S    
N5    O35   1.301201 A    
N7    O40   1.301534 A    
N3    O32   1.300364 A    
O15   C79   1.274506 A    
C18   C19   1.393220 A    
C55   C56   1.433661 S    
C25   H5    1.083065 S    
C36   Br4   1.930154 S    
C34   C43   1.425393 S    
C70   C74   1.402860 A    
C39   C44   1.405472 A    
O17   C80   1.272691 A    
C35   Br3   1.930986 S    
C72   C75   1.401408 A    
C48   C49   1.405930 A    
C17   C22   1.408962 A    
C52   Br6   1.936125 S    
C4    C69   1.432873 S    
C24   C30   1.401262 A    
O24   Cr6   2.037419 S    
C59   C67   1.204718 T    
C53   C58   1.418972 A    
N6    O37   1.301433 A    
Cr6   O26   1.976155 S    
N4    O33   1.300701 A    
N6    O38   1.301389 A    
C45   C46   1.404562 A    
C8    C12   1.399009 A    
C16   C80   1.426406 S    
C62   H13   1.082914 S    
C9    H2    1.084062 S    
C68   C82   1.432200 S    
C19   H6    1.084388 S    
C38   C44   1.415993 A    
C70   H15   1.084195 S    
C44   C81   1.470008 S    
Cr3   O13   1.975541 S    
C9    C13   1.398663 A    
C10   Br10  1.930356 S    
C72   C73   1.408930 A    
O25   Cr6   1.911467 S    
C66   C68   1.204732 T    
N2    O30   1.301091 A    
C53   N4    1.434971 S    
C56   C57   1.199041 T    
C71   C75   1.396222 A    
O1    Cr1   2.033126 S    
C6    C59   1.432370 S    
C47   Br9   1.919902 S    
O15   Cr4   1.915849 S    
O10   Cr2   1.919884 S    
Cr1   O13   1.977643 S    
O1    C3    1.276694 A    
C8    C9    1.393398 A    
C60   C64   1.399600 A    
C19   C20   1.394646 A    
O14   C81   1.271576 A    
C53   C54   1.403644 A    
O6    C3    1.276775 A    
N1    O28   1.301736 A    
C32   H7    1.084005 S    
C37   Br2   1.929052 S    
C71   H16   1.083658 S    
O5    Cr3   2.029487 S    
C5    O11   1.272623 A    
O12   Cr3   1.912288 S    
C41   C42   1.423453 S    
O22   Cr5   2.028686 S    
C30   C79   1.472578 S    
C7    C15   1.201567 T    
C23   C24   1.393359 A    
C51   Br7   1.931645 S    
C13   C14   1.435336 S    
C26   N1    1.442147 S    
O23   Cr5   1.920120 S    
C27   C28   1.432368 S    
C62   C65   1.399796 A    
O7    Cr1   2.031592 S    
O19   C81   1.276839 A    
C61   H12   1.083905 S    
C40   C41   1.391129 A    
C3    C17   1.482123 S    
O12   C6    1.272357 A    
C26   C27   1.412112 A    
C51   C52   1.404053 A    
H3    C24   1.083161 S    
C78   C84   1.433247 S    
C2    O5    1.266668 A    
C20   C21   1.408333 A    
Cr2   O13   1.976315 S    
C21   N7    1.442723 S    
O23   C83   1.277148 A    
Cr4   O26   1.977676 S    
C34   C35   1.406797 A    
C58   C83   1.490843 S    
C1    O3    1.272189 A    
C49   C50   1.408717 A    
C65   C66   1.438262 S    
C64   C67   1.438111 S    
C46   H10   1.083084 S    
C39   H9    1.083562 S    
C18   Br12  1.923797 S    
C5    C45   1.479250 S    
C49   Br8   1.927465 S    
C32   C33   1.384342 A    
C28   C29   1.198961 T    
O9    Cr2   2.028161 S    
O2    Cr1   1.916139 S    
C60   C61   1.397581 A    
C12   C15   1.436391 S    
C51   C55   1.399917 A    
O20   C84   1.269216 A    
C47   C48   1.400199 A    
Cr5   O26   1.975599 S    
O6    Cr3   1.920746 S    
O8    C4    1.275393 A    
O11   Cr3   2.037368 S    
C79   O16   1.272550 A    
N1    O27   1.301445 A    
C69   C77   1.205318 T    
C75   C76   1.439312 S    
C38   Br1   1.929625 S    
C37   C41   1.404904 A    
C8    H1    1.084059 S    
C40   H8    1.084511 S    
C63   H14   1.083725 S    
C42   C43   1.195138 T    
N5    O36   1.301396 A    
O2    C1    1.275383 A    
C63   C64   1.403251 A    
C46   C47   1.387232 A    
C80   O18   1.266248 A    
C14   C16   1.201463 T    
C1    C31   1.471277 S    
C35   C36   1.407849 A    
O4    C2    1.272266 A    
O17   Cr5   1.913493 S    
C76   C78   1.205253 T    
C25   C30   1.405077 A    
O7    C6    1.269472 A    
C2    C7    1.426660 S    
C70   C71   1.394502 A    
C54   N3    1.434398 S    
N3    O31   1.300804 A    
N4    O34   1.301081 A    
C39   C40   1.383380 A    
O18   Cr6   2.028863 S    
C60   H11   1.083631 S    
C11   N6    1.437724 S    
C54   C55   1.402515 A    
O3    Cr2   2.036506 S    
C23   Br11  1.921109 S    
C25   C26   1.400636 A    
C73   N5    1.441434 S    
C37   C38   1.407593 A    
C62   C63   1.399213 A    
C45   C50   1.417452 A    
C10   C13   1.408102 A    
C73   C74   1.416502 A    
C52   C58   1.423843 A    
O10   C5    1.277611 A    
O14   Cr4   2.033737 S    
O21   C82   1.275675 A    
C23   C27   1.406018 A    
O21   Cr4   1.915828 S    
C74   C77   1.442162 S    
C20   C29   1.430285 S    
C11   C12   1.412446 A    
