data_mof_unit_17439.cif
_audit_creation_date              2012-12-10T18:09:33-0500
_audit_creation_method            fapswitch 2.2
_symmetry_space_group_name_H-M    P1
_symmetry_Int_Tables_number       1
_space_group_crystal_system       triclinic
_cell_length_a                    15.242085
_cell_length_b                    15.13908
_cell_length_c                    9.420283
_cell_angle_alpha                 90.000079
_cell_angle_beta                  89.998917
_cell_angle_gamma                 90.000291
_cell_volume                      2173.74108035

loop_
_atom_site_label
_atom_site_type_symbol
_atom_type_description
_atom_site_fract_x
_atom_site_fract_y
_atom_site_fract_z
_atom_type_partial_charge
C1    C     C_R   0.119729 0.379352 0.500076 0.883641
C2    C     C_R   0.119718 0.620658 0.500075 0.883679
C3    C     C_R   0.619722 0.879346 0.499923 0.883708
C4    C     C_R   0.619715 0.120660 0.499924 0.883795
C5    C     C_3   0.091806 0.500014 0.083657 -0.170886
C6    C     C_3   0.091815 0.500009 0.916295 -0.263573
C7    C     C_3   0.591815 0.999984 0.083700 -0.263584
C8    C     C_3   0.591806 0.999988 0.916338 -0.170863
C9    C     C_R   0.879821 0.380155 0.499754 0.884649
C10   C     C_R   0.879832 0.619855 0.499753 0.884676
C11   C     C_R   0.379826 0.880151 0.500248 0.884658
C12   C     C_R   0.379838 0.119860 0.500248 0.884702
C13   C     C_3   0.845556 0.226053 0.569026 -0.342522
C14   C     C_3   0.781716 0.290188 0.344652 -0.433437
C15   C     C_3   0.845536 0.773927 0.569211 -0.342689
C16   C     C_3   0.781827 0.709923 0.344629 -0.433132
C17   C     C_3   0.281751 0.790150 0.655365 -0.433313
C18   C     C_3   0.345553 0.726057 0.430905 -0.342568
C19   C     C_3   0.281911 0.210011 0.655373 -0.433051
C20   C     C_3   0.345512 0.273897 0.430638 -0.342707
C21   C     C_3   0.209258 0.720015 0.655302 0.393548
C22   C     C_3   0.274733 0.653160 0.434926 0.328257
C23   C     C_3   0.209420 0.280147 0.655316 0.393379
C24   C     C_3   0.274692 0.346795 0.434644 0.328436
C25   C     C_3   0.774741 0.153153 0.564969 0.328253
C26   C     C_3   0.709209 0.220066 0.344725 0.393537
C27   C     C_3   0.774704 0.846812 0.565236 0.328419
C28   C     C_3   0.709352 0.780076 0.344689 0.393462
C29   C     C_3   0.729340 0.344832 0.582483 -0.466944
C30   C     C_3   0.729308 0.655132 0.582315 -0.466915
C31   C     C_3   0.229329 0.844848 0.417573 -0.466954
C32   C     C_3   0.229283 0.155103 0.417836 -0.466978
C33   C     C_3   0.810564 0.311699 0.498986 -0.203790
C34   C     C_3   0.810582 0.688318 0.498984 -0.203792
C35   C     C_3   0.310571 0.811693 0.501017 -0.203759
C36   C     C_3   0.310592 0.188327 0.501018 -0.203834
C37   C     C_3   0.188349 0.690255 0.500196 -0.292773
C38   C     C_3   0.188369 0.309763 0.500200 -0.292732
C39   C     C_3   0.688345 0.190259 0.499804 -0.292759
C40   C     C_3   0.688358 0.809753 0.499798 -0.292788
C41   C     C_3   0.157834 0.772460 0.412919 1.195906
C42   C     C_3   0.157780 0.227483 0.413197 1.195871
C43   C     C_3   0.657860 0.272430 0.587163 1.196095
C44   C     C_3   0.657798 0.727505 0.586916 1.195886
C45   C     C_3   0.955739 0.578862 0.083802 0.454825
C46   C     C_3   0.955742 0.578868 0.916189 0.476066
C47   C     C_3   0.955763 0.421124 0.083802 0.454826
C48   C     C_3   0.955758 0.421122 0.916188 0.476133
C49   C     C_3   0.455764 0.078881 0.083814 0.476027
C50   C     C_3   0.455762 0.078874 0.916200 0.454831
C51   C     C_3   0.455736 0.921135 0.083814 0.476123
C52   C     C_3   0.455741 0.921138 0.916200 0.454810
Cu1   Cu    Cu3+1 0.000100 0.500000 0.642410 1.048082
Cu2   Cu    Cu3+1 0.000100 0.500000 0.357590 1.091579
Cu3   Cu    Cu3+1 0.500100 0.000000 0.642410 1.091596
Cu4   Cu    Cu3+1 0.500100 0.000000 0.357590 1.048050
H1    H     H_    0.864973 0.239541 0.680872 0.280311
H2    H     H_    0.757709 0.351154 0.291092 0.237811
H3    H     H_    0.864928 0.760368 0.681053 0.280328
H4    H     H_    0.757820 0.648993 0.290952 0.237836
H5    H     H_    0.257739 0.851106 0.708961 0.237823
H6    H     H_    0.364963 0.739573 0.319058 0.280328
H7    H     H_    0.257944 0.149109 0.709168 0.237862
H8    H     H_    0.364827 0.260282 0.318785 0.280277
H9    H     H_    0.232104 0.662300 0.718634 0.098835
H10   H     H_    0.298758 0.597222 0.501112 0.091333
H11   H     H_    0.232320 0.337920 0.718446 0.098685
H12   H     H_    0.298769 0.402795 0.500627 0.091503
H13   H     H_    0.798749 0.097254 0.498713 0.091360
H14   H     H_    0.732018 0.162376 0.281329 0.098943
H15   H     H_    0.798747 0.902799 0.499191 0.091521
H16   H     H_    0.732247 0.837822 0.281488 0.098730
H17   H     H_    0.748509 0.363290 0.692593 0.199882
H18   H     H_    0.702946 0.405582 0.531352 0.185585
H19   H     H_    0.748414 0.636655 0.692452 0.199899
H20   H     H_    0.702969 0.594382 0.531097 0.185542
H21   H     H_    0.202956 0.905601 0.468733 0.185578
H22   H     H_    0.248481 0.863308 0.307451 0.199902
H23   H     H_    0.202959 0.094394 0.469185 0.185595
H24   H     H_    0.248340 0.136552 0.307716 0.199849
H25   H     H_    0.128682 0.558607 0.122064 0.274792
H26   H     H_    0.128725 0.558581 0.877829 0.225824
H27   H     H_    0.128702 0.441439 0.122075 0.274844
H28   H     H_    0.128735 0.441441 0.877837 0.225964
H29   H     H_    0.628742 0.058545 0.122165 0.225758
H30   H     H_    0.628698 0.058568 0.877927 0.274764
H31   H     H_    0.628718 0.941405 0.122156 0.225950
H32   H     H_    0.628685 0.941401 0.877920 0.274836
N1    N     N_3   0.001260 0.500000 0.143650 -0.306641
N2    N     N_3   0.001260 0.500000 0.856350 -0.290019
N3    N     N_3   0.501260 0.000000 0.143650 -0.290003
N4    N     N_3   0.501260 0.000000 0.856350 -0.306642
O1    O     O_R   0.091250 0.408820 0.620260 -0.557909
O2    O     O_R   0.091250 0.408820 0.379740 -0.481667
O3    O     O_R   0.091250 0.591180 0.620260 -0.558129
O4    O     O_R   0.091250 0.591180 0.379740 -0.481712
O5    O     O_R   0.591250 0.908820 0.620260 -0.481686
O6    O     O_R   0.591250 0.908820 0.379740 -0.557990
O7    O     O_R   0.591250 0.091180 0.620260 -0.481667
O8    O     O_R   0.591250 0.091180 0.379740 -0.558178
O9    O     O_R   0.908940 0.408800 0.620260 -0.574516
O10   O     O_R   0.908940 0.408800 0.379740 -0.579741
O11   O     O_R   0.908940 0.591200 0.620260 -0.574526
O12   O     O_R   0.908940 0.591200 0.379740 -0.579738
O13   O     O_R   0.408940 0.908800 0.620260 -0.579729
O14   O     O_R   0.408940 0.908800 0.379740 -0.574496
O15   O     O_R   0.408940 0.091200 0.620260 -0.579769
O16   O     O_R   0.408940 0.091200 0.379740 -0.574557
H33   H     H_    0.905174 0.202739 0.512118 0.225011
H34   H     H_    0.838686 0.265240 0.282393 0.217781
H35   H     H_    0.905168 0.797297 0.512383 0.225003
H36   H     H_    0.838845 0.734879 0.282480 0.217885
H37   H     H_    0.338739 0.765202 0.717591 0.217824
H38   H     H_    0.405175 0.702723 0.487786 0.224993
H39   H     H_    0.338955 0.235009 0.717401 0.217889
H40   H     H_    0.405182 0.297281 0.487327 0.225027
F1    F     F_    0.135053 0.753690 0.721348 -0.519498
F2    F     F_    0.261129 0.620838 0.298924 -0.570932
F3    F     F_    0.135284 0.246535 0.721623 -0.519402
F4    F     F_    0.260969 0.378980 0.298602 -0.570900
F5    F     F_    0.761171 0.120774 0.700920 -0.570912
F6    F     F_    0.634997 0.253769 0.278790 -0.519583
F7    F     F_    0.761030 0.879027 0.701272 -0.570851
F8    F     F_    0.635188 0.746460 0.278476 -0.519459
F9    F     F_    0.080216 0.805747 0.467967 -0.625017
F10   F     F_    0.142514 0.749422 0.272564 -0.554205
F11   F     F_    0.080224 0.194244 0.468519 -0.625034
F12   F     F_    0.142319 0.250396 0.272842 -0.554129
F13   F     F_    0.642607 0.249352 0.727495 -0.554262
F14   F     F_    0.580223 0.305709 0.532239 -0.625057
F15   F     F_    0.642365 0.750473 0.727255 -0.554173
F16   F     F_    0.580236 0.694232 0.531678 -0.625048
F17   F     F_    0.994020 0.655624 0.134905 -0.517733
F18   F     F_    0.994048 0.655621 0.865130 -0.511166
F19   F     F_    0.994072 0.344374 0.134895 -0.517647
F20   F     F_    0.994073 0.344377 0.865119 -0.511045
F21   F     F_    0.494091 0.155623 0.134872 -0.511206
F22   F     F_    0.494065 0.155625 0.865096 -0.517733
F23   F     F_    0.494032 0.844379 0.134879 -0.511110
F24   F     F_    0.494029 0.844377 0.865105 -0.517697
H41   H     H_    0.886264 0.579274 0.119923 0.010434
H42   H     H_    0.886268 0.579329 0.880000 0.012693
H43   H     H_    0.886290 0.420686 0.119929 0.010444
H44   H     H_    0.886283 0.420650 0.880009 0.012623
H45   H     H_    0.386291 0.079362 0.120003 0.012742
H46   H     H_    0.386288 0.079307 0.880084 0.010459
H47   H     H_    0.386261 0.920682 0.119998 0.012638
H48   H     H_    0.386268 0.920719 0.880076 0.010456

loop_
_geom_bond_atom_site_label_1
_geom_bond_atom_site_label_2
_ccdc_geom_bond_type
C16   C28   S    
C9    C33   S    
Cu3   Cu4   S    
C6    H26   S    
C49   F21   S    
Cu1   O3    S    
C46   F18   S    
C3    O6    A    
Cu4   O6    S    
C30   C44   S    
C18   H38   S    
C14   C33   S    
C47   F19   S    
C17   H37   S    
C7    C8    S    
C46   H42   S    
Cu1   Cu2   S    
C44   F15   S    
Cu3   O13   S    
C32   C36   S    
Cu2   O12   S    
C10   O11   A    
C38   C42   S    
C19   C36   S    
C23   F3    S    
C5    C6    S    
C5    H27   S    
C26   C39   S    
C13   H1    S    
C28   C40   S    
C21   F1    S    
C47   H43   S    
C30   H20   S    
C48   H44   S    
C21   C37   S    
C14   H34   S    
C16   H4    S    
C23   H11   S    
Cu4   O16   S    
C13   H33   S    
C17   H5    S    
Cu4   N3    S    
C7    H31   S    
C20   C24   S    
C29   C33   S    
C19   H7    S    
C1    O2    A    
C11   O13   A    
C24   C38   S    
C8    N4    S    
C51   H47   S    
C12   C36   S    
C45   N1    S    
C18   C35   S    
C15   C34   S    
Cu2   O4    S    
C42   F12   S    
C51   N3    S    
C50   H46   S    
C10   O12   A    
C52   H48   S    
C48   N2    S    
C29   C43   S    
C45   H41   S    
C47   N1    S    
C13   C25   S    
C28   H16   S    
C49   N3    S    
Cu2   O10   S    
C31   H21   S    
C14   H2    S    
C24   F4    S    
C6    H28   S    
C30   C34   S    
Cu1   O1    S    
C51   C52   S    
C15   H35   S    
C43   F13   S    
Cu2   N1    S    
Cu1   O9    S    
C12   O16   A    
C27   F7    S    
C9    O10   A    
C39   C43   S    
C29   H18   S    
C45   C46   S    
C22   C37   S    
C1    O1    A    
C17   C21   S    
Cu3   O15   S    
C8    H32   S    
C20   H8    S    
C19   C23   S    
C13   C33   S    
Cu3   N4    S    
C41   F9    S    
C32   H24   S    
C5    H25   S    
C3    O5    A    
C15   C27   S    
C47   C48   S    
C4    C39   S    
C19   H39   S    
C27   C40   S    
C7    N3    S    
Cu3   O5    S    
C11   O14   A    
C28   F8    S    
C49   H45   S    
C10   C34   S    
C14   C26   S    
Cu4   O14   S    
C42   F11   S    
C1    C38   S    
C50   N4    S    
C3    C40   S    
C4    O8    A    
C26   H14   S    
C31   C35   S    
C52   N4    S    
C25   H13   S    
Cu4   O8    S    
C27   H15   S    
C16   H36   S    
C31   H22   S    
C20   H40   S    
C22   F2    S    
C2    O3    A    
C31   C41   S    
C21   H9    S    
C18   C22   S    
C15   H3    S    
C41   F10   S    
C48   F20   S    
C43   F14   S    
C18   H6    S    
C12   O15   A    
C50   F22   S    
C22   H10   S    
C46   N2    S    
C44   F16   S    
C23   C38   S    
C17   C35   S    
C45   F17   S    
C16   C34   S    
C2    O4    A    
C6    N2    S    
C25   C39   S    
C32   H23   S    
C30   H19   S    
C2    C37   S    
C7    H29   S    
Cu1   O11   S    
C11   C35   S    
C52   F24   S    
C8    H30   S    
C37   C41   S    
Cu2   O2    S    
C24   H12   S    
C20   C36   S    
C40   C44   S    
C29   H17   S    
C9    O9    A    
C49   C50   S    
C4    O7    A    
Cu3   O7    S    
Cu1   N2    S    
C32   C42   S    
C26   F6    S    
C25   F5    S    
C5    N1    S    
C51   F23   S    
