data_mof_unit_7151.cif
_audit_creation_date              2012-12-11T17:43:43-0500
_audit_creation_method            fapswitch 2.2
_symmetry_space_group_name_H-M    P1
_symmetry_Int_Tables_number       1
_space_group_crystal_system       triclinic
_cell_length_a                    15.072331
_cell_length_b                    14.987726
_cell_length_c                    16.887013
_cell_angle_alpha                 108.653336
_cell_angle_beta                  106.061792
_cell_angle_gamma                 109.248141
_cell_volume                      3085.33267238

loop_
_atom_site_label
_atom_site_type_symbol
_atom_type_description
_atom_site_fract_x
_atom_site_fract_y
_atom_site_fract_z
_atom_type_partial_charge
C1    C     C_R   0.091456 0.277785 0.023046 -0.117017
C2    C     C_R   0.103391 0.073717 0.955202 -0.226992
C3    C     C_R   0.010659 0.889222 0.917849 0.050866
C4    C     C_R   0.008668 0.076270 0.922784 0.052878
C5    C     C_R   0.105679 0.979373 0.948151 0.038010
C6    C     C_R   0.917141 0.978851 0.864381 0.026476
C7    C     C_R   0.839426 0.019726 0.737379 -0.124073
C8    C     C_R   0.295174 0.051980 0.048479 -0.186985
C9    C     C_R   0.653253 0.940225 0.649814 -0.130262
C10   C     C_R   0.397731 0.973223 0.995714 -0.010766
C11   C     C_R   0.518752 0.757600 0.351703 -0.131056
C12   C     C_R   0.916204 0.712100 0.919758 -0.121796
C13   C     C_R   0.441815 0.304159 0.723855 -0.125239
C14   C     C_R   0.516717 0.721487 0.263790 -0.114941
C15   C     C_R   0.475757 0.359463 0.818937 -0.115007
C16   C     C_R   0.936002 0.450943 0.734620 -0.110350
C17   C     C_R   0.065173 0.480215 0.253237 -0.136248
C18   C     C_R   0.544589 0.640527 0.232319 0.144832
C19   C     C_R   0.515529 0.469820 0.861261 0.118635
C20   C     C_R   0.576203 0.597687 0.291322 -0.256513
C21   C     C_R   0.522763 0.524665 0.807846 -0.241284
C22   C     C_R   0.578526 0.633859 0.380117 -0.125720
C23   C     C_R   0.027952 0.464125 0.725362 0.029779
C24   C     C_R   0.491088 0.469579 0.712153 -0.037927
C25   C     C_R   0.549617 0.714310 0.409639 -0.114938
C26   C     C_R   0.450045 0.358616 0.670633 -0.155855
C27   C     C_R   0.623171 0.586034 0.124561 -0.177405
C28   C     C_R   0.454176 0.542536 0.971748 -0.178678
C29   C     C_R   0.617944 0.546947 0.035226 0.122053
C30   C     C_R   0.456136 0.576889 0.059526 0.109197
C31   C     C_R   0.533158 0.525083 0.958193 0.001324
C32   C     C_R   0.540981 0.600894 0.137995 0.005565
C33   C     C_R   0.753781 0.005713 0.666349 -0.081929
C34   C     C_R   0.975239 0.417640 0.254723 0.035412
C35   C     C_R   0.390235 0.049701 0.063451 -0.090083
C36   C     C_R   0.967819 0.375268 0.321339 0.120790
C37   C     C_R   0.037600 0.418936 0.638911 0.128236
C38   C     C_R   0.142928 0.436641 0.553977 -0.209261
C39   C     C_R   0.863531 0.302086 0.392609 -0.202466
C40   C     C_R   0.721261 0.213899 0.822666 -0.114852
C41   C     C_R   0.223412 0.797636 0.187168 -0.087638
C42   C     C_R   0.135638 0.452071 0.637169 -0.171807
C43   C     C_R   0.870221 0.318889 0.317745 -0.157447
C44   C     C_R   0.947714 0.354988 0.555425 -0.260791
C45   C     C_R   0.666405 0.216049 0.743252 0.068611
C46   C     C_R   0.058492 0.402321 0.395711 -0.263984
C47   C     C_R   0.954128 0.344931 0.472743 0.178560
C48   C     C_R   0.052412 0.390941 0.472900 0.180208
C49   C     C_R   0.559075 0.141980 0.675204 0.132277
C50   C     C_R   0.281407 0.899820 0.359764 0.129242
C51   C     C_R   0.392219 0.088769 0.443175 -0.222680
C52   C     C_R   0.407870 0.971735 0.606789 -0.247370
C53   C     C_R   0.320585 0.999452 0.360847 -0.162898
C54   C     C_R   0.500577 0.051837 0.681604 -0.187469
C55   C     C_R   0.298602 0.893506 0.443344 -0.279874
C56   C     C_R   0.239733 0.803493 0.273985 0.031969
C57   C     C_R   0.517261 0.157338 0.598535 -0.304360
C58   C     C_R   0.374013 0.981673 0.525556 0.190947
C59   C     C_R   0.425681 0.077894 0.523736 0.171745
C60   C     C_R   0.637984 0.889962 0.705221 -0.062054
C61   C     C_R   0.310187 0.898835 0.912823 -0.050530
C62   C     C_R   0.723402 0.903920 0.776598 -0.109783
C63   C     C_R   0.214922 0.900642 0.897543 -0.164587
C64   C     C_R   0.301640 0.601078 0.008511 0.412780
C65   C     C_R   0.730065 0.456381 0.041140 0.455553
C66   C     C_R   0.825200 0.968692 0.793149 0.085179
C67   C     C_R   0.359938 0.569948 0.059979 -0.050677
C68   C     C_R   0.206500 0.976912 0.965543 0.098807
C69   C     C_R   0.727631 0.310072 0.746342 -0.146389
C70   C     C_R   0.217677 0.702282 0.265346 -0.125191
C71   C     C_R   0.296172 0.501798 0.081573 -0.212433
C72   C     C_R   0.744663 0.558228 0.968387 -0.187731
C73   C     C_R   0.109219 0.534357 0.812168 -0.113698
C74   C     C_R   0.893842 0.392971 0.175584 -0.065265
C75   C     C_R   0.917665 0.193070 0.948825 -0.130370
C76   C     C_R   0.087437 0.796477 0.999558 -0.129020
C77   C     C_R   0.006149 0.178705 0.960055 0.049657
C78   C     C_R   0.700566 0.528035 0.022403 -0.069902
C79   C     C_R   0.004990 0.803705 0.945648 0.049932
C80   C     C_2   0.613271 0.590138 0.443435 1.026377
C81   C     C_2   0.497379 0.526876 0.655108 1.001726
C82   C     C_R   0.917936 0.887017 0.867630 -0.206872
Cl1   Cl    Cl    0.351760 0.715429 0.993873 -0.753343
Cl2   Cl    Cl    0.665534 0.368095 0.077583 -0.751088
H1    H     H_    0.172612 0.296908 0.049717 0.098074
H2    H     H_    0.466900 0.316005 0.858982 0.140891
H3    H     H_    0.599591 0.536805 0.267915 0.146622
H4    H     H_    0.551036 0.609764 0.840841 0.160810
H5    H     H_    0.690819 0.604075 0.182929 0.147825
H6    H     H_    0.386083 0.520328 0.911405 0.138155
H7    H     H_    0.134393 0.442488 0.398664 0.120635
H8    H     H_    0.871700 0.323626 0.554838 0.120348
H9    H     H_    0.798579 0.294234 0.260516 0.141123
H10   H     H_    0.206894 0.496993 0.699963 0.127358
H11   H     H_    0.219024 0.469824 0.554691 0.140762
H12   H     H_    0.839078 0.684176 0.868499 0.101816
H13   H     H_    0.787574 0.265014 0.391079 0.137381
H14   H     H_    0.857563 0.402070 0.681503 0.102040
H15   H     H_    0.143807 0.500710 0.296057 0.093032
H16   H     H_    0.765372 0.044908 0.623558 0.115039
H17   H     H_    0.458125 0.107251 0.127601 0.128229
H18   H     H_    0.558866 0.227131 0.592651 0.134112
H19   H     H_    0.263696 0.818258 0.444085 0.122459
H20   H     H_    0.529156 0.039326 0.741214 0.128750
H21   H     H_    0.304168 0.008059 0.298019 0.120182
H22   H     H_    0.428957 0.163571 0.441966 0.147548
H23   H     H_    0.916895 0.069176 0.748032 0.116671
H24   H     H_    0.367736 0.898986 0.609777 0.134813
H25   H     H_    0.587176 0.928391 0.593917 0.119134
H26   H     H_    0.471374 0.971566 0.007463 0.125515
H27   H     H_    0.559880 0.839739 0.692546 0.132900
H28   H     H_    0.316121 0.839671 0.860415 0.132523
H29   H     H_    0.710014 0.864301 0.818795 0.129150
H30   H     H_    0.147731 0.842662 0.832915 0.128114
H31   H     H_    0.691355 0.160435 0.849821 0.101227
H32   H     H_    0.233548 0.861139 0.168227 0.095915
H33   H     H_    0.704505 0.347258 0.704901 0.105422
H34   H     H_    0.290415 0.111378 0.101775 0.120966
H35   H     H_    0.222811 0.677002 0.318732 0.099028
H36   H     H_    0.319321 0.468797 0.127238 0.133783
H37   H     H_    0.733741 0.609308 0.937873 0.134458
H38   H     H_    0.190865 0.560470 0.830627 0.143175
H39   H     H_    0.817156 0.328180 0.145614 0.155571
H40   H     H_    0.837509 0.134174 0.909553 0.112425
H41   H     H_    0.168955 0.846279 0.024945 0.134730
H42   H     H_    0.846167 0.813952 0.830379 0.139519
H43   H     H_    0.176089 0.145054 0.986529 0.127315
H44   H     H_    0.554620 0.440940 0.341865 0.281127
H45   H     H_    0.550172 0.743061 0.477383 0.134806
H46   H     H_    0.465440 0.517883 0.527757 0.333720
H47   H     H_    0.423074 0.313689 0.596901 0.159809
H48   H     H_    0.496544 0.819511 0.375109 0.122565
H49   H     H_    0.407000 0.218566 0.691160 0.143011
H50   H     H_    0.493929 0.757258 0.220509 0.141944
N1    N     N_R   0.055660 0.348550 0.045620 -0.041765
N2    N     N_R   0.185200 0.638170 0.176300 -0.042530
N3    N     N_R   0.201680 0.494570 0.045620 -0.061863
N4    N     N_R   0.798320 0.505430 0.954380 -0.060645
N5    N     N_R   0.068420 0.560530 0.871650 -0.032419
N6    N     N_R   0.931580 0.439470 0.128350 -0.048880
N7    N     N_R   0.948070 0.295860 0.997670 -0.045471
N8    N     N_R   0.051930 0.704140 0.002330 -0.042367
N9    N     N_R   0.944340 0.651450 0.954380 -0.043125
N10   N     N_R   0.960830 0.507850 0.823700 -0.045061
N11   N     N_R   0.039170 0.492150 0.176300 -0.045332
N12   N     N_R   0.811290 0.303410 0.871650 -0.044017
N13   N     N_R   0.188710 0.696590 0.128350 -0.034178
N14   N     N_R   0.205200 0.552990 0.997670 -0.080690
N15   N     N_R   0.794800 0.447010 0.002330 -0.081365
N16   N     N_R   0.814800 0.361830 0.823700 -0.043711
Ni1   Ni    Ni4+2 0.119340 0.493420 0.109960 0.207007
Ni2   Ni    Ni4+2 0.880660 0.506580 0.890040 0.216324
Ni3   Ni    Ni4+2 0.872590 0.372590 0.000000 0.235171
Ni4   Ni    Ni4+2 0.127410 0.627410 0.000000 0.267661
O1    O     O_2   0.654150 0.645945 0.526920 -0.592117
O2    O     O_R   0.600042 0.486115 0.410497 -0.761779
O3    O     O_2   0.536020 0.623692 0.691551 -0.663904
O4    O     O_R   0.458553 0.470167 0.559162 -0.802205

loop_
_geom_bond_atom_site_label_1
_geom_bond_atom_site_label_2
_ccdc_geom_bond_type
C9    C33   A    
C12   C79   A    
C6    C82   A    
C72   H37   S    
C27   C29   A    
C1    C77   A    
C14   C18   A    
N3    N14   A    
C17   N11   A    
C76   C79   A    
C19   C31   S    
C11   H48   S    
C8    H34   S    
C71   N3    A    
C15   C19   A    
C57   H18   S    
C6    C66   S    
C71   H36   S    
C69   N16   A    
C54   H20   S    
C19   C21   A    
C24   C26   A    
C38   C42   A    
C41   C56   A    
C11   C14   A    
C39   H13   S    
C40   H31   S    
C11   C25   A    
C49   C54   A    
C20   H3    S    
C55   H19   S    
C49   C57   A    
C60   C62   A    
C37   C42   A    
C61   C63   A    
N13   Ni4   S    
N15   Ni3   S    
C82   H42   S    
C72   C78   A    
C75   N7    A    
N12   N16   A    
C63   H30   S    
C29   C78   S    
C22   C25   A    
C38   H11   S    
C36   C46   A    
C10   C35   A    
C65   C78   A    
C18   C20   A    
C30   C67   S    
C44   H8    S    
C44   C47   A    
N6    Ni3   S    
C2    H43   S    
C72   N4    A    
C74   H39   S    
C21   H4    S    
C25   H45   S    
C64   N14   A    
C7    H23   S    
C70   N2    A    
C76   H41   S    
C7    C33   A    
N14   Ni4   S    
C23   C73   A    
C5    C68   S    
C52   C54   A    
C80   O2    S    
N4    N15   A    
C1    H1    S    
C40   C45   A    
C46   C48   A    
C50   C53   A    
C81   O3    D    
C62   C66   A    
C45   C69   A    
C75   H40   S    
C64   C67   A    
C62   H29   S    
C4    C6    A    
C65   Cl2   S    
C39   C43   A    
C46   H7    S    
C14   H50   S    
N5    Ni4   S    
N4    Ni2   S    
C58   C59   A    
C23   C37   S    
C74   N6    A    
C50   C56   S    
C51   C53   A    
C8    C35   A    
C2    C4    A    
C24   C81   S    
C64   Cl1   S    
C17   H15   S    
N5    N10   A    
C47   C48   A    
C41   N13   A    
C45   C49   S    
C70   H35   S    
C3    C82   A    
N8    Ni4   S    
C75   C77   A    
C3    C79   S    
N11   Ni1   S    
C52   C58   A    
C34   C74   A    
C15   H2    S    
N9    Ni2   S    
C20   C22   A    
C8    C68   A    
C16   C23   A    
C56   C70   A    
C13   C15   A    
N16   Ni2   S    
C13   C26   A    
C21   C24   A    
C10   C61   A    
C18   C32   S    
C17   C34   A    
C41   H32   S    
C9    H25   S    
C3    C5    A    
N2    Ni1   S    
C80   O1    D    
C39   C47   A    
C10   H26   S    
C63   C68   A    
C81   O4    S    
C16   N10   A    
C27   C32   A    
C42   H10   S    
C38   C48   A    
C28   C31   A    
N3    Ni1   S    
C35   H17   S    
N6    N11   A    
C2    C5    A    
C73   N5    A    
C50   C55   A    
C12   N9    A    
C40   N12   A    
H46   O4    S    
C33   H16   S    
C9    C60   A    
C37   C44   A    
C28   C30   A    
C22   C80   S    
C4    C77   S    
N10   Ni2   S    
C60   H27   S    
C7    C66   A    
C30   C32   A    
N7    Ni3   S    
N12   Ni3   S    
C51   H22   S    
N1    Ni1   S    
C69   H33   S    
C43   H9    S    
C34   C36   S    
C27   H5    S    
C67   C71   A    
C65   N15   A    
C13   H49   S    
N2    N13   A    
C57   C59   A    
H44   O2    S    
C16   H14   S    
C53   H21   S    
N1    N7    A    
C51   C59   A    
C52   H24   S    
C29   C31   A    
C73   H38   S    
C55   C58   A    
N8    N9    A    
C12   H12   S    
C36   C43   A    
C28   H6    S    
C1    N1    A    
C61   H28   S    
C26   H47   S    
C76   N8    A    
