data_mof_unit_20546.cif
_audit_creation_date              2012-12-10T16:54:06-0500
_audit_creation_method            fapswitch 2.2
_symmetry_space_group_name_H-M    P1
_symmetry_Int_Tables_number       1
_space_group_crystal_system       triclinic
_cell_length_a                    9.749774
_cell_length_b                    10.90807
_cell_length_c                    13.462703
_cell_angle_alpha                 90.671861
_cell_angle_beta                  72.578479
_cell_angle_gamma                 89.956765
_cell_volume                      1365.98881511

loop_
_atom_site_label
_atom_site_type_symbol
_atom_type_description
_atom_site_fract_x
_atom_site_fract_y
_atom_site_fract_z
_atom_type_partial_charge
C1    C     C_R   0.502433 0.734176 0.494897 0.812542
C2    C     C_R   0.444968 0.446121 0.975715 0.083303
C3    C     C_R   0.489409 0.442363 0.865277 0.083225
C4    C     C_R   0.550611 0.461887 0.028357 0.066642
C5    C     C_R   0.698028 0.464942 0.970283 0.164167
C6    C     C_R   0.739934 0.438886 0.864274 -0.192112
C7    C     C_R   0.637171 0.421956 0.813532 -0.170738
C8    C     C_R   0.514486 0.478837 0.136484 -0.211415
C9    C     C_R   0.765030 0.503421 0.126937 -0.173749
C10   C     C_R   0.384183 0.457011 0.811465 -0.108353
C11   C     C_2   0.605123 0.065545 0.509733 -0.097595
C12   C     C_R   0.424362 0.486494 0.699006 0.801081
C13   C     C_2   0.489722 0.134303 0.516297 -0.216802
C14   C     C_2   0.589284 0.933231 0.521880 -0.303756
C15   C     C_2   0.514315 0.864003 0.472890 0.317574
C16   C     C_2   0.057982 0.590067 0.534034 0.455105
C17   C     C_2   0.921326 0.596722 0.505290 -0.124145
C18   C     C_R   0.498206 0.265658 0.503742 0.819348
C19   C     C_R   0.577015 0.500411 0.300202 0.849313
C20   C     C_R   0.802770 0.490387 0.019201 -0.165590
C21   C     C_R   0.620636 0.495044 0.186226 -0.029156
C22   C     C_R   0.238255 0.445801 0.867464 -0.154326
C23   C     C_R   0.196866 0.427074 0.974341 -0.140381
C24   C     C_R   0.297257 0.432094 0.028662 -0.156403
Cu1   Cu    Cu3+1 0.361370 0.499980 0.499980 1.051468
Cu2   Cu    Cu3+1 0.638630 0.500020 0.500020 0.965433
H1    H     H_    0.848340 0.519631 0.163601 0.160168
H2    H     H_    0.384236 0.092744 0.533373 0.200959
H3    H     H_    0.638122 0.891639 0.576164 0.144808
H4    H     H_    0.129161 0.438386 0.451027 0.165511
H5    H     H_    0.875390 0.686237 0.500848 0.185187
H6    H     H_    0.887350 0.418588 0.515574 0.187737
H7    H     H_    0.852730 0.430037 0.820486 0.151967
H8    H     H_    0.913486 0.500523 0.973135 0.139402
H9    H     H_    0.403950 0.480221 0.183778 0.157155
H10   H     H_    0.156007 0.449716 0.828469 0.165718
H11   H     H_    0.255981 0.420509 0.111658 0.131814
H12   H     H_    0.085948 0.410690 0.016893 0.139344
H13   H     H_    0.677081 0.388254 0.734566 0.177420
H14   H     H_    0.709462 0.106286 0.501615 0.175123
N1    N     N_2   0.152660 0.501340 0.501130 -0.341798
N2    N     N_2   0.846520 0.501370 0.501160 -0.309288
O1    O     O_R   0.382960 0.678040 0.499980 -0.470570
O2    O     O_R   0.617100 0.678080 0.500020 -0.609312
O3    O     O_R   0.325800 0.499940 0.650950 -0.533706
O4    O     O_R   0.559930 0.499980 0.650990 -0.583194
O5    O     O_R   0.382900 0.321920 0.499980 -0.577534
O6    O     O_R   0.617040 0.321960 0.500020 -0.593427
O7    O     O_R   0.440070 0.500020 0.349010 -0.574684
O8    O     O_R   0.674200 0.500060 0.349050 -0.575018
S1    S     S_3+6 0.463745 0.913550 0.363070 0.029196
O9    O     O_2   0.317637 0.972704 0.397576 -0.261113
O10   O     O_2   0.571486 0.003624 0.301116 -0.281284
O11   O     O_3   0.458091 0.791451 0.286902 -0.545018
H15   H     H_    0.429496 0.824983 0.227929 0.379165
S2    S     S_3+6 0.074752 0.713442 0.616960 0.040131
O12   O     O_2   0.160044 0.681716 0.688954 -0.247226
O13   O     O_2   0.143084 0.820749 0.551995 -0.268681
O14   O     O_3   0.908983 0.755521 0.690854 -0.529828
H16   H     H_    0.879107 0.822520 0.652665 0.346198

loop_
_geom_bond_atom_site_label_1
_geom_bond_atom_site_label_2
_ccdc_geom_bond_type
C2    C4    A    
C23   C24   A    
C16   S2    S    
H4    N1    S    
C6    C7    A    
C1    C15   S    
C15   S1    S    
C23   H12   S    
C22   H10   S    
Cu1   O5    S    
C9    C20   A    
S2    O14   S    
Cu2   O6    S    
C4    C8    A    
S1    O11   S    
C20   H8    S    
C18   O5    A    
Cu1   O1    S    
C24   H11   S    
Cu2   O2    S    
O14   H16   S    
C13   H2    S    
C3    C10   A    
C6    H7    S    
C10   C22   A    
C11   C13   D    
C19   O8    A    
C9    C21   A    
C5    C6    A    
C10   C12   S    
C13   C18   S    
C7    H13   S    
C19   C21   S    
S2    O13   D    
C2    C3    A    
C3    C7    A    
Cu2   O8    S    
Cu2   N2    S    
C2    C24   A    
C11   H14   S    
C17   H5    S    
C11   C14   S    
Cu1   O7    S    
C16   C17   S    
Cu2   O4    S    
C14   H3    S    
S1    O9    D    
Cu1   O3    S    
C17   N2    D    
S2    O12   D    
C9    H1    S    
C12   O4    A    
Cu1   N1    S    
C5    C20   A    
C19   O7    A    
O11   H15   S    
C4    C5    A    
H6    N2    S    
C1    O2    A    
Cu1   Cu2   S    
C14   C15   D    
C16   N1    D    
C1    O1    A    
C22   C23   A    
C18   O6    A    
C12   O3    A    
S1    O10   D    
C8    H9    S    
C8    C21   A    
