data_mof_unit_23059.cif
_audit_creation_date              2012-12-11T15:14:46-0500
_audit_creation_method            fapswitch 2.2
_symmetry_space_group_name_H-M    P1
_symmetry_Int_Tables_number       1
_space_group_crystal_system       triclinic
_cell_length_a                    22.293051
_cell_length_b                    7.233141
_cell_length_c                    19.247951
_cell_angle_alpha                 89.797956
_cell_angle_beta                  99.029957
_cell_angle_gamma                 89.788161
_cell_volume                      3065.19510932

loop_
_atom_site_label
_atom_site_type_symbol
_atom_type_description
_atom_site_fract_x
_atom_site_fract_y
_atom_site_fract_z
_atom_type_partial_charge
O1    O     O_R   0.448470 0.506130 0.415700 -0.530532
O2    O     O_R   0.551530 0.006130 0.584300 -0.526233
O3    O     O_R   0.436320 0.174490 0.555800 -0.538055
O4    O     O_R   0.563680 0.674490 0.444200 -0.541492
C1    C     C_R   0.421444 0.344270 0.575519 0.792308
C2    C     C_R   0.578607 0.844222 0.424523 0.788342
O5    O     O_R   0.441350 0.176340 0.414480 -0.539539
O6    O     O_R   0.558650 0.676340 0.585520 -0.542988
O7    O     O_R   0.556600 0.007100 0.441970 -0.525419
O8    O     O_R   0.443400 0.507100 0.558030 -0.530327
C3    C     C_R   0.427134 0.345241 0.389151 0.803420
C4    C     C_R   0.573055 0.844389 0.610774 0.801175
O9    O     O_3   0.537810 0.339550 0.509190 -0.377953
O10   O     O_3   0.462190 0.839550 0.490810 -0.379868
V1    V     V_3+5 0.492990 0.064280 0.498300 1.501537
V2    V     V_3+5 0.507010 0.564280 0.501700 1.492095
C5    C     C_R   0.864425 0.033564 0.698713 -0.125394
C6    C     C_R   0.129125 0.400870 0.304633 -0.124821
H1    H     H_    0.950445 0.069342 0.764232 0.131626
H2    H     H_    0.041972 0.416702 0.239587 0.131294
H3    H     H_    0.783527 0.026308 0.582976 0.150252
H4    H     H_    0.210050 0.393343 0.420514 0.149400
H5    H     H_    0.881548 0.083057 0.652376 0.127062
H6    H     H_    0.109306 0.395414 0.352542 0.126787
C7    C     C_R   0.884693 0.948276 0.821747 -0.133339
C8    C     C_R   0.114756 0.435089 0.178199 -0.130612
C9    C     C_R   0.590417 0.818303 0.739175 -0.235061
C10   C     C_R   0.410269 0.326198 0.260786 -0.234119
C11   C     C_R   0.624098 0.846702 0.805474 -0.045655
C12   C     C_R   0.373907 0.296343 0.196203 -0.043235
C13   C     C_R   0.685491 0.899660 0.812413 -0.015709
C14   C     C_R   0.310155 0.300250 0.190604 -0.016681
C15   C     C_R   0.715646 0.902222 0.752196 -0.018542
C16   C     C_R   0.282423 0.358310 0.248985 -0.018755
C17   C     C_R   0.678460 0.894867 0.684002 -0.055563
C18   C     C_R   0.320291 0.367838 0.316668 -0.054698
C19   C     C_R   0.780361 0.926624 0.756504 -0.043336
C20   C     C_R   0.218067 0.391860 0.244240 -0.044807
C21   C     C_R   0.803281 0.983687 0.695127 -0.014747
C22   C     C_R   0.192335 0.392225 0.307173 -0.015362
C23   C     C_R   0.765509 0.987807 0.630122 -0.220196
C24   C     C_R   0.229689 0.388057 0.372462 -0.220639
C25   C     C_R   0.704985 0.936198 0.623807 0.569329
C26   C     C_R   0.292510 0.384542 0.377470 0.569086
C27   C     C_R   0.823863 0.890884 0.818112 0.567260
C28   C     C_R   0.178250 0.432642 0.180261 0.566516
C29   C     C_R   0.903993 0.023276 0.762110 -0.255449
C30   C     C_R   0.090694 0.415325 0.240483 -0.266014
C31   C     C_R   0.615455 0.851439 0.678324 -0.083179
C32   C     C_R   0.384682 0.352208 0.321672 -0.082552
H7    H     H_    0.542786 0.781739 0.734768 0.111510
H8    H     H_    0.459283 0.316399 0.264590 0.110374
C33   C     C_3   0.773942 0.802478 0.307985 -0.181396
C34   C     C_3   0.226082 0.303653 0.691979 -0.181073
C35   C     C_3   0.797958 0.988455 0.282691 -0.128865
C36   C     C_3   0.201905 0.489592 0.717178 -0.129140
H9    H     H_    0.837892 0.065331 0.309683 0.125274
H10   H     H_    0.161910 0.567534 0.690144 0.125516
H11   H     H_    0.793834 0.723936 0.355795 0.124678
H12   H     H_    0.206265 0.226202 0.644202 0.124312
H13   H     H_    0.717303 0.203800 0.282930 0.122834
H14   H     H_    0.282382 0.703697 0.716839 0.122768
C37   C     C_1   0.874944 0.940868 0.120762 -0.130094
C38   C     C_1   0.124998 0.440637 0.879184 -0.129793
C39   C     C_1   0.624495 0.853299 0.378722 -0.134278
C40   C     C_1   0.375537 0.353435 0.621294 -0.132105
C41   C     C_3   0.766769 0.730528 0.231780 -0.015289
C42   C     C_3   0.233309 0.230350 0.768222 -0.015207
C43   C     C_3   0.790628 0.913669 0.206875 0.121424
C44   C     C_3   0.209294 0.413457 0.793032 0.121688
C45   C     C_3   0.700932 0.803913 0.216440 -0.181099
C46   C     C_3   0.299085 0.302472 0.783533 -0.181595
C47   C     C_3   0.708509 0.879232 0.292244 0.135026
C48   C     C_3   0.291451 0.379149 0.707693 0.134942
C49   C     C_3   0.725157 0.989890 0.191389 -0.098474
C50   C     C_3   0.274702 0.488414 0.808485 -0.098992
C51   C     C_3   0.731978 0.064835 0.267729 -0.097517
C52   C     C_3   0.267822 0.564709 0.732109 -0.097106
C53   C     C_1   0.836804 0.930184 0.159340 -0.002024
C54   C     C_1   0.163121 0.429924 0.840579 -0.003439
C55   C     C_1   0.662482 0.863600 0.339925 -0.038722
C56   C     C_1   0.337517 0.363658 0.660054 -0.039397
H15   H     H_    0.705320 0.067821 0.143415 0.149239
H16   H     H_    0.294478 0.565283 0.856410 0.147664
H17   H     H_    0.661132 0.726464 0.189409 0.135154
H18   H     H_    0.338948 0.223962 0.810608 0.135296
O11   O     O_R   0.056650 0.288730 0.942060 -0.536988
O12   O     O_R   0.943350 0.788730 0.057940 -0.533373
O13   O     O_R   0.058660 0.616870 0.085540 -0.530124
O14   O     O_R   0.941340 0.116870 0.914460 -0.543622
C57   C     C_R   0.072745 0.447950 0.110947 0.759149
C58   C     C_R   0.927216 0.949439 0.888943 0.753804
O15   O     O_R   0.063700 0.618520 0.944220 -0.531030
O16   O     O_R   0.936300 0.118520 0.055780 -0.534595
O17   O     O_R   0.948460 0.787610 0.915680 -0.521794
O18   O     O_R   0.051540 0.287610 0.084320 -0.541990
C59   C     C_R   0.078939 0.450040 0.924744 0.729826
C60   C     C_R   0.921034 0.950112 0.075242 0.724367
O19   O     O_3   0.962230 0.453430 0.990860 -0.371117
O20   O     O_3   0.037770 0.953430 0.009140 -0.375876
V3    V     V_3+5 0.007010 0.728750 0.001700 1.530436
V4    V     V_3+5 0.992990 0.228750 0.998300 1.497904
C61   C     C_1   0.786462 0.547646 0.211361 0.288002
N1    N     N_1   0.802260 0.403966 0.194976 -0.362732
C62   C     C_1   0.213755 0.047471 0.788752 0.289183
N2    N     N_1   0.198062 0.903806 0.805230 -0.361475
F1    F     F_    0.809562 0.787616 0.872155 -0.692514
F2    F     F_    0.200104 0.488678 0.121702 -0.695725
C63   C     C_1   0.712255 0.983771 0.878319 0.414336
N3    N     N_1   0.733199 0.051606 0.930920 -0.307583
C64   C     C_1   0.275419 0.210078 0.130125 0.413404
N4    N     N_1   0.248024 0.137027 0.081934 -0.292530
C65   C     C_1   0.593480 0.829495 0.866102 0.316140
N5    N     N_1   0.568984 0.815723 0.914602 -0.317588
C66   C     C_1   0.403378 0.251049 0.136597 0.318954
N6    N     N_1   0.426955 0.214856 0.088911 -0.316382
F3    F     F_    0.672505 0.933656 0.558061 -0.717256
F4    F     F_    0.325422 0.391399 0.442920 -0.719924

loop_
_geom_bond_atom_site_label_1
_geom_bond_atom_site_label_2
_ccdc_geom_bond_type
C45   C49   S    
C14   C64   S    
O18   V4    S    
C9    C11   A    
C23   C25   A    
C64   N4    T    
O1    C3    A    
C46   C50   S    
O2    C4    A    
C50   H16   S    
C2    O7    A    
O12   V3    S    
C33   H11   S    
C41   C61   S    
C21   C23   A    
C37   C53   T    
O5    C3    A    
C5    H5    S    
C6    H6    S    
C20   C22   A    
C50   C52   S    
C37   C60   S    
C35   C51   S    
H1    C29   S    
C34   C42   S    
O16   C60   A    
C7    C27   A    
C66   N6    T    
C36   C52   S    
C5    C21   A    
C6    C22   A    
O14   V4    S    
C57   O18   A    
C34   C48   S    
C39   C55   T    
C2    C39   S    
H13   C51   S    
C28   F2    S    
C17   C31   A    
C13   C15   A    
O13   C57   A    
C17   C25   A    
C7    C29   A    
C16   C18   A    
C8    C30   A    
C22   C24   A    
O6    V2    S    
C45   H17   S    
C38   C54   T    
C24   C26   A    
C48   C56   S    
C47   C55   S    
C9    H7    S    
C4    C31   S    
C12   C66   S    
C33   C35   S    
C34   C36   S    
C44   C54   S    
C46   C48   S    
O15   V3    S    
C45   C47   S    
C10   C32   A    
C34   H12   S    
C8    C57   S    
C58   O17   A    
C15   C19   A    
C42   C46   S    
C41   C43   S    
C14   C16   A    
O4    V2    S    
C40   C56   T    
O11   V4    S    
O14   C58   A    
C26   F4    S    
O6    C4    A    
C13   C63   S    
O1    V2    S    
H2    C30   S    
O2    V1    S    
C49   C51   S    
C35   C43   S    
C25   F3    S    
H3    C23   S    
O4    C2    A    
C38   C59   S    
C36   C44   S    
C35   H9    S    
C44   C50   S    
C43   C53   S    
C42   C62   S    
C19   C27   A    
O15   C59   A    
C18   C32   A    
C65   N5    T    
C11   C65   S    
C7    C58   S    
O13   V3    S    
C16   C20   A    
H14   C52   S    
C33   C47   S    
C5    C29   A    
C1    C40   S    
O3    C1    A    
C6    C30   A    
C46   H18   S    
C62   N2    T    
O17   V3    S    
C10   C12   A    
O7    V1    S    
C1    O8    A    
C11   C13   A    
C3    C32   S    
O8    V2    S    
C63   N3    T    
C12   C14   A    
C10   H8    S    
C49   H15   S    
H4    C24   S    
O5    V1    S    
O20   V3    S    
C15   C17   A    
C36   H10   S    
C43   C49   S    
C41   C45   S    
C33   C41   S    
C20   C28   A    
C18   C26   A    
C8    C28   A    
C27   F1    S    
O19   V4    S    
O16   V4    S    
C19   C21   A    
C48   C52   S    
O9    V2    S    
C61   N1    T    
C42   C44   S    
C47   C51   S    
O10   V1    S    
O3    V1    S    
O12   C60   A    
C9    C31   A    
O11   C59   A    
