data_mof_unit_11348.cif
_audit_creation_date              2012-10-26T20:50:49-0400
_audit_creation_method            fapswitch 2.2
_symmetry_space_group_name_H-M    P1
_symmetry_Int_Tables_number       1
_space_group_crystal_system       triclinic
_cell_length_a                    11.040813
_cell_length_b                    10.821047
_cell_length_c                    9.550563
_cell_angle_alpha                 90.060274
_cell_angle_beta                  102.977803
_cell_angle_gamma                 90.153762
_cell_volume                      1111.88497975

loop_
_atom_site_label
_atom_site_type_symbol
_atom_type_description
_atom_site_fract_x
_atom_site_fract_y
_atom_site_fract_z
_atom_type_partial_charge
C1    C     C_R   0.497657 0.262346 0.499295 0.547694
C2    C     C_R   0.432076 0.416203 0.056682 -0.020348
C3    C     C_R   0.432045 0.416209 0.907808 -0.019534
C4    C     C_R   0.262617 0.497154 0.441468 0.557807
C5    C     C_R   0.558603 0.592107 0.941550 0.159405
C6    C     C_3   0.693522 0.623007 0.971372 -0.287554
C7    C     C_3   0.692827 0.624945 0.129796 -0.277125
C8    C     C_R   0.498062 0.737687 0.499476 0.549114
C9    C     C_R   0.737746 0.500266 0.558917 0.557024
C10   C     C_2   0.127240 0.490200 0.408951 -0.138865
C11   C     C_2   0.069546 0.471114 0.515830 -0.166562
C12   C     C_R   0.485355 0.129236 0.495859 0.007220
C13   C     C_2   0.874196 0.500735 0.594696 -0.015697
C14   C     C_2   0.934305 0.472668 0.490620 -0.148956
C15   C     C_R   0.485553 0.063786 0.621714 0.017896
C16   C     C_3   0.941889 0.537611 0.745684 -0.254476
C17   C     C_3   0.972058 0.423843 0.842677 -0.302671
C18   C     C_3   0.045642 0.459932 0.992067 -0.457449
C19   C     C_R   0.467975 0.064227 0.365260 -0.164456
C20   C     C_R   0.468362 0.935379 0.365409 -0.164212
C21   C     C_R   0.486095 0.870807 0.496153 0.007104
C22   C     C_R   0.486108 0.936596 0.621896 0.025155
C23   C     C_3   0.574353 0.931003 0.765371 -0.271361
C24   C     C_3   0.573275 0.071289 0.765431 -0.267427
C25   C     C_R   0.558238 0.592431 0.088825 0.159077
Cu1   Cu    Cu3+1 0.499990 0.499980 0.640670 0.928251
Cu2   Cu    Cu3+1 0.500010 0.500020 0.359330 0.926958
H1    H     H_    0.882681 0.450944 0.382638 0.134495
H2    H     H_    0.460078 0.112239 0.264159 0.127930
H3    H     H_    0.460684 0.887085 0.264375 0.133633
H4    H     H_    0.530824 0.889943 0.848868 0.136395
H5    H     H_    0.665953 0.891472 0.759506 0.127425
H6    H     H_    0.528570 0.111212 0.848510 0.132317
H7    H     H_    0.136131 0.501981 0.985559 0.162412
H8    H     H_    0.991971 0.527023 0.041943 0.144655
H9    H     H_    0.063916 0.376418 0.060965 0.141428
H10   H     H_    0.884258 0.377727 0.852553 0.170658
H11   H     H_    0.027380 0.356549 0.795247 0.156230
H12   H     H_    0.664322 0.113146 0.760389 0.136798
H13   H     H_    0.027648 0.590944 0.743898 0.142766
H14   H     H_    0.883258 0.602222 0.791850 0.141035
H15   H     H_    0.074802 0.502928 0.299472 0.094217
H16   H     H_    0.378938 0.346920 0.098569 0.110219
H17   H     H_    0.378896 0.346910 0.838198 0.112727
H18   H     H_    0.749888 0.546089 0.942988 0.150944
H19   H     H_    0.711664 0.715017 0.928935 0.112848
H20   H     H_    0.750605 0.550538 0.190499 0.145770
H21   H     H_    0.708714 0.718518 0.178715 0.124389
H22   H     H_    0.123299 0.457031 0.624503 0.159874
N1    N     N_R   0.500780 0.500930 0.148120 -0.229603
N2    N     N_R   0.500790 0.500890 0.852210 -0.230291
O1    O     O_R   0.500000 0.319640 0.618810 -0.504903
O2    O     O_R   0.500010 0.319680 0.381230 -0.511173
O3    O     O_R   0.320680 0.500000 0.575130 -0.500479
O4    O     O_R   0.320690 0.500040 0.337550 -0.499503
O5    O     O_R   0.499990 0.680320 0.618770 -0.494658
O6    O     O_R   0.500000 0.680360 0.381190 -0.504661
O7    O     O_R   0.679310 0.499960 0.662450 -0.503676
O8    O     O_R   0.679320 0.500000 0.424870 -0.506230

loop_
_geom_bond_atom_site_label_1
_geom_bond_atom_site_label_2
_ccdc_geom_bond_type
C23   C24   S    
Cu2   O2    S    
C6    C7    S    
C11   H22   S    
C6    H18   S    
Cu1   O1    S    
C8    O6    A    
C10   H15   S    
C6    H19   S    
C18   H8    S    
C9    O8    A    
C19   C20   A    
C7    C25   S    
C12   C15   A    
C2    H16   S    
C4    O3    A    
C7    H21   S    
C8    O5    A    
C2    C3    A    
Cu2   O8    S    
Cu1   N2    S    
C20   H3    S    
C1    O2    A    
C18   H7    S    
Cu1   Cu2   S    
C1    C12   S    
Cu1   O5    S    
C16   H13   S    
C5    C25   A    
Cu1   O3    S    
C12   C19   A    
C21   C22   A    
C15   C24   S    
C11   C14   S    
C3    N2    A    
C8    C21   S    
C17   H11   S    
C4    O4    A    
C5    C6    S    
C1    O1    A    
Cu2   O4    S    
C3    H17   S    
C10   C11   D    
C4    C10   S    
C19   H2    S    
C24   H12   S    
C20   C21   A    
Cu2   N1    S    
C17   C18   S    
C9    O7    A    
Cu2   O6    S    
C13   C16   S    
C9    C13   S    
C22   C23   S    
C5    N2    A    
C17   H10   S    
C2    N1    A    
C14   H1    S    
C13   C14   D    
C18   H9    S    
C25   N1    A    
Cu1   O7    S    
C15   C22   A    
C24   H6    S    
C23   H5    S    
C23   H4    S    
C16   C17   S    
C16   H14   S    
C7    H20   S    
