data_mof_unit_64135.cif
_audit_creation_date              2012-12-10T17:41:59-0500
_audit_creation_method            fapswitch 2.2
_symmetry_space_group_name_H-M    P1
_symmetry_Int_Tables_number       1
_space_group_crystal_system       monoclinic
_cell_length_a                    30.399745
_cell_length_b                    30.399819
_cell_length_c                    23.674837
_cell_angle_alpha                 89.981703
_cell_angle_beta                  90.0
_cell_angle_gamma                 90.0
_cell_volume                      21879.0224516

loop_
_atom_site_label
_atom_site_type_symbol
_atom_type_description
_atom_site_fract_x
_atom_site_fract_y
_atom_site_fract_z
_atom_type_partial_charge
C1    C     C_R   0.585109 0.000000 0.500000 0.934330
C2    C     C_R   0.000000 0.585109 0.500003 0.934302
C3    C     C_R   0.414891 0.000000 0.500000 0.934303
C4    C     C_R   0.000000 0.414891 0.499997 0.934302
C5    C     C_R   0.085109 0.500000 0.000000 0.934290
C6    C     C_R   0.500000 0.085109 0.000002 0.934300
C7    C     C_R   0.914891 0.500000 0.000000 0.934342
C8    C     C_R   0.500000 0.914891 0.999998 0.934299
C9    C     C_R   0.843111 0.995246 0.550878 -0.188149
C10   C     C_R   0.995257 0.843105 0.550902 -0.188539
C11   C     C_R   0.156888 0.004744 0.550875 -0.188230
C12   C     C_R   0.004747 0.156881 0.550851 -0.187867
C13   C     C_R   0.156888 0.995256 0.449125 -0.188229
C14   C     C_R   0.004747 0.843119 0.449149 -0.187867
C15   C     C_R   0.843111 0.004754 0.449122 -0.188149
C16   C     C_R   0.995257 0.156895 0.449097 -0.188540
C17   C     C_R   0.343110 0.504697 0.050882 -0.188250
C18   C     C_R   0.495278 0.343103 0.050904 -0.189034
C19   C     C_R   0.656888 0.504743 0.050875 -0.188182
C20   C     C_R   0.504727 0.656881 0.050856 -0.187380
C21   C     C_R   0.656888 0.495257 0.949125 -0.188182
C22   C     C_R   0.504726 0.343119 0.949144 -0.187381
C23   C     C_R   0.343110 0.495303 0.949118 -0.188250
C24   C     C_R   0.495278 0.656896 0.949096 -0.189034
C25   C     C_R   0.866408 0.000000 0.500000 -0.050184
C26   C     C_R   0.000002 0.866409 0.500021 -0.050233
C27   C     C_R   0.133591 0.000000 0.500000 -0.050278
C28   C     C_R   0.000002 0.133591 0.499979 -0.050233
C29   C     C_R   0.366408 0.500000 0.000000 -0.050055
C30   C     C_R   0.500002 0.366408 0.000020 -0.050063
C31   C     C_R   0.633591 0.500000 0.000000 -0.050214
C32   C     C_R   0.500002 0.633592 0.999980 -0.050063
C33   C     C_R   0.774183 0.000000 0.500000 0.255836
C34   C     C_R   0.000004 0.774184 0.500037 0.255727
C35   C     C_R   0.225816 0.000000 0.500000 0.255711
C36   C     C_R   0.000004 0.225816 0.499963 0.255727
C37   C     C_R   0.274183 0.500000 0.000000 0.255976
C38   C     C_R   0.500004 0.274183 0.000033 0.256015
C39   C     C_R   0.725816 0.500000 0.000000 0.255792
C40   C     C_R   0.500004 0.725816 0.999967 0.256015
C41   C     C_R   0.000000 0.914749 0.500008 0.814855
C42   C     C_R   0.085251 0.000000 0.500000 0.814815
C43   C     C_R   0.000000 0.085251 0.499992 0.814855
C44   C     C_R   0.914749 0.000000 0.500000 0.814895
C45   C     C_R   0.500000 0.414749 0.000007 0.814843
C46   C     C_R   0.585251 0.500000 0.000000 0.814832
C47   C     C_R   0.500000 0.585251 0.999993 0.814843
C48   C     C_R   0.414748 0.500000 0.000000 0.814848
C49   C     C_R   0.500000 0.999994 0.608140 0.794954
C50   C     C_R   1.000000 0.500000 0.608140 0.795001
C51   C     C_R   0.500000 0.000006 0.391860 0.794955
C52   C     C_R   1.000000 0.500000 0.391860 0.795002
C53   C     C_R   1.000000 0.499995 0.108140 0.795018
C54   C     C_R   0.500000 0.000001 0.108140 0.794998
C55   C     C_R   1.000000 0.500005 0.891860 0.795018
C56   C     C_R   0.500000 0.999999 0.891860 0.794998
C57   C     C_1   0.500000 0.999983 0.668996 -0.105741
C58   C     C_1   1.000000 0.500005 0.668996 -0.105799
C59   C     C_1   0.500000 0.000017 0.331004 -0.105741
C60   C     C_1   1.000000 0.499995 0.331004 -0.105799
C61   C     C_1   1.000000 0.499986 0.168996 -0.105821
C62   C     C_1   0.500000 0.000008 0.168996 -0.105707
C63   C     C_1   0.000000 0.500014 0.831004 -0.105821
C64   C     C_1   0.500000 0.999992 0.831004 -0.105707
C65   C     C_1   0.500000 0.999981 0.720064 0.044097
C66   C     C_1   1.000000 0.500010 0.720064 0.044055
C67   C     C_1   0.500000 0.000019 0.279936 0.044097
C68   C     C_1   1.000000 0.499990 0.279936 0.044055
C69   C     C_1   1.000000 0.499986 0.220064 0.044054
C70   C     C_1   0.500000 0.000014 0.220064 0.044103
C71   C     C_1   1.000000 0.500014 0.779936 0.044054
C72   C     C_1   0.500000 0.999986 0.779936 0.044103
C73   C     C_R   0.702741 0.035822 0.477360 0.513361
C74   C     C_R   0.035818 0.702748 0.477385 0.513381
C75   C     C_R   0.297259 0.964185 0.477370 0.513325
C76   C     C_R   0.964193 0.297266 0.477313 0.513275
C77   C     C_R   0.297259 0.035815 0.522630 0.513325
C78   C     C_R   0.964193 0.702734 0.522687 0.513275
C79   C     C_R   0.702741 0.964178 0.522640 0.513361
C80   C     C_R   0.035818 0.297252 0.522615 0.513380
C81   C     C_R   0.202740 0.464204 0.977321 0.513303
C82   C     C_R   0.535812 0.202748 0.977365 0.513247
C83   C     C_R   0.797259 0.464186 0.977369 0.513295
C84   C     C_R   0.464199 0.797266 0.977301 0.513452
C85   C     C_R   0.797259 0.535814 0.022631 0.513296
C86   C     C_R   0.464199 0.202734 0.022699 0.513451
C87   C     C_R   0.202740 0.535796 0.022679 0.513304
C88   C     C_R   0.535812 0.797252 0.022635 0.513249
C89   C     C_R   0.656888 0.035938 0.477495 0.502243
C90   C     C_R   0.035931 0.656896 0.477506 0.502998
C91   C     C_R   0.343112 0.964070 0.477504 0.502199
C92   C     C_R   0.964075 0.343119 0.477460 0.501524
C93   C     C_R   0.343112 0.035930 0.522496 0.502199
C94   C     C_R   0.964075 0.656881 0.522540 0.501522
C95   C     C_R   0.656888 0.964062 0.522505 0.502243
C96   C     C_R   0.035931 0.343104 0.522494 0.502998
C97   C     C_R   0.156888 0.464088 0.977456 0.502331
C98   C     C_R   0.535925 0.156895 0.977487 0.502374
C99   C     C_R   0.843112 0.464070 0.977503 0.502220
C100  C     C_R   0.464081 0.843119 0.977448 0.502228
C101  C     C_R   0.843112 0.535930 0.022496 0.502220
C102  C     C_R   0.464081 0.156881 0.022553 0.502228
C103  C     C_R   0.156888 0.535912 0.022544 0.502332
C104  C     C_R   0.535925 0.843105 0.022512 0.502375
C105  C     C_R   0.633515 0.000000 0.500000 -0.490223
C106  C     C_R   0.000001 0.633515 0.500015 -0.490889
C107  C     C_R   0.366485 0.000000 0.500000 -0.490477
C108  C     C_R   0.000001 0.366485 0.499985 -0.490890
C109  C     C_R   0.133515 0.500000 0.000000 -0.491746
C110  C     C_R   0.500001 0.133515 0.000013 -0.490105
C111  C     C_R   0.866485 0.500000 0.000000 -0.490615
C112  C     C_R   0.500001 0.866485 0.999987 -0.490106
C113  C     C_R   0.725887 0.000000 0.500000 -0.386930
C114  C     C_R   0.000007 0.725888 0.500041 -0.387470
C115  C     C_R   0.274113 0.000000 0.500000 -0.387269
C116  C     C_R   0.000007 0.274112 0.499959 -0.387470
C117  C     C_R   0.225887 0.500000 0.000000 -0.387687
C118  C     C_R   0.500006 0.225887 0.000036 -0.386594
C119  C     C_R   0.774113 0.500000 0.000000 -0.387066
C120  C     C_R   0.500006 0.774113 0.999963 -0.386594
C121  C     C_R   0.797288 0.995124 0.550823 -0.052149
C122  C     C_R   0.995137 0.797281 0.550856 -0.053478
C123  C     C_R   0.202712 0.004865 0.550821 -0.052237
C124  C     C_R   0.004869 0.202704 0.550789 -0.051013
C125  C     C_R   0.202712 0.995135 0.449179 -0.052238
C126  C     C_R   0.004869 0.797296 0.449211 -0.051014
C127  C     C_R   0.797288 0.004876 0.449177 -0.052149
C128  C     C_R   0.995137 0.202719 0.449144 -0.053478
C129  C     C_R   0.297287 0.504818 0.050828 -0.052343
C130  C     C_R   0.495158 0.297280 0.050856 -0.053135
C131  C     C_R   0.702712 0.504865 0.050821 -0.052186
C132  C     C_R   0.504849 0.702704 0.050795 -0.051174
C133  C     C_R   0.702712 0.495135 0.949179 -0.052185
C134  C     C_R   0.504849 0.297296 0.949205 -0.051173
C135  C     C_R   0.297287 0.495182 0.949172 -0.052343
C136  C     C_R   0.495158 0.702720 0.949144 -0.053135
Cu1   Cu    Cu3+1 0.500000 0.044070 0.500000 1.121265
Cu2   Cu    Cu3+1 0.955930 0.500000 0.500000 1.121494
Cu3   Cu    Cu3+1 0.500000 0.955930 0.500000 1.121265
Cu4   Cu    Cu3+1 0.044070 0.500000 0.500000 1.120687
Cu5   Cu    Cu3+1 1.000000 0.544070 0.000000 1.121011
Cu6   Cu    Cu3+1 0.455930 0.000000 0.000000 1.121371
Cu7   Cu    Cu3+1 1.000000 0.455930 0.000000 1.121011
Cu8   Cu    Cu3+1 0.544070 0.000000 0.000000 1.121218
Cu9   Cu    Cu3+1 0.000000 0.000000 0.555800 1.000071
Cu10  Cu    Cu3+1 0.000000 0.000000 0.444200 1.000071
Cu11  Cu    Cu3+1 0.500000 0.500000 0.055800 1.000130
Cu12  Cu    Cu3+1 0.500000 0.500000 0.944200 1.000130
H1    H     H_    0.779811 0.991596 0.590445 0.170233
H2    H     H_    0.991617 0.779799 0.590481 0.169358
H3    H     H_    0.220188 0.008386 0.590441 0.170302
H4    H     H_    0.008390 0.220174 0.590408 0.171267
H5    H     H_    0.220188 0.991614 0.409559 0.170302
H6    H     H_    0.008390 0.779826 0.409592 0.171267
H7    H     H_    0.779811 0.008404 0.409554 0.170233
H8    H     H_    0.991617 0.220201 0.409519 0.169358
H9    H     H_    0.279811 0.508301 0.090454 0.170263
H10   H     H_    0.491654 0.279797 0.090483 0.169840
H11   H     H_    0.720188 0.508384 0.090441 0.170268
H12   H     H_    0.508354 0.720173 0.090417 0.170520
H13   H     H_    0.720188 0.491616 0.909558 0.170268
H14   H     H_    0.508353 0.279827 0.909583 0.170520
H15   H     H_    0.279811 0.491699 0.909546 0.170263
H16   H     H_    0.491653 0.720203 0.909517 0.169840
H17   H     H_    0.860247 0.991495 0.590692 0.172013
H18   H     H_    0.991512 0.860235 0.590712 0.171675
H19   H     H_    0.139753 0.008487 0.590687 0.172095
H20   H     H_    0.008491 0.139741 0.590668 0.172461
H21   H     H_    0.139753 0.991513 0.409313 0.172095
H22   H     H_    0.008491 0.860259 0.409332 0.172462
H23   H     H_    0.860247 0.008505 0.409308 0.172013
H24   H     H_    0.991512 0.139765 0.409288 0.171675
H25   H     H_    0.360245 0.508401 0.090700 0.172029
H26   H     H_    0.491551 0.360233 0.090717 0.171713
H27   H     H_    0.639753 0.508486 0.090687 0.172049
H28   H     H_    0.508454 0.639741 0.090676 0.172217
H29   H     H_    0.639753 0.491514 0.909313 0.172049
H30   H     H_    0.508453 0.360259 0.909324 0.172218
H31   H     H_    0.360245 0.491599 0.909300 0.172029
H32   H     H_    0.491550 0.639767 0.909283 0.171713
O1    O     O_R   0.564260 0.037220 0.500020 -0.532197
O2    O     O_R   0.962780 0.564260 0.500020 -0.531900
O3    O     O_R   0.435740 0.962780 0.500020 -0.532227
O4    O     O_R   0.037220 0.435740 0.500020 -0.532581
O5    O     O_R   0.435740 0.037220 0.499980 -0.532227
O6    O     O_R   0.037220 0.564260 0.499980 -0.532581
O7    O     O_R   0.564260 0.962780 0.499980 -0.532197
O8    O     O_R   0.962780 0.435740 0.499980 -0.531900
O9    O     O_R   0.064260 0.537220 0.000020 -0.532353
O10   O     O_R   0.462780 0.064260 0.000020 -0.532113
O11   O     O_R   0.935740 0.462780 0.000020 -0.532227
O12   O     O_R   0.537220 0.935740 0.000020 -0.532251
O13   O     O_R   0.935740 0.537220 0.999980 -0.532227
O14   O     O_R   0.537220 0.064260 0.999980 -0.532252
O15   O     O_R   0.064260 0.462780 0.999980 -0.532352
O16   O     O_R   0.462780 0.935740 0.999980 -0.532113
O17   O     O_R   0.499990 0.037220 0.581420 -0.569501
O18   O     O_R   0.962780 0.499990 0.581420 -0.569640
O19   O     O_R   0.500010 0.962780 0.581420 -0.569887
O20   O     O_R   0.037220 0.500010 0.581420 -0.569795
O21   O     O_R   0.500010 0.037220 0.418580 -0.569887
O22   O     O_R   0.037220 0.499990 0.418580 -0.569795
O23   O     O_R   0.499990 0.962780 0.418580 -0.569500
O24   O     O_R   0.962780 0.500010 0.418580 -0.569640
O25   O     O_R   0.999990 0.537220 0.081420 -0.552879
O26   O     O_R   0.462780 0.999990 0.081420 -0.569683
O27   O     O_R   0.000010 0.462780 0.081420 -0.586546
O28   O     O_R   0.537220 0.000010 0.081420 -0.569726
O29   O     O_R   0.000010 0.537220 0.918580 -0.586546
O30   O     O_R   0.537220 0.999990 0.918580 -0.569725
O31   O     O_R   0.999990 0.462780 0.918580 -0.552879
O32   O     O_R   0.462780 0.000010 0.918580 -0.569683
O33   O     O_R   0.999990 0.935770 0.547120 -0.584691
O34   O     O_R   0.064230 0.999990 0.547120 -0.584508
O35   O     O_R   0.000010 0.064230 0.547120 -0.584296
O36   O     O_R   0.935770 0.000010 0.547120 -0.584471
O37   O     O_R   0.000010 0.935770 0.452880 -0.584296
O38   O     O_R   0.935770 0.999990 0.452880 -0.584470
O39   O     O_R   0.999990 0.064230 0.452880 -0.584691
O40   O     O_R   0.064230 0.000010 0.452880 -0.584507
O41   O     O_R   0.499990 0.435770 0.047120 -0.584279
O42   O     O_R   0.564230 0.499990 0.047120 -0.584489
O43   O     O_R   0.500010 0.564230 0.047120 -0.584678
O44   O     O_R   0.435770 0.500010 0.047120 -0.584483
O45   O     O_R   0.500010 0.435770 0.952880 -0.584677
O46   O     O_R   0.435770 0.499990 0.952880 -0.584483
O47   O     O_R   0.499990 0.564230 0.952880 -0.584280
O48   O     O_R   0.564230 0.500010 0.952880 -0.584489
F1    F     F_    0.724609 0.071033 0.455937 -0.580843
F2    F     F_    0.071021 0.724623 0.455957 -0.579717
F3    F     F_    0.275391 0.928982 0.455957 -0.580483
F4    F     F_    0.928993 0.275405 0.455876 -0.581008
F5    F     F_    0.275391 0.071018 0.544043 -0.580483
F6    F     F_    0.928993 0.724595 0.544124 -0.581008
F7    F     F_    0.724609 0.928967 0.544063 -0.580843
F8    F     F_    0.071021 0.275377 0.544042 -0.579717
F9    F     F_    0.224608 0.429018 0.955861 -0.580404
F10   F     F_    0.571008 0.224622 0.955920 -0.580797
F11   F     F_    0.775391 0.428983 0.955955 -0.580700
F12   F     F_    0.429004 0.775405 0.955849 -0.581806
F13   F     F_    0.775391 0.571017 0.044045 -0.580700
F14   F     F_    0.429005 0.224595 0.044152 -0.581806
F15   F     F_    0.224608 0.570981 0.044139 -0.580404
F16   F     F_    0.571008 0.775378 0.044079 -0.580797
F17   F     F_    0.635471 0.070876 0.454647 -0.566550
F18   F     F_    0.070858 0.635488 0.454641 -0.564875
F19   F     F_    0.364528 0.929140 0.454666 -0.566270
F20   F     F_    0.929146 0.364542 0.454607 -0.566920
F21   F     F_    0.364528 0.070860 0.545334 -0.566270
F22   F     F_    0.929146 0.635458 0.545393 -0.566920
F23   F     F_    0.635471 0.929123 0.545353 -0.566550
F24   F     F_    0.070858 0.364512 0.545359 -0.564875
F25   F     F_    0.135471 0.429177 0.954570 -0.564943
F26   F     F_    0.570845 0.135486 0.954607 -0.566440
F27   F     F_    0.864528 0.429140 0.954664 -0.566024
F28   F     F_    0.429158 0.864543 0.954579 -0.566913
F29   F     F_    0.864528 0.570860 0.045336 -0.566024
F30   F     F_    0.429158 0.135457 0.045422 -0.566913
F31   F     F_    0.135471 0.570823 0.045429 -0.564943
F32   F     F_    0.570846 0.864514 0.045392 -0.566439

loop_
_geom_bond_atom_site_label_1
_geom_bond_atom_site_label_2
_ccdc_geom_bond_type
C16   C28   A    
C11   H19   S    
C98   C110  A    
C13   C125  A    
Cu5   O29   S    
C17   C29   A    
C80   F8    S    
C30   C45   S    
Cu11  Cu12  S    
Cu12  O48   S    
Cu6   O32   S    
C74   F2    S    
C64   C72   T    
C43   O35   A    
C104  F32   S    
C73   F1    S    
Cu9   Cu10  S    
C50   O18   A    
C9    C25   A    
C49   O17   A    
C79   C95   A    
Cu1   Cu3   S    
C46   O48   A    
C132  H12   S    
C39   C131  A    
C22   C134  A    
C23   C29   A    
Cu8   O30   S    
C36   C124  A    
C78   C94   A    
C56   O32   A    
C42   O40   A    
C8    C112  S    
C49   O19   A    
C79   F7    S    
Cu10  O38   S    
Cu3   O19   S    
C15   C25   A    
Cu1   O1    S    
C77   C115  A    
C2    O6    A    
C74   C114  A    
C12   H20   S    
C81   C117  A    
C33   C127  A    
C49   C57   S    
C62   C70   T    
C81   F9    S    
C35   C125  A    
C2    O2    A    
C83   C119  A    
C85   C119  A    
C85   C101  A    
C99   F27   S    
C95   C105  A    
C81   C97   A    
C59   C67   T    
Cu9   O35   S    
Cu10  O37   S    
Cu2   O24   S    
C92   C108  A    
Cu12  O46   S    
Cu7   O27   S    
C76   F4    S    
C80   C116  A    
C51   O23   A    
C68   C69   S    
C54   O26   A    
C31   C46   S    
C101  F29   S    
C24   H32   S    
C9    C121  A    
C56   C64   S    
C35   C115  S    
C18   C30   A    
C7    O13   A    
C52   C60   S    
C73   C113  A    
C23   H31   S    
Cu11  O41   S    
C84   C120  A    
C5    O15   A    
Cu10  O40   S    
C34   C126  A    
C24   C136  A    
C13   H21   S    
C103  C109  A    
C124  H4    S    
C17   H25   S    
C19   C31   A    
C34   C122  A    
C82   F10   S    
C15   C127  A    
C33   C121  A    
C21   H29   S    
C6    C110  S    
C96   F24   S    
C7    O11   A    
C78   C114  A    
Cu12  O47   S    
C53   C61   S    
C20   C132  A    
C20   C32   A    
Cu3   O7    S    
C94   F22   S    
C25   C44   S    
C21   C133  A    
C88   C104  A    
C6    O14   A    
C58   C66   T    
C51   C59   S    
Cu1   O5    S    
C1    O7    A    
C103  F31   S    
C19   C131  A    
C91   F19   S    
C52   O22   A    
C45   O45   A    
C82   C98   A    
C29   C48   S    
C15   H23   S    
C50   C58   S    
C91   C107  A    
Cu5   O9    S    
C89   F17   S    
C93   F21   S    
C20   H28   S    
C127  H7    S    
C104  C112  A    
C1    O1    A    
C53   O27   A    
Cu7   O31   S    
Cu8   O12   S    
C3    C107  S    
C54   C62   S    
C2    C106  S    
C14   C26   A    
C134  H14   S    
C55   C63   S    
C52   O24   A    
Cu5   Cu7   S    
C84   C100  A    
C80   C96   A    
Cu2   O8    S    
C24   C32   A    
C83   F11   S    
C56   O30   A    
C14   C126  A    
C42   O34   A    
Cu4   O22   S    
C55   O29   A    
Cu9   O36   S    
C48   O46   A    
C16   H24   S    
C53   O25   A    
C66   C71   S    
C12   C124  A    
C11   C27   A    
C78   F6    S    
C39   C133  A    
C99   C111  A    
C6    O10   A    
Cu6   O10   S    
C37   C135  A    
C10   C26   A    
C44   O38   A    
C86   C118  A    
Cu5   O13   S    
C4    O4    A    
C75   F3    S    
C16   C128  A    
C41   O33   A    
C90   C106  A    
C21   C31   A    
Cu1   O17   S    
Cu11  O42   S    
Cu2   Cu4   S    
C92   F20   S    
Cu9   O33   S    
Cu10  O39   S    
C18   H26   S    
C126  H6    S    
C76   C92   A    
C3    O3    A    
C100  C112  A    
C54   O28   A    
C79   C113  A    
C32   C47   S    
C87   C103  A    
C102  C110  A    
C88   C120  A    
C82   C118  A    
C95   F23   S    
C36   C116  S    
C122  H2    S    
C36   C128  A    
Cu11  O43   S    
C97   F25   S    
C136  H16   S    
C61   C69   T    
C22   H30   S    
C40   C132  A    
C47   O43   A    
C131  H11   S    
C38   C134  A    
Cu7   O11   S    
C22   C30   A    
C40   C120  S    
C44   O36   A    
C135  H15   S    
C121  H1    S    
C123  H3    S    
C11   C123  A    
Cu12  O45   S    
C84   F12   S    
C57   C65   T    
C10   C122  A    
C133  H13   S    
C88   F16   S    
C41   O37   A    
C35   C123  A    
Cu2   O18   S    
C87   C117  A    
C75   C91   A    
C10   H18   S    
C34   C114  S    
C65   C72   S    
C48   O44   A    
C28   C43   S    
C33   C113  S    
C38   C130  A    
C18   C130  A    
C23   C135  A    
C129  H9    S    
C130  H10   S    
C67   C70   S    
Cu4   O6    S    
C125  H5    S    
C9    H17   S    
C97   C109  A    
C47   O47   A    
C5    O9    A    
C77   F5    S    
Cu4   O4    S    
Cu3   O23   S    
C93   C107  A    
C27   C42   S    
C74   C90   A    
Cu4   O20   S    
Cu1   O21   S    
C14   H22   S    
C8    O12   A    
C4    O8    A    
C39   C119  S    
C101  C111  A    
C90   F18   S    
C5    C109  S    
C77   C93   A    
C76   C116  A    
C37   C117  S    
C7    C111  S    
C8    O16   A    
Cu6   Cu8   S    
Cu6   O26   S    
C96   C108  A    
C46   O42   A    
Cu2   O2    S    
Cu5   O25   S    
C45   O41   A    
C94   C106  A    
C85   F13   S    
C128  H8    S    
C75   C115  A    
C55   O31   A    
Cu9   O34   S    
C38   C118  S    
C102  F30   S    
Cu7   O15   S    
C73   C89   A    
Cu8   O14   S    
C60   C68   T    
C4    C108  S    
Cu3   O3    S    
C19   H27   S    
C89   C105  A    
Cu11  O44   S    
Cu6   O16   S    
C3    O5    A    
C13   C27   A    
C83   C99   A    
C40   C136  A    
C98   F26   S    
C12   C28   A    
C100  F28   S    
C43   O39   A    
C50   O20   A    
C63   C71   T    
C37   C129  A    
C17   C129  A    
C87   F15   S    
C51   O21   A    
C26   C41   S    
C1    C105  S    
C86   F14   S    
Cu8   O28   S    
C86   C102  A    
