data_mof_unit_60610.cif
_audit_creation_date              2012-12-10T19:19:04-0500
_audit_creation_method            fapswitch 2.2
_symmetry_space_group_name_H-M    P1
_symmetry_Int_Tables_number       1
_space_group_crystal_system       triclinic
_cell_length_a                    16.01178
_cell_length_b                    14.768991
_cell_length_c                    19.377561
_cell_angle_alpha                 90.0
_cell_angle_beta                  89.999061
_cell_angle_gamma                 89.999988
_cell_volume                      4582.3636667

loop_
_atom_site_label
_atom_site_type_symbol
_atom_type_description
_atom_site_fract_x
_atom_site_fract_y
_atom_site_fract_z
_atom_type_partial_charge
C1    C     C_R   0.340916 0.500000 0.500013 0.815620
C2    C     C_R   0.659084 0.500000 0.499987 0.815619
C3    C     C_1   0.822976 0.500000 0.499988 0.185008
C4    C     C_1   0.177024 0.500000 0.500012 0.185008
C5    C     C_1   0.251967 0.500000 0.500014 -0.077701
C6    C     C_1   0.748033 0.500000 0.499986 -0.077701
C7    C     C_R   0.575794 0.951911 0.500002 0.311602
C8    C     C_R   0.424206 0.048089 0.499998 0.311602
C9    C     C_R   0.424206 0.951911 0.499998 0.311602
C10   C     C_R   0.575794 0.048089 0.500002 0.311602
C11   C     C_R   0.500000 0.902861 0.500000 -0.283106
C12   C     C_R   0.500000 0.097139 0.500000 -0.283106
C13   C     C_1   0.500000 0.802602 0.500000 0.384111
C14   C     C_1   0.500000 0.197398 0.500000 0.384111
C15   C     C_R   0.499987 0.500000 0.367095 0.789965
C16   C     C_R   0.500013 0.500000 0.632905 0.789965
C17   C     C_R   0.499984 0.582034 0.254654 -0.150284
C18   C     C_R   0.500016 0.417966 0.745346 -0.150284
C19   C     C_R   0.500016 0.582034 0.745346 -0.150285
C20   C     C_R   0.499984 0.417966 0.254654 -0.150285
C21   C     C_R   0.499985 0.582047 0.182751 -0.127870
C22   C     C_R   0.500014 0.417953 0.817249 -0.127870
C23   C     C_R   0.500014 0.582047 0.817249 -0.127870
C24   C     C_R   0.499986 0.417953 0.182751 -0.127870
C25   C     C_R   0.499987 0.500000 0.146067 0.042081
C26   C     C_R   0.500012 0.500000 0.853933 0.042081
C27   C     C_R   0.499984 0.500000 0.291216 -0.044589
C28   C     C_R   0.500016 0.500000 0.708784 -0.044589
C29   C     C_R   0.500007 0.500000 0.929998 0.423901
C30   C     C_R   0.499993 0.500000 0.070002 0.423901
C31   C     C_R   0.956203 0.582655 0.499995 0.308884
C32   C     C_R   0.043796 0.417345 0.500005 0.308884
C33   C     C_R   0.043796 0.582655 0.500002 0.308884
C34   C     C_R   0.956203 0.417345 0.499998 0.308884
C35   C     C_R   0.912645 0.500000 0.499993 -0.201045
C36   C     C_R   0.087355 0.500000 0.500007 -0.201045
Cu1   Cu    Cu3+1 0.500000 0.589220 0.500000 1.055816
Cu2   Cu    Cu3+1 0.500000 0.410780 0.500000 1.055817
H1    H     H_    0.499984 0.646320 0.281546 0.172864
H2    H     H_    0.500016 0.353680 0.718454 0.172865
H3    H     H_    0.500016 0.646320 0.718454 0.172865
H4    H     H_    0.499984 0.353680 0.281546 0.172865
H5    H     H_    0.499987 0.646428 0.156023 0.169518
H6    H     H_    0.500013 0.353572 0.843977 0.169518
H7    H     H_    0.500013 0.646428 0.843977 0.169518
H8    H     H_    0.499987 0.353572 0.156023 0.169518
N1    N     N_R   0.499997 0.420935 0.034313 -0.218933
N2    N     N_R   0.500003 0.579065 0.965687 -0.218933
N3    N     N_R   0.500003 0.420935 0.965687 -0.218933
N4    N     N_R   0.499997 0.579065 0.034313 -0.218933
N5    N     N_1   0.500000 0.276710 0.500000 -0.142194
N6    N     N_1   0.500000 0.723290 0.500000 -0.142194
O1    O     O_R   0.380310 0.575320 0.500010 -0.551312
O2    O     O_R   0.619690 0.424680 0.499990 -0.551312
O3    O     O_R   0.619690 0.575320 0.499990 -0.551312
O4    O     O_R   0.380310 0.424680 0.500010 -0.551312
O5    O     O_R   0.499990 0.575370 0.400140 -0.577787
O6    O     O_R   0.500010 0.424630 0.599860 -0.577787
O7    O     O_R   0.500010 0.575370 0.599860 -0.577787
O8    O     O_R   0.499990 0.424630 0.400140 -0.577787
Cl1   Cl    Cl    0.098952 0.686427 0.500004 -0.396535
Cl2   Cl    Cl    0.901047 0.313573 0.499996 -0.396535
Cl3   Cl    Cl    0.901047 0.686427 0.499989 -0.396535
Cl4   Cl    Cl    0.098953 0.313573 0.500011 -0.396535
Cl5   Cl    Cl    0.671648 0.107374 0.500004 -0.414081
Cl6   Cl    Cl    0.328352 0.892626 0.499996 -0.414081
Cl7   Cl    Cl    0.328352 0.107374 0.499996 -0.414081
Cl8   Cl    Cl    0.671648 0.892626 0.500004 -0.414081

loop_
_geom_bond_atom_site_label_1
_geom_bond_atom_site_label_2
_ccdc_geom_bond_type
Cu2   O4    S    
C16   C28   S    
C7    C10   A    
C20   H4    S    
C17   C21   A    
C31   C33   A    
Cu1   O5    S    
Cu1   Cu2   S    
C23   H7    S    
C20   C27   A    
C13   N6    T    
C11   C13   S    
C15   O8    A    
C19   C23   A    
C14   N5    T    
Cu2   O2    S    
C3    C35   S    
C8    C12   A    
C3    C6    T    
C24   H8    S    
C1    O1    A    
N2    N4    A    
C30   N4    A    
Cu1   O1    S    
N1    N3    A    
C29   N3    A    
C4    C36   S    
C7    C11   A    
C19   C28   A    
C15   O5    A    
C21   C25   A    
Cu1   O7    S    
C10   C12   A    
C8    Cl7   S    
C2    C6    S    
C1    C5    S    
C32   C36   A    
C1    O4    A    
C12   C14   S    
C31   C35   A    
C2    O3    A    
C9    C11   A    
C22   C26   A    
Cu2   O8    S    
C23   C26   A    
C21   H5    S    
C29   N2    A    
Cu2   O6    S    
Cu1   O3    S    
C31   Cl3   S    
C30   N1    A    
C34   Cl2   S    
C33   C36   A    
C18   C28   A    
C24   C25   A    
C32   Cl4   S    
C26   C29   S    
C33   Cl1   S    
C34   C35   A    
C2    O2    A    
C10   Cl5   S    
C25   C30   S    
Cu1   N6    S    
C17   H1    S    
C9    Cl6   S    
C8    C9    A    
C16   O6    A    
Cu2   N5    S    
C18   H2    S    
C7    Cl8   S    
C18   C22   A    
C15   C27   S    
C20   C24   A    
C22   H6    S    
C19   H3    S    
C32   C34   A    
C4    C5    T    
C16   O7    A    
C17   C27   A    
