data_mof_unit_43970.cif
_audit_creation_date              2012-12-10T21:26:00-0500
_audit_creation_method            fapswitch 2.2
_symmetry_space_group_name_H-M    P1
_symmetry_Int_Tables_number       1
_space_group_crystal_system       triclinic
_cell_length_a                    8.540382
_cell_length_b                    16.201341
_cell_length_c                    16.798827
_cell_angle_alpha                 85.639035
_cell_angle_beta                  92.340006
_cell_angle_gamma                 100.052665
_cell_volume                      2281.17061763

loop_
_atom_site_label
_atom_site_type_symbol
_atom_type_description
_atom_site_fract_x
_atom_site_fract_y
_atom_site_fract_z
_atom_type_partial_charge
C1    C     C_R   0.499173 0.487535 0.652389 0.874085
C2    C     C_R   0.500827 0.512464 0.347610 0.874081
C3    C     C_R   0.451186 0.764397 0.449818 0.097589
C4    C     C_R   0.548820 0.235603 0.550180 0.097590
C5    C     C_R   0.455369 0.851139 0.453867 -0.306363
C6    C     C_R   0.544634 0.148861 0.546132 -0.306367
C7    C     C_R   0.528867 0.892635 0.519481 0.317835
C8    C     C_R   0.471127 0.107365 0.480521 0.317835
C9    C     C_R   0.599244 0.844576 0.579364 -0.301132
C10   C     C_R   0.400744 0.155423 0.420639 -0.301132
C11   C     C_R   0.593541 0.757751 0.573446 -0.018120
C12   C     C_R   0.406450 0.242248 0.426557 -0.018121
C13   C     C_R   0.800296 0.521165 0.502604 0.968782
C14   C     C_R   0.199704 0.478836 0.497395 0.968776
C15   C     C_2   0.965642 0.531152 0.509766 -0.397107
C16   C     C_2   0.034358 0.468849 0.490231 -0.397108
C17   C     C_R   0.496663 0.477023 0.737675 0.003209
C18   C     C_R   0.503335 0.522974 0.262325 0.003215
C19   C     C_R   0.617719 0.523178 0.781896 -0.238932
C20   C     C_R   0.382283 0.476815 0.218106 -0.238923
C21   C     C_R   0.610749 0.517920 0.864008 -0.184019
C22   C     C_R   0.389261 0.482063 0.135995 -0.184037
C23   C     C_R   0.478601 0.468777 0.902339 0.263756
C24   C     C_R   0.521411 0.531201 0.097663 0.263765
C25   C     C_R   0.358312 0.420129 0.857504 -0.005340
C26   C     C_R   0.641693 0.579856 0.142495 -0.005341
C27   C     C_R   0.369928 0.423948 0.774706 -0.285872
C28   C     C_R   0.630073 0.576045 0.225292 -0.285874
H1    H     H_    0.030148 0.588525 0.533191 0.169373
H2    H     H_    0.969852 0.411476 0.466806 0.169371
H3    H     H_    0.276840 0.388813 0.738765 0.138573
H4    H     H_    0.723160 0.611184 0.261230 0.138579
H5    H     H_    0.658003 0.874199 0.630799 0.147452
H6    H     H_    0.341979 0.125799 0.369207 0.147454
H7    H     H_    0.648323 0.721930 0.620261 0.141246
H8    H     H_    0.351663 0.278069 0.379744 0.141245
N1    N     N_2   0.465011 0.467237 0.985638 -0.206916
N2    N     N_2   0.535005 0.532739 0.014364 -0.206905
N3    N     N_R   0.519180 0.718290 0.509780 -0.105311
N4    N     N_R   0.480820 0.281710 0.490220 -0.105311
N5    N     N_2   0.534473 0.980975 0.527523 -0.184859
N6    N     N_2   0.465520 0.019024 0.472479 -0.184858
O1    O     O_R   0.493140 0.422050 0.612640 -0.609765
O2    O     O_R   0.506860 0.577950 0.387360 -0.609765
O3    O     O_R   0.505450 0.562230 0.618920 -0.629729
O4    O     O_R   0.494550 0.437770 0.381080 -0.629729
O5    O     O_R   0.723530 0.446300 0.497600 -0.612725
O6    O     O_R   0.276470 0.553700 0.502400 -0.612729
O7    O     O_R   0.735850 0.586490 0.503880 -0.631462
O8    O     O_R   0.264150 0.413510 0.496120 -0.631464
Zn1   Zn    Zn3+2 0.491780 0.406400 0.495810 0.940107
Zn2   Zn    Zn3+2 0.508220 0.593600 0.504190 0.940107
H9    H     H_    0.282894 0.436737 0.247255 0.141284
H10   H     H_    0.717106 0.563260 0.752749 0.141286
H11   H     H_    0.292969 0.446362 0.102545 0.160647
H12   H     H_    0.707045 0.553616 0.897459 0.160660
C29   C     C_R   0.215689 0.368876 0.895050 0.129960
C30   C     C_R   0.169075 0.284187 0.878521 -0.170677
C31   C     C_R   0.032262 0.236330 0.912098 -0.132446
C32   C     C_R   0.940494 0.272627 0.962022 -0.116771
C33   C     C_R   0.985013 0.356958 0.978221 -0.165485
C34   C     C_R   0.121567 0.405085 0.944685 -0.159176
H13   H     H_    0.238936 0.255198 0.839887 0.121094
H14   H     H_    0.997126 0.171136 0.899220 0.129525
H15   H     H_    0.834347 0.235566 0.987727 0.126944
H16   H     H_    0.913052 0.385188 0.016308 0.131638
H17   H     H_    0.152572 0.470760 0.956589 0.128113
C35   C     C_R   0.784306 0.631108 0.104944 0.129963
C36   C     C_R   0.830866 0.715812 0.121435 -0.170660
C37   C     C_R   0.967654 0.763674 0.087839 -0.132446
C38   C     C_R   0.059452 0.727368 0.037938 -0.116763
C39   C     C_R   0.014989 0.643023 0.021780 -0.165501
C40   C     C_R   0.878458 0.594890 0.055334 -0.159181
H18   H     H_    0.760978 0.744808 0.160049 0.121087
H19   H     H_    0.002745 0.828881 0.100684 0.129517
H20   H     H_    0.165577 0.764435 0.012217 0.126943
H21   H     H_    0.086972 0.614787 0.983709 0.131644
H22   H     H_    0.847489 0.529206 0.043458 0.128106
C41   C     C_R   0.630710 0.274403 0.620312 0.158866
C42   C     C_R   0.554994 0.264818 0.693967 -0.150747
C43   C     C_R   0.636918 0.296867 0.761879 -0.131023
C44   C     C_R   0.794415 0.338361 0.756627 -0.109077
C45   C     C_R   0.871990 0.345289 0.684183 -0.163120
C46   C     C_R   0.791267 0.311867 0.616661 -0.104850
H23   H     H_    0.432781 0.233061 0.698593 0.117587
H24   H     H_    0.577886 0.290263 0.818386 0.136797
H25   H     H_    0.856720 0.364475 0.808770 0.157956
H26   H     H_    0.995050 0.375683 0.680515 0.131483
H27   H     H_    0.854025 0.313929 0.561845 0.127797
C47   C     C_R   0.369311 0.725600 0.379682 0.158870
C48   C     C_R   0.445039 0.735192 0.306030 -0.150758
C49   C     C_R   0.363126 0.703150 0.238112 -0.131021
C50   C     C_R   0.205627 0.661655 0.243354 -0.109064
C51   C     C_R   0.128041 0.654716 0.315796 -0.163124
C52   C     C_R   0.208754 0.688131 0.383325 -0.104851
H28   H     H_    0.567252 0.766952 0.301409 0.117591
H29   H     H_    0.422167 0.709762 0.181607 0.136784
H30   H     H_    0.143329 0.635548 0.191205 0.157949
H31   H     H_    0.004980 0.624320 0.319458 0.131482
H32   H     H_    0.145987 0.686061 0.438139 0.127803
H33   H     H_    0.600090 0.114615 0.594116 0.159328
H34   H     H_    0.399918 0.885386 0.405881 0.159330

loop_
_geom_bond_atom_site_label_1
_geom_bond_atom_site_label_2
_ccdc_geom_bond_type
C50   C51   A    
C2    C18   S    
N5    N6    D    
O1    Zn1   S    
C43   C44   A    
C47   C48   A    
C47   C52   A    
C14   O8    A    
C2    O4    A    
C31   H14   S    
C42   H23   S    
C34   H17   S    
C3    C47   S    
C6    C8    A    
C22   C24   A    
C19   C21   A    
N1    N2    D    
C8    N6    S    
C36   C37   A    
C41   C46   A    
C42   C43   A    
C16   H2    S    
C15   C16   D    
C6    H33   S    
C48   H28   S    
C33   H16   S    
C1    O1    A    
C4    N4    A    
C2    O2    A    
C35   C36   A    
C24   N2    S    
C40   H22   S    
C37   C38   A    
C12   H8    S    
C43   H24   S    
O2    Zn2   S    
C7    N5    S    
C45   H26   S    
C3    N3    A    
C31   C32   A    
C9    H5    S    
C33   C34   A    
C25   C29   S    
C49   H29   S    
C15   H1    S    
C27   H3    S    
C17   C27   A    
C28   H4    S    
C18   C28   A    
C4    C41   S    
C4    C6    A    
C48   C49   A    
C13   O5    A    
C52   H32   S    
C20   H9    S    
C14   O6    A    
O3    Zn2   S    
C29   C34   A    
C30   C31   A    
C23   N1    S    
O4    Zn1   S    
C32   C33   A    
C12   N4    A    
C39   H21   S    
C45   C46   A    
O7    Zn2   S    
O8    Zn1   S    
C36   H18   S    
C10   H6    S    
C11   N3    A    
C9    C11   A    
C10   C12   A    
C13   O7    A    
C19   H10   S    
C20   C22   A    
C32   H15   S    
C13   C15   S    
C14   C16   S    
C46   H27   S    
C5    C7    A    
C30   H13   S    
C7    C9    A    
C5    H34   S    
C26   C28   A    
C24   C26   A    
C39   C40   A    
C3    C5    A    
C21   H12   S    
O5    Zn1   S    
C22   H11   S    
C25   C27   A    
N4    Zn1   S    
C1    C17   S    
C26   C35   S    
C21   C23   A    
C35   C40   A    
C38   C39   A    
C1    O3    A    
C29   C30   A    
C38   H20   S    
C51   H31   S    
C11   H7    S    
C49   C50   A    
C17   C19   A    
N3    Zn2   S    
C18   C20   A    
C23   C25   A    
C51   C52   A    
C41   C42   A    
O6    Zn2   S    
C8    C10   A    
C44   C45   A    
C37   H19   S    
C50   H30   S    
C44   H25   S    
