data_mof_unit_32713.cif
_audit_creation_date              2012-10-26T21:33:25-0400
_audit_creation_method            fapswitch 2.2
_symmetry_space_group_name_H-M    P1
_symmetry_Int_Tables_number       1
_space_group_crystal_system       triclinic
_cell_length_a                    28.143131
_cell_length_b                    18.489456
_cell_length_c                    17.109635
_cell_angle_alpha                 89.958731
_cell_angle_beta                  60.88716
_cell_angle_gamma                 90.011797
_cell_volume                      7778.23641855

loop_
_atom_site_label
_atom_site_type_symbol
_atom_type_description
_atom_site_fract_x
_atom_site_fract_y
_atom_site_fract_z
_atom_type_partial_charge
C1    C     C_R   0.703236 0.271271 0.675345 0.892448
C2    C     C_R   0.097042 0.502797 0.506840 0.067401
C3    C     C_R   0.193946 0.208772 0.903876 0.018290
C4    C     C_R   0.073898 0.099950 0.934286 0.910173
C5    C     C_R   0.926653 0.899380 0.065183 0.911777
C6    C     C_R   0.924660 0.098057 0.067354 0.914956
C7    C     C_R   0.075447 0.902166 0.932606 0.913653
C8    C     C_R   0.574549 0.599069 0.933512 0.916046
C9    C     C_R   0.426719 0.399467 0.065399 0.909359
C10   C     C_R   0.424671 0.597820 0.067241 0.916723
C11   C     C_R   0.574161 0.400429 0.934062 0.909084
C12   C     C_R   0.541270 0.132185 0.527911 -0.112815
C13   C     C_R   0.402976 0.002686 0.492232 0.067130
C14   C     C_R   0.427815 0.877657 0.560368 -0.093910
C15   C     C_R   0.462266 0.130540 0.472228 -0.113361
C16   C     C_R   0.523012 0.873019 0.576813 -0.108701
C17   C     C_R   0.040993 0.632130 0.518630 -0.109363
C18   C     C_R   0.972911 0.371774 0.433604 -0.107555
C19   C     C_R   0.962074 0.633487 0.462441 -0.109548
C20   C     C_R   0.067055 0.375222 0.451631 -0.109137
C21   C     C_R   0.525594 0.197547 0.503905 0.407500
C22   C     C_R   0.442659 0.813203 0.587342 0.400714
C23   C     C_R   0.487804 0.196320 0.472386 0.424430
C24   C     C_R   0.582278 0.000778 0.555115 0.063217
C25   C     C_R   0.489486 0.811282 0.597459 0.417134
C26   C     C_R   0.016988 0.698371 0.514630 0.423229
C27   C     C_R   0.000857 0.306891 0.427988 0.414723
C28   C     C_R   0.979373 0.699290 0.482599 0.429771
C29   C     C_R   0.047133 0.308552 0.439206 0.404975
C30   C     C_R   0.476246 0.066446 0.500673 -0.061435
C31   C     C_R   0.507316 0.937331 0.551477 -0.059107
C32   C     C_R   0.518440 0.066572 0.522312 -0.046763
C33   C     C_R   0.461063 0.938865 0.539756 -0.048664
C34   C     C_R   0.984507 0.567920 0.469277 -0.051352
C35   C     C_R   0.115722 0.379374 0.454353 -0.160967
C36   C     C_R   0.037239 0.438497 0.463545 -0.046171
C37   C     C_R   0.026605 0.567873 0.491264 -0.053879
C38   C     C_R   0.991391 0.437342 0.451046 -0.054360
C39   C     C_R   0.964997 0.502247 0.453497 0.079420
C40   C     C_R   0.053594 0.503115 0.487320 0.080464
C41   C     C_R   0.447072 0.002528 0.510058 0.079232
C42   C     C_R   0.536077 0.001370 0.542766 0.080953
C43   C     C_R   0.895504 0.435478 0.435910 -0.035557
C44   C     C_R   0.110903 0.566175 0.536720 -0.027112
C45   C     C_R   0.127707 0.439624 0.493519 -0.044095
C46   C     C_R   0.922082 0.631929 0.436594 -0.131700
C47   C     C_R   0.894261 0.567081 0.439239 -0.037915
C48   C     C_R   0.370961 0.940445 0.508775 -0.046060
C49   C     C_R   0.606400 0.066440 0.557779 -0.034426
C50   C     C_R   0.603920 0.934856 0.564959 -0.035136
C51   C     C_R   0.389456 0.065892 0.461370 -0.031197
C52   C     C_R   0.844244 0.435523 0.437192 -0.221651
C53   C     C_R   0.156941 0.565094 0.551257 -0.203543
C54   C     C_R   0.166716 0.438026 0.524673 -0.225673
C55   C     C_R   0.844050 0.565738 0.437267 -0.219518
C56   C     C_R   0.332632 0.938315 0.476361 -0.226848
C57   C     C_R   0.926152 0.371890 0.424121 -0.142566
C58   C     C_R   0.655945 0.065367 0.561759 -0.215451
C59   C     C_R   0.655234 0.935108 0.563642 -0.215860
C60   C     C_R   0.343054 0.065052 0.447990 -0.206301
C61   C     C_R   0.822852 0.500468 0.425437 0.430395
C62   C     C_R   0.177830 0.499736 0.560249 0.422503
C63   C     C_R   0.322025 0.999678 0.439522 0.427149
C64   C     C_R   0.676354 0.000230 0.575666 0.428816
C65   C     C_3   0.050684 0.221851 0.530143 -0.259192
C66   C     C_3   0.984196 0.797083 0.398711 -0.331415
C67   C     C_3   0.996183 0.223479 0.332821 -0.331584
C68   C     C_R   0.078885 0.628693 0.549585 -0.140540
C69   C     C_3   0.079876 0.788982 0.484073 -0.293651
C70   C     C_3   0.477118 0.746275 0.718189 -0.309776
C71   C     C_3   0.498165 0.273820 0.360211 -0.341473
C72   C     C_3   0.431081 0.710646 0.526079 -0.285421
C73   C     C_3   0.596368 0.275780 0.435684 -0.263647
C74   C     C_3   0.738569 0.500355 0.427412 -0.167615
C75   C     C_3   0.250471 0.499381 0.590860 -0.190294
C76   C     C_3   0.250109 0.999432 0.407389 -0.198040
C77   C     C_3   0.757726 0.000151 0.582495 -0.175362
C78   C     C_R   0.770008 0.239544 0.767072 0.159216
C79   C     C_R   0.571575 0.871941 0.581749 -0.154391
C80   C     C_R   0.815085 0.285760 0.723498 -0.119184
C81   C     C_R   0.867519 0.257018 0.675827 -0.101870
C82   C     C_R   0.875185 0.182152 0.671930 -0.100186
C83   C     C_R   0.830517 0.135968 0.715714 -0.169118
C84   C     C_R   0.777959 0.164409 0.763171 -0.119302
C85   C     C_R   0.252424 0.802196 0.212469 0.160743
C86   C     C_R   0.269189 0.874505 0.203295 -0.145306
C87   C     C_R   0.232154 0.929960 0.218330 -0.171823
C88   C     C_R   0.177825 0.913684 0.245064 -0.132442
C89   C     C_R   0.160636 0.841677 0.256321 -0.168423
C90   C     C_R   0.421938 0.128094 0.446674 -0.125410
C91   C     C_R   0.197804 0.785882 0.239943 -0.107883
C92   C     C_R   0.240154 0.219264 0.220749 0.152007
C93   C     C_R   0.194812 0.254829 0.225078 -0.154268
C94   C     C_R   0.146020 0.217788 0.253585 -0.056468
C95   C     C_R   0.140636 0.146783 0.284773 -0.039433
C96   C     C_R   0.184645 0.112342 0.285037 -0.195512
C97   C     C_R   0.235022 0.147172 0.249529 -0.124774
C98   C     C_R   0.749245 0.801684 0.784265 0.140912
C99   C     C_R   0.736888 0.875694 0.793743 -0.120378
C100  C     C_R   0.778698 0.926875 0.761546 -0.162735
C101  C     C_R   0.380336 0.881827 0.553346 -0.159426
C102  C     C_R   0.833008 0.904452 0.719121 -0.153071
C103  C     C_R   0.845563 0.830704 0.709420 -0.096908
C104  C     C_R   0.803827 0.779316 0.742242 -0.091914
C105  C     C_R   0.243268 0.690089 0.789659 0.122150
C106  C     C_R   0.297656 0.702146 0.767693 -0.058945
C107  C     C_R   0.332855 0.643628 0.750378 -0.094712
C108  C     C_R   0.314200 0.573060 0.754242 -0.174408
C109  C     C_R   0.260311 0.560734 0.775212 -0.171221
C110  C     C_R   0.224979 0.619044 0.792196 -0.145685
C111  C     C_R   0.762476 0.317821 0.208475 0.137344
C112  C     C_R   0.298668 0.732708 0.323658 0.912126
C113  C     C_R   0.578971 0.131112 0.558561 -0.152642
C114  C     C_R   0.783200 0.386329 0.211079 -0.127470
C115  C     C_R   0.750466 0.447740 0.229895 -0.136221
C116  C     C_R   0.696655 0.441017 0.247828 -0.153979
C117  C     C_R   0.675573 0.372962 0.246326 -0.165911
C118  C     C_R   0.708181 0.311354 0.227280 -0.126597
C119  C     C_R   0.724690 0.755783 0.238967 0.147249
C120  C     C_R   0.685019 0.804658 0.297308 -0.121687
C121  C     C_R   0.630341 0.784085 0.343811 -0.108086
C122  C     C_R   0.614885 0.714903 0.331961 -0.114986
C123  C     C_R   0.654092 0.666169 0.273647 -0.162301
C124  C     C_R   0.724162 0.275771 0.953592 0.113075
C125  C     C_R   0.708909 0.686331 0.227339 -0.119628
C126  C     C_R   0.272221 0.253716 0.764450 0.159303
C127  C     C_R   0.284341 0.327738 0.748441 -0.113302
C128  C     C_R   0.338494 0.350667 0.701579 -0.177304
C129  C     C_R   0.380701 0.300156 0.671772 -0.059962
C130  C     C_R   0.368852 0.226506 0.688276 -0.102586
C131  C     C_R   0.314802 0.203241 0.734214 -0.137228
C132  C     C_R   0.279668 0.731813 0.043918 0.107610
C133  C     C_R   0.288298 0.257413 0.034306 0.113218
C134  C     C_R   0.716130 0.741139 0.958692 0.116585
C135  C     C_R   0.218432 0.763217 0.956942 0.102099
C136  C     C_R   0.785121 0.243735 0.040748 0.106227
C137  C     C_R   0.775456 0.778156 0.046791 0.111376
C138  C     C_R   0.224353 0.225133 0.952731 0.114917
C139  C     C_R   0.726272 0.204915 0.981120 -0.170777
C140  C     C_R   0.297952 0.268941 0.323838 0.865086
C141  C     C_R   0.280699 0.801396 0.010096 -0.153979
C142  C     C_R   0.267481 0.313179 0.003956 -0.198011
C143  C     C_R   0.763184 0.702561 0.941612 -0.178769
C144  C     C_R   0.217524 0.693535 0.990503 -0.155486
C145  C     C_R   0.783648 0.314593 0.011957 -0.147514
C146  C     C_R   0.728488 0.817071 0.063570 -0.155002
C147  C     C_R   0.245482 0.169187 0.982299 -0.189671
C148  C     C_R   0.756458 0.189054 0.024194 -0.194450
C149  C     C_R   0.250111 0.817038 0.967535 -0.193512
C150  C     C_R   0.235533 0.297194 0.964171 -0.162800
C151  C     C_R   0.701384 0.732581 0.676224 0.885183
C152  C     C_R   0.792733 0.721111 0.985005 -0.187530
C153  C     C_R   0.248057 0.677928 0.033242 -0.192948
C154  C     C_R   0.753052 0.330559 0.969352 -0.181892
C155  C     C_R   0.699014 0.798650 0.019833 -0.170394
C156  C     C_R   0.277360 0.185182 0.022497 -0.150563
C157  C     C_R   0.646033 0.331415 0.945220 -0.222520
C158  C     C_R   0.353115 0.667479 0.056963 -0.232565
C159  C     C_R   0.361770 0.319966 0.048968 -0.223326
C160  C     C_R   0.642572 0.675419 0.947107 -0.221871
C161  C     C_R   0.146048 0.829912 0.943337 -0.226035
C162  C     C_R   0.200873 0.766256 0.676461 0.877531
C163  C     C_R   0.856029 0.174137 0.055337 -0.226725
C164  C     C_R   0.855466 0.828775 0.053564 -0.215816
C165  C     C_R   0.145503 0.169674 0.945598 -0.226800
C166  C     C_R   0.618016 0.348950 0.898169 -0.064193
C167  C     C_R   0.381081 0.649273 0.103670 -0.063300
C168  C     C_R   0.385736 0.343954 0.099687 -0.066888
C169  C     C_R   0.616803 0.652944 0.898242 -0.068423
C170  C     C_R   0.118513 0.849586 0.896414 -0.068820
C171  C     C_R   0.882392 0.151928 0.103192 -0.067421
C172  C     C_R   0.882871 0.847673 0.101165 -0.067580
C173  C     C_R   0.799543 0.234533 0.323506 0.885179
C174  C     C_R   0.117556 0.151860 0.898518 -0.062851
C175  C     C_R   0.635068 0.323120 0.813510 -0.280724
C176  C     C_R   0.365216 0.676129 0.187585 -0.280400
C177  C     C_R   0.367391 0.320098 0.185750 -0.280442
C178  C     C_R   0.634031 0.677509 0.812858 -0.282707
C179  C     C_R   0.134230 0.822784 0.812496 -0.278081
C180  C     C_R   0.866302 0.177694 0.187701 -0.281873
C181  C     C_R   0.864527 0.824211 0.187116 -0.284511
C182  C     C_R   0.134659 0.177666 0.813775 -0.281490
C183  C     C_R   0.683479 0.286432 0.769669 -0.097193
C184  C     C_R   0.795752 0.773537 0.325515 0.885963
C185  C     C_R   0.320685 0.720631 0.227924 -0.106384
C186  C     C_R   0.320706 0.279194 0.227403 -0.094744
C187  C     C_R   0.678791 0.721788 0.772171 -0.097878
C188  C     C_R   0.177926 0.776703 0.772689 -0.097350
C189  C     C_R   0.823573 0.225396 0.226895 -0.104329
C190  C     C_R   0.814664 0.791129 0.232242 -0.095117
C191  C     C_R   0.183568 0.213270 0.769361 -0.098928
C192  C     C_R   0.714347 0.270449 0.814432 -0.030527
C193  C     C_R   0.294047 0.744650 0.179156 -0.025188
C194  C     C_R   0.293850 0.256168 0.178218 -0.026750
C195  C     C_R   0.203371 0.228394 0.675168 0.905831
C196  C     C_R   0.704632 0.747787 0.821343 -0.027907
C197  C     C_R   0.203389 0.750204 0.822282 -0.023832
C198  C     C_R   0.799807 0.254867 0.176247 -0.020908
C199  C     C_R   0.782600 0.778620 0.188882 -0.028245
C200  C     C_R   0.214934 0.228107 0.813426 -0.031554
C201  C     C_R   0.690922 0.129655 0.537100 0.925558
C202  C     C_R   0.305036 0.872164 0.477284 0.957806
C203  C     C_R   0.309123 0.129516 0.464175 0.898572
C204  C     C_R   0.690592 0.870399 0.537826 0.894698
C205  C     C_R   0.190888 0.629484 0.535612 0.912194
C206  C     C_R   0.918246 0.501547 0.442576 0.062704
C207  C     C_R   0.809226 0.370554 0.462652 0.902547
C208  C     C_R   0.809133 0.629871 0.462427 0.922188
C209  C     C_R   0.194699 0.372093 0.523373 0.952858
C210  C     C_R   0.694007 0.291482 0.904164 0.015282
C211  C     C_R   0.309699 0.715567 0.093698 0.019464
C212  C     C_R   0.316138 0.275524 0.087052 0.019251
C213  C     C_R   0.686579 0.722852 0.909133 0.015302
C214  C     C_R   0.188375 0.779897 0.907334 0.020054
C215  C     C_R   0.814755 0.225874 0.090785 0.023716
C216  C     C_R   0.805098 0.794201 0.096972 0.014486
H1    H     H_    0.143231 0.334772 0.424271 0.220368
H2    H     H_    0.246477 0.624000 0.059157 0.136801
H3    H     H_    0.245787 0.505976 0.778928 0.138180
H4    H     H_    0.182948 0.608768 0.810455 0.139178
H5    H     H_    0.825145 0.392365 0.195734 0.134214
H6    H     H_    0.766873 0.500619 0.230235 0.158909
H7    H     H_    0.671367 0.488543 0.262450 0.121214
H8    H     H_    0.634098 0.368111 0.259033 0.120006
H9    H     H_    0.691715 0.259007 0.224725 0.119210
H10   H     H_    0.696548 0.858518 0.306684 0.112302
H11   H     H_    0.599945 0.821852 0.388712 0.138170
H12   H     H_    0.572511 0.699134 0.367753 0.119119
H13   H     H_    0.292784 0.141327 0.045789 0.130901
H14   H     H_    0.641913 0.612862 0.264178 0.118584
H15   H     H_    0.738955 0.648151 0.182379 0.119985
H16   H     H_    0.251900 0.367201 0.771238 0.109552
H17   H     H_    0.347785 0.407523 0.688072 0.115431
H18   H     H_    0.422581 0.318084 0.635847 0.175169
H19   H     H_    0.401510 0.187417 0.665468 0.131230
H20   H     H_    0.306039 0.146012 0.746357 0.120736
H21   H     H_    0.663093 0.829391 0.033211 0.132578
H22   H     H_    0.251756 0.870969 0.941572 0.136563
H23   H     H_    0.756894 0.134095 0.045801 0.138004
H24   H     H_    0.828628 0.690243 0.971510 0.138772
H25   H     H_    0.219425 0.341147 0.942211 0.128062
H26   H     H_    0.704498 0.161866 0.969163 0.129849
H27   H     H_    0.305100 0.843628 0.016860 0.134840
H28   H     H_    0.274551 0.369214 0.013696 0.135364
H29   H     H_    0.914382 0.681883 0.412506 0.205288
H30   H     H_    0.777110 0.658239 0.894287 0.131027
H31   H     H_    0.193307 0.651240 0.983338 0.138562
H32   H     H_    0.805891 0.357530 0.022944 0.138225
H33   H     H_    0.714533 0.861335 0.110957 0.130645
H34   H     H_    0.237847 0.113242 0.973224 0.132993
H35   H     H_    0.631732 0.350901 0.012756 0.158813
H36   H     H_    0.365007 0.644368 0.991791 0.159091
H37   H     H_    0.377173 0.338208 0.980612 0.162208
H38   H     H_    0.629436 0.654718 0.013831 0.161293
H39   H     H_    0.134618 0.853334 0.008183 0.161836
H40   H     H_    0.915992 0.322583 0.402310 0.206697
H41   H     H_    0.867568 0.151319 0.990162 0.162424
H42   H     H_    0.871396 0.845071 0.984404 0.164195
H43   H     H_    0.130856 0.150874 0.013538 0.156022
H44   H     H_    0.612362 0.336247 0.779183 0.182527
H45   H     H_    0.386104 0.659120 0.223615 0.180639
H46   H     H_    0.387129 0.338683 0.222974 0.178939
H47   H     H_    0.614321 0.658347 0.775827 0.183054
H48   H     H_    0.114065 0.841250 0.775884 0.184669
H49   H     H_    0.885308 0.157149 0.225232 0.178743
H50   H     H_    0.887579 0.836373 0.221124 0.177872
H51   H     H_    0.082490 0.674859 0.584872 0.203034
H52   H     H_    0.111763 0.164917 0.779669 0.177836
H53   H     H_    0.005887 0.213960 0.563234 0.157009
H54   H     H_    0.061157 0.260823 0.568938 0.168979
H55   H     H_    0.069266 0.169101 0.530767 0.168605
H56   H     H_    0.990891 0.760480 0.342605 0.136912
H57   H     H_    0.023797 0.817104 0.389093 0.166455
H58   H     H_    0.960954 0.844534 0.395924 0.185490
H59   H     H_    0.028290 0.181615 0.309613 0.177882
H60   H     H_    0.010973 0.270399 0.285759 0.130559
H61   H     H_    0.961104 0.199690 0.329200 0.182971
H62   H     H_    0.581911 0.822817 0.604129 0.212238
H63   H     H_    0.103343 0.754827 0.423436 0.139175
H64   H     H_    0.104272 0.794883 0.518696 0.192739
H65   H     H_    0.075514 0.843765 0.461883 0.165716
H66   H     H_    0.487097 0.694541 0.739758 0.187337
H67   H     H_    0.432099 0.748922 0.748017 0.172877
H68   H     H_    0.491651 0.791012 0.744729 0.152257
H69   H     H_    0.523240 0.227702 0.318309 0.129732
H70   H     H_    0.524761 0.321937 0.345358 0.182338
H71   H     H_    0.467558 0.286755 0.339137 0.180948
H72   H     H_    0.473146 0.691256 0.503997 0.175606
H73   H     H_    0.416992 0.174735 0.413539 0.200694
H74   H     H_    0.429692 0.741691 0.471439 0.162072
H75   H     H_    0.404767 0.662360 0.539839 0.173963
H76   H     H_    0.592806 0.273759 0.373931 0.136343
H77   H     H_    0.627630 0.236296 0.429727 0.187511
H78   H     H_    0.610923 0.330507 0.440403 0.179237
H79   H     H_    0.721979 0.547395 0.408201 0.167726
H80   H     H_    0.723133 0.501195 0.501062 0.152937
H81   H     H_    0.721666 0.452355 0.410668 0.180298
H82   H     H_    0.274514 0.499394 0.516330 0.153978
H83   H     H_    0.264680 0.453839 0.616519 0.169494
H84   H     H_    0.351138 0.838917 0.584208 0.215338
H85   H     H_    0.259650 0.549158 0.616896 0.188443
H86   H     H_    0.241734 0.048734 0.379493 0.168889
H87   H     H_    0.225699 0.000547 0.481865 0.155939
H88   H     H_    0.235639 0.953449 0.382949 0.184221
H89   H     H_    0.775522 0.000779 0.508293 0.152121
H90   H     H_    0.772938 0.951861 0.601905 0.184010
H91   H     H_    0.773237 0.047398 0.603304 0.169793
H92   H     H_    0.809451 0.343818 0.725666 0.115487
H93   H     H_    0.902155 0.292712 0.641624 0.131882
H94   H     H_    0.915683 0.159780 0.634864 0.128147
H95   H     H_    0.585396 0.181334 0.583962 0.215574
H96   H     H_    0.836751 0.078143 0.712311 0.115432
H97   H     H_    0.743540 0.128160 0.795999 0.114888
H98   H     H_    0.311471 0.887724 0.180115 0.135882
H99   H     H_    0.246223 0.985295 0.207059 0.135847
H100  H     H_    0.149184 0.956659 0.255886 0.121112
H101  H     H_    0.118836 0.829040 0.275678 0.112401
H102  H     H_    0.184607 0.730168 0.245585 0.116936
H103  H     H_    0.197980 0.310394 0.202964 0.122303
H104  H     H_    0.112180 0.244982 0.253168 0.119029
H105  H     H_    0.102247 0.118676 0.309968 0.121784
H106  H     H_    0.752472 0.385398 0.947554 0.134485
H107  H     H_    0.179545 0.058562 0.312497 0.110153
H108  H     H_    0.269766 0.118783 0.245566 0.125161
H109  H     H_    0.694958 0.893605 0.826518 0.132070
H110  H     H_    0.768850 0.983862 0.769257 0.131513
H111  H     H_    0.865359 0.944154 0.693839 0.128809
H112  H     H_    0.887603 0.813372 0.676680 0.177921
H113  H     H_    0.813883 0.722299 0.734698 0.119831
H114  H     H_    0.312133 0.756561 0.766954 0.138537
H115  H     H_    0.374402 0.652733 0.735363 0.167527
H116  H     H_    0.341445 0.528027 0.741822 0.126935
O1    O     O_R   0.746490 0.236330 0.638080 -0.617229
O2    O     O_R   0.325830 0.813840 0.483730 -0.647676
O3    O     O_R   0.325830 0.186160 0.483730 -0.628121
O4    O     O_R   0.674170 0.813840 0.516270 -0.636309
O5    O     O_R   0.174170 0.686160 0.516270 -0.653502
O6    O     O_R   0.825830 0.313840 0.483730 -0.633293
O7    O     O_R   0.825830 0.686160 0.483730 -0.629988
O8    O     O_R   0.174170 0.313840 0.516270 -0.647570
O9    O     O_R   0.739960 0.127620 0.525000 -0.623506
O10   O     O_R   0.260040 0.872380 0.475000 -0.624737
O11   O     O_R   0.260040 0.127620 0.475000 -0.636136
O12   O     O_R   0.253510 0.763670 0.361920 -0.625428
O13   O     O_R   0.739960 0.872380 0.525000 -0.628964
O14   O     O_R   0.239960 0.627620 0.525000 -0.632639
O15   O     O_R   0.760040 0.372380 0.475000 -0.625994
O16   O     O_R   0.760040 0.627620 0.475000 -0.625911
O17   O     O_R   0.239960 0.372380 0.525000 -0.623871
O18   O     O_R   0.680700 0.294870 0.629350 -0.632321
O19   O     O_R   0.319300 0.705130 0.370650 -0.630022
O20   O     O_R   0.319300 0.294870 0.370650 -0.638869
O21   O     O_R   0.680700 0.705130 0.629350 -0.633958
O22   O     O_R   0.180700 0.794870 0.629350 -0.641218
O23   O     O_R   0.253510 0.236330 0.361920 -0.627335
O24   O     O_R   0.819300 0.205130 0.370650 -0.637889
O25   O     O_R   0.819300 0.794870 0.370650 -0.639659
O26   O     O_R   0.180700 0.205130 0.629350 -0.632917
O27   O     O_R   0.062020 0.072840 0.007170 -0.631522
O28   O     O_R   0.937980 0.927160 0.992830 -0.624604
O29   O     O_R   0.937980 0.072840 0.992830 -0.626477
O30   O     O_R   0.062020 0.927160 0.007170 -0.630835
O31   O     O_R   0.562020 0.572840 0.007170 -0.627708
O32   O     O_R   0.437980 0.427160 0.992830 -0.627277
O33   O     O_R   0.437980 0.572840 0.992830 -0.631028
O34   O     O_R   0.746490 0.763670 0.638080 -0.616731
O35   O     O_R   0.562020 0.427160 0.007170 -0.631334
O36   O     O_R   0.947860 0.073950 0.109290 -0.628100
O37   O     O_R   0.052140 0.926050 0.890710 -0.623367
O38   O     O_R   0.052140 0.073950 0.890710 -0.623008
O39   O     O_R   0.947860 0.926050 0.109290 -0.624683
O40   O     O_R   0.447860 0.573950 0.109290 -0.625274
O41   O     O_R   0.552140 0.426050 0.890710 -0.621086
O42   O     O_R   0.552140 0.573950 0.890710 -0.624399
O43   O     O_R   0.447860 0.426050 0.109290 -0.627688
O44   O     O_3   0.071746 0.244241 0.440552 -0.600428
O45   O     O_R   0.246490 0.736330 0.638080 -0.626261
O46   O     O_3   0.954110 0.763578 0.482954 -0.585503
O47   O     O_3   0.979376 0.240748 0.423025 -0.594732
O48   O     O_3   0.027654 0.762279 0.545604 -0.596384
O49   O     O_3   0.503358 0.747635 0.623884 -0.602742
O50   O     O_3   0.470813 0.261147 0.453579 -0.584950
O51   O     O_3   0.411075 0.751770 0.605200 -0.625090
O52   O     O_3   0.545916 0.263299 0.512934 -0.602704
O53   O     O_3   0.796064 0.500186 0.374805 -0.620196
O54   O     O_3   0.193528 0.493227 0.625806 -0.615934
O55   O     O_3   0.306896 0.992581 0.373394 -0.615506
O56   O     O_R   0.753510 0.263670 0.361920 -0.628908
O57   O     O_3   0.700171 0.000470 0.630669 -0.613676
O58   O     O_R   0.753510 0.736330 0.361920 -0.620360
O59   O     O_R   0.246490 0.263670 0.638080 -0.616998
O60   O     O_R   0.674170 0.186160 0.516270 -0.655801
Zn1   Zn    Zn3+2 0.792340 0.208750 0.507670 0.961719
Zn2   Zn    Zn3+2 0.494040 0.500000 0.919480 0.934099
Zn3   Zn    Zn3+2 0.005960 0.000000 0.080520 0.915970
Zn4   Zn    Zn3+2 0.994040 0.000000 0.919480 0.937527
Zn5   Zn    Zn3+2 0.207660 0.791250 0.492330 0.913831
Zn6   Zn    Zn3+2 0.207660 0.208750 0.492330 0.942138
Zn7   Zn    Zn3+2 0.792340 0.791250 0.507670 0.967861
Zn8   Zn    Zn3+2 0.292340 0.708750 0.507670 0.931727
Zn9   Zn    Zn3+2 0.707660 0.291250 0.492330 0.930037
Zn10  Zn    Zn3+2 0.707660 0.708750 0.492330 0.960698
Zn11  Zn    Zn3+2 0.292340 0.291250 0.507670 0.967012
Zn12  Zn    Zn3+2 0.505960 0.500000 0.080520 0.922355

loop_
_geom_bond_atom_site_label_1
_geom_bond_atom_site_label_2
_ccdc_geom_bond_type
C49   C113  A    
C105  C110  A    
C126  C127  A    
C31   C42   A    
O21   Zn10  S    
O23   Zn6   S    
O41   Zn2   S    
C161  C214  A    
C50   C79   A    
C14   C33   A    
C76   H86   S    
C114  C115  A    
C19   C46   A    
C95   H105  S    
C16   C31   A    
C55   C208  S    
C173  O56   A    
C23   O50   S    
C50   C59   A    
C70   O49   S    
C72   H75   S    
O1    Zn1   S    
O6    Zn1   S    
C92   C194  S    
C52   C61   A    
C193  C211  A    
C106  C107  A    
C69   H63   S    
C35   H1    S    
C130  H19   S    
C16   C25   A    
C108  C109  A    
C139  H26   S    
C134  C143  A    
C13   C51   A    
C44   C53   A    
C54   C209  S    
C195  O26   A    
C195  O59   A    
O60   Zn9   S    
C6    C171  S    
O5    Zn5   S    
C24   C50   A    
O36   Zn3   S    
C190  C199  A    
C137  C146  A    
C74   O53   S    
C140  O23   A    
C179  C188  A    
C70   H66   S    
C96   H107  S    
C177  C186  A    
C21   O52   S    
C181  C190  A    
C207  O15   A    
C134  C155  A    
O37   Zn4   S    
C8    O42   A    
C3    C138  S    
C192  C210  A    
C4    O38   A    
C83   H96   S    
C111  C118  A    
O22   Zn5   S    
C94   H104  S    
C35   C45   A    
O9    Zn1   S    
C76   H88   S    
C8    C169  S    
C15   C30   A    
C175  C183  A    
C126  C200  S    
C158  C211  A    
C87   H99   S    
C1    O18   A    
C63   O55   S    
C121  H11   S    
C116  H7    S    
C130  C131  A    
C18   C38   A    
C77   O57   S    
C75   H82   S    
C142  H28   S    
C48   C101  A    
C73   H76   S    
C114  H5    S    
C29   O44   S    
C184  O25   A    
C194  C212  A    
C181  H50   S    
C57   H40   S    
C2    C40   A    
C88   C89   A    
C98   C99   A    
C7    C170  S    
C151  O34   A    
C27   O47   S    
C66   H57   S    
C109  C110  A    
C197  C214  A    
C70   H67   S    
C207  O6    A    
C147  H34   S    
C165  H43   S    
C27   C29   A    
C115  H6    S    
C128  C129  A    
C174  C182  A    
C1    C183  S    
C85   C86   A    
C133  C142  A    
C113  H95   S    
C134  C213  S    
C37   C40   A    
C180  C189  A    
C112  O12   A    
C51   C90   A    
C38   C39   A    
C9    O43   A    
C91   H102  S    
C78   C80   A    
C43   C52   A    
C90   H73   S    
C115  C116  A    
C11   O41   A    
C67   H60   S    
C72   H74   S    
C64   O57   S    
C68   H51   S    
C20   C35   A    
C6    O36   A    
C172  C181  A    
C150  H25   S    
C2    C44   A    
C22   C25   A    
C107  C108  A    
C30   C41   A    
C75   H85   S    
C201  O60   A    
C99   H109  S    
O4    Zn10  S    
C43   C206  A    
C94   C95   A    
C132  C211  S    
C157  H35   S    
C6    O29   A    
C92   C97   A    
C2    C45   A    
C58   C64   A    
O58   Zn10  S    
C139  C148  A    
C146  H33   S    
C34   C39   A    
C191  C200  A    
C112  C185  S    
C165  C174  A    
O13   Zn7   S    
O28   Zn4   S    
C73   H78   S    
C19   C28   A    
O27   Zn3   S    
C1    O1    A    
C5    O39   A    
C83   C84   A    
C204  O13   A    
C122  H12   S    
C3    C200  A    
C98   C196  S    
C108  H116  S    
C102  H111  S    
C9    O32   A    
C65   H54   S    
C136  C148  A    
C145  C154  A    
O39   Zn3   S    
C76   O55   S    
C184  C190  S    
C205  O14   A    
C164  C172  A    
C154  H106  S    
C4    O27   A    
C120  H10   S    
C120  C121  A    
C3    C165  A    
C129  C130  A    
C132  C141  A    
O20   Zn11  S    
C186  C194  A    
C9    C168  S    
C125  H15   S    
C34   C37   A    
C163  H41   S    
C143  H30   S    
C205  O5    A    
C129  H18   S    
C140  C186  S    
C14   C22   A    
C5    O28   A    
C117  C118  A    
O29   Zn4   S    
O7    Zn7   S    
O31   Zn12  S    
O25   Zn7   S    
C201  O9    A    
O30   Zn3   S    
C123  H14   S    
C124  C210  S    
C79   H62   S    
C55   C61   A    
C203  O11   A    
C127  H16   S    
C5    C172  S    
O17   Zn11  S    
C75   H83   S    
C102  C103  A    
C112  O19   A    
C191  C195  S    
C43   C57   A    
C144  H31   S    
C71   H70   S    
C117  H8    S    
C51   C60   A    
C204  O4    A    
C173  O24   A    
C87   C88   A    
C187  C196  A    
C52   C207  S    
C24   C42   A    
C183  C192  A    
C13   C41   A    
C176  C185  A    
C164  C216  A    
C151  C187  S    
C166  C175  A    
C119  C199  S    
C74   H79   S    
C158  H36   S    
C124  C154  A    
C111  C198  S    
C123  C125  A    
C135  C214  S    
C168  C177  A    
C39   C206  A    
C128  H17   S    
C160  H38   S    
C89   H101  S    
C140  O20   A    
C124  C139  A    
C163  C215  A    
C77   H89   S    
C146  C155  A    
C82   H94   S    
C67   O47   S    
C158  C167  A    
C160  C169  A    
C137  C152  A    
O38   Zn4   S    
C67   H61   S    
C163  C171  A    
C81   H93   S    
C175  H44   S    
C136  C215  S    
C7    O37   A    
O18   Zn9   S    
O19   Zn8   S    
C4    C174  S    
C104  H113  S    
O45   Zn8   S    
C198  C215  A    
C80   H92   S    
C97   H108  S    
C180  H49   S    
C78   C192  S    
C86   C87   A    
C14   C101  A    
C54   C62   A    
O43   Zn12  S    
C69   H64   S    
C159  C212  A    
C177  H46   S    
C109  H3    S    
C179  H48   S    
C18   C57   A    
O8    Zn6   S    
C149  H22   S    
C147  C156  A    
C121  C122  A    
C178  C187  A    
C119  C125  A    
C143  C152  A    
C159  C168  A    
O59   Zn11  S    
C103  H112  S    
C21   C23   A    
C137  C216  S    
C28   O46   S    
C66   H58   S    
C182  C191  A    
C17   C26   A    
C127  C128  A    
O12   Zn5   S    
O15   Zn9   S    
C10   O33   A    
C46   C47   A    
C17   C68   A    
C47   C206  A    
C119  C120  A    
C66   O46   S    
C131  H20   S    
C106  H114  S    
C209  O17   A    
C105  C106  A    
C170  C179  A    
C61   O53   S    
C16   C79   A    
C33   C41   A    
C142  C150  A    
C36   C38   A    
O35   Zn12  S    
C162  C188  S    
C77   H91   S    
C188  C197  A    
C74   H80   S    
C92   C93   A    
C111  C114  A    
C67   H59   S    
O34   Zn7   S    
O24   Zn1   S    
C20   C36   A    
C176  H45   S    
C209  O8    A    
C155  H21   S    
C82   C83   A    
C103  C104  A    
C32   C42   A    
O42   Zn2   S    
C76   H87   S    
O14   Zn8   S    
O10   Zn5   S    
C189  C198  A    
O32   Zn2   S    
C93   C94   A    
C164  H42   S    
C148  H23   S    
C71   H71   S    
C95   C96   A    
C72   H72   S    
C81   C82   A    
C85   C91   A    
C7    O30   A    
C141  C149  A    
C138  C150  A    
C59   C64   A    
C141  H27   S    
C60   C63   A    
O56   Zn9   S    
C162  O22   A    
C178  H47   S    
C98   C104  A    
C56   C202  S    
C8    O31   A    
C88   H100  S    
C10   O40   A    
C116  C117  A    
C73   H77   S    
C202  O2    A    
C144  C153  A    
C156  H13   S    
C182  H52   S    
C77   H90   S    
C58   C201  S    
C10   C167  S    
C100  H110  S    
C11   C166  S    
C53   C205  S    
C31   C33   A    
C107  H115  S    
C73   O52   S    
C110  H4    S    
C136  C145  A    
C15   C23   A    
C157  C210  A    
C12   C32   A    
C22   O51   S    
C203  O3    A    
C59   C204  S    
C65   O44   S    
C86   H98   S    
C20   C29   A    
C118  H9    S    
C69   H65   S    
O16   Zn10  S    
C199  C216  A    
C36   C40   A    
C101  H84   S    
O40   Zn12  S    
O3    Zn11  S    
C135  C149  A    
C12   C21   A    
C49   C58   A    
O33   Zn2   S    
C105  C197  S    
C184  O58   A    
C133  C156  A    
O2    Zn8   S    
C53   C62   A    
C62   O54   S    
C60   C203  S    
C99   C100  A    
C152  H24   S    
C138  C147  A    
C96   C97   A    
C100  C102  A    
C132  C153  A    
C84   H97   S    
C56   C63   A    
C17   C37   A    
C153  H2    S    
C208  O7    A    
C161  C170  A    
C135  C144  A    
C45   C54   A    
C71   H69   S    
C171  C180  A    
C44   C68   A    
C89   C91   A    
C169  C178  A    
C161  H39   S    
C65   H53   S    
C47   C55   A    
C12   C113  A    
C24   C49   A    
C48   C56   A    
C25   O49   S    
C145  H32   S    
C18   C27   A    
C46   H29   S    
C185  C193  A    
C80   C81   A    
C19   C34   A    
C157  C166  A    
C208  O16   A    
C13   C48   A    
C71   O50   S    
C26   C28   A    
C75   O54   S    
C93   H103  S    
C202  O10   A    
C15   C90   A    
C30   C32   A    
C196  C213  A    
C85   C193  S    
C26   O48   S    
C126  C131  A    
C70   H68   S    
C160  C213  A    
C173  C189  S    
C151  O21   A    
C162  O45   A    
O11   Zn6   S    
C65   H55   S    
C66   H56   S    
C72   O51   S    
C11   O35   A    
C78   C84   A    
C133  C212  S    
C159  H37   S    
C74   H81   S    
O26   Zn6   S    
C69   O48   S    
C122  C123  A    
C167  C176  A    
