data_mof_unit_57110.cif
_audit_creation_date              2012-12-10T17:36:20-0500
_audit_creation_method            fapswitch 2.2
_symmetry_space_group_name_H-M    P1
_symmetry_Int_Tables_number       1
_space_group_crystal_system       triclinic
_cell_length_a                    12.351869
_cell_length_b                    13.29498
_cell_length_c                    15.879833
_cell_angle_alpha                 76.519464
_cell_angle_beta                  101.801016
_cell_angle_gamma                 117.2155
_cell_volume                      2240.66532109

loop_
_atom_site_label
_atom_site_type_symbol
_atom_type_description
_atom_site_fract_x
_atom_site_fract_y
_atom_site_fract_z
_atom_type_partial_charge
C1    C     C_R   0.854492 0.286250 0.507713 0.781339
C2    C     C_3   0.132529 0.559238 0.057806 -0.025260
C3    C     C_3   0.997978 0.498728 0.082954 0.252748
C4    C     C_3   0.928923 0.568384 0.025920 -0.420107
C5    C     C_3   0.930410 0.574500 0.926176 0.401435
C6    C     C_1   0.998134 0.499665 0.175216 -0.070245
C7    C     C_1   0.999929 0.500193 0.824464 -0.079840
C8    C     C_1   0.000837 0.499716 0.749221 -0.194803
C9    C     C_R   0.272374 0.033513 0.405962 -0.202656
C10   C     C_R   0.230736 0.833651 0.456461 -0.070890
C11   C     C_R   0.807984 0.078887 0.566721 0.178105
C12   C     C_R   0.000408 0.499892 0.659580 0.822890
C13   C     C_R   0.721999 0.964960 0.581619 -0.146891
C14   C     C_R   0.601892 0.932198 0.544841 -0.235657
C15   C     C_R   0.564489 0.010285 0.485748 0.084026
C16   C     C_R   0.649985 0.126013 0.467166 0.033914
C17   C     C_R   0.440068 0.977726 0.451522 0.078292
C18   C     C_R   0.398208 0.062738 0.415718 0.131017
C19   C     C_R   0.483313 0.173819 0.388579 -0.241490
C20   C     C_R   0.608243 0.202005 0.407418 -0.218043
C21   C     C_R   0.355253 0.862921 0.452744 0.113978
C22   C     C_R   0.189872 0.920337 0.432562 -0.245627
C23   C     C_R   0.145620 0.713015 0.481329 0.806305
C24   C     C_R   0.771691 0.162347 0.511270 -0.122695
C25   C     C_R   0.383301 0.402520 0.667995 -0.296827
C26   C     C_R   0.750459 0.629145 0.373049 0.073059
C27   C     C_R   0.649391 0.652642 0.341072 -0.260856
C28   C     C_R   0.550522 0.607308 0.389332 -0.185355
C29   C     C_R   0.552972 0.539923 0.471687 -0.036303
C30   C     C_R   0.657851 0.516212 0.502525 0.257619
C31   C     C_R   0.454806 0.493986 0.524908 -0.036968
C32   C     C_R   0.476985 0.452375 0.613932 0.134465
C33   C     C_R   0.589365 0.450778 0.646553 -0.286313
C34   C     C_R   0.999786 0.500425 0.340378 0.811165
C35   C     C_R   0.658984 0.450140 0.587999 0.181782
C36   C     C_R   0.335798 0.487169 0.494626 0.011592
C37   C     C_R   0.267410 0.393815 0.633723 0.083159
C38   C     C_3   0.131292 0.550755 0.961512 -0.434247
C39   C     C_3   0.932849 0.376120 0.963260 -0.427310
C40   C     C_3   0.933957 0.373341 0.061950 0.034114
C41   C     C_1   0.998671 0.500218 0.250694 -0.195274
C42   C     C_3   0.997663 0.501493 0.916184 0.255833
Cu1   Cu    Cu3+1 0.098280 0.475420 0.519630 0.925419
Cu2   Cu    Cu3+1 0.901720 0.524580 0.480370 0.925628
H1    H     H_    0.188583 0.636204 0.926260 0.161741
H2    H     H_    0.170227 0.651753 0.062728 0.160794
H3    H     H_    0.833801 0.530822 0.043120 0.175769
H4    H     H_    0.093937 0.899934 0.430405 0.167171
H5    H     H_    0.238802 0.098456 0.381401 0.142952
H6    H     H_    0.537676 0.845928 0.567078 0.162904
H7    H     H_    0.746231 0.901053 0.625942 0.144263
H8    H     H_    0.174481 0.494495 0.958174 0.186734
H9    H     H_    0.195824 0.357311 0.676054 0.125749
H10   H     H_    0.601926 0.413613 0.714335 0.153619
H11   H     H_    0.398952 0.368478 0.735996 0.131227
H12   H     H_    0.313722 0.522269 0.428652 0.123229
H13   H     H_    0.826144 0.664670 0.334448 0.128628
H14   H     H_    0.475143 0.629443 0.362493 0.138871
H15   H     H_    0.647716 0.706284 0.278467 0.140039
H16   H     H_    0.838464 0.332242 0.931082 0.184309
H17   H     H_    0.981343 0.325909 0.956537 0.146561
H18   H     H_    0.972041 0.655944 0.043583 0.148951
N1    N     N_R   0.246300 0.438200 0.549400 -0.181239
N2    N     N_R   0.754300 0.561180 0.451130 -0.199468
O1    O     O_R   0.972520 0.318130 0.524690 -0.568770
O2    O     O_R   0.806530 0.359650 0.491530 -0.593849
O3    O     O_R   0.083030 0.479240 0.637150 -0.585336
O4    O     O_R   0.917040 0.520750 0.603990 -0.567346
O5    O     O_R   0.193470 0.640350 0.508470 -0.568551
O6    O     O_R   0.027480 0.681870 0.475310 -0.587707
O7    O     O_R   0.082960 0.479250 0.396010 -0.583955
O8    O     O_R   0.916970 0.520760 0.362850 -0.593314
C43   C     C_3   0.221669 0.515253 0.118798 -0.900947
H19   H     H_    0.315099 0.565712 0.098091 0.236973
H20   H     H_    0.227410 0.526191 0.187000 0.243279
H21   H     H_    0.194096 0.423791 0.116931 0.234710
H22   H     H_    0.453562 0.238264 0.352082 0.149361
C44   C     C_3   0.392862 0.781733 0.426038 -0.856283
H23   H     H_    0.322477 0.734201 0.376047 0.223431
H24   H     H_    0.479887 0.829025 0.395743 0.228048
H25   H     H_    0.405576 0.719929 0.482726 0.247022
C45   C     C_3   0.934547 0.107888 0.615672 -0.840016
H26   H     H_    0.942311 0.031530 0.657881 0.210462
H27   H     H_    0.003719 0.142127 0.569006 0.250899
H28   H     H_    0.956139 0.170930 0.658879 0.227410
H29   H     H_    0.669936 0.285574 0.377929 0.184849
C46   C     C_3   0.659741 0.333950 0.603081 -0.746470
H30   H     H_    0.597012 0.270054 0.651118 0.186846
H31   H     H_    0.620778 0.295620 0.542928 0.245649
H32   H     H_    0.750359 0.336730 0.631007 0.235243
H33   H     H_    0.988643 0.326998 0.099407 0.163153
C47   C     C_3   0.804219 0.301754 0.090459 -0.905456
H34   H     H_    0.739345 0.337488 0.054677 0.240692
H35   H     H_    0.768525 0.212896 0.077341 0.233100
H36   H     H_    0.805960 0.296567 0.161465 0.243733
C48   C     C_3   0.997223 0.701827 0.883939 -0.866589
H37   H     H_    0.090048 0.745264 0.918178 0.208020
H38   H     H_    0.005627 0.709098 0.814230 0.239616
H39   H     H_    0.945555 0.750462 0.887309 0.228784
C49   C     C_3   0.796912 0.529032 0.880507 -0.862674
H40   H     H_    0.752763 0.583111 0.886538 0.227262
H41   H     H_    0.795030 0.530915 0.809961 0.240290
H42   H     H_    0.739009 0.440465 0.909812 0.211392

loop_
_geom_bond_atom_site_label_1
_geom_bond_atom_site_label_2
_ccdc_geom_bond_type
C22   H4    S    
C46   H30   S    
C30   N2    A    
C43   H19   S    
C23   O5    A    
Cu2   O2    S    
C19   C20   A    
C5    C42   S    
C3    C6    S    
Cu1   O1    S    
Cu1   N1    S    
C7    C8    T    
Cu2   N2    S    
C12   O4    A    
C26   C27   A    
C30   C35   A    
C28   C29   A    
C38   C42   S    
C44   H24   S    
C9    C22   A    
C38   H8    S    
C15   C16   A    
C48   H39   S    
C4    H18   S    
C11   C24   A    
C18   C19   A    
C7    C42   S    
C19   H22   S    
C26   N2    A    
C49   H40   S    
C38   H1    S    
C25   C37   A    
C13   H7    S    
C35   C46   S    
C6    C41   T    
C20   H29   S    
C21   C44   S    
C1    O1    A    
Cu2   O6    S    
C36   N1    A    
C16   C20   A    
C37   H9    S    
C25   C32   A    
C11   C45   S    
C13   C14   A    
C43   H20   S    
C23   O6    A    
C34   C41   S    
C49   H41   S    
C37   N1    A    
C17   C18   A    
C39   C42   S    
C10   C21   A    
C39   H17   S    
C12   O3    A    
C9    H5    S    
C39   C40   S    
C44   H23   S    
C10   C22   A    
C49   H42   S    
C2    H2    S    
C48   H38   S    
Cu1   Cu2   S    
C29   C30   A    
C36   H12   S    
C2    C38   S    
C31   C32   A    
C5    C49   S    
C8    C12   S    
C48   H37   S    
C47   H35   S    
C1    O2    A    
C40   C47   S    
C2    C43   S    
Cu1   O3    S    
C3    C40   S    
C45   H27   S    
C46   H31   S    
C43   H21   S    
Cu2   O4    S    
C3    C4    S    
C34   O8    A    
C5    C48   S    
C33   H10   S    
C15   C17   A    
Cu1   O7    S    
C14   C15   A    
C25   H11   S    
C4    C5    S    
C28   H14   S    
C10   C23   S    
C45   H28   S    
C32   C33   A    
C2    C3    S    
C29   C31   A    
C27   H15   S    
C11   C13   A    
C44   H25   S    
C14   H6    S    
C39   H16   S    
C47   H34   S    
C33   C35   A    
Cu2   O8    S    
C47   H36   S    
C40   H33   S    
C26   H13   S    
C17   C21   A    
C9    C18   A    
C1    C24   S    
C16   C24   A    
C45   H26   S    
C46   H32   S    
C27   C28   A    
C31   C36   A    
Cu1   O5    S    
C34   O7    A    
C4    H3    S    
