data_mof_unit_15053.cif
_audit_creation_date              2012-10-26T18:59:59-0400
_audit_creation_method            fapswitch 2.2
_symmetry_space_group_name_H-M    P1
_symmetry_Int_Tables_number       1
_space_group_crystal_system       triclinic
_cell_length_a                    9.561165
_cell_length_b                    10.828104
_cell_length_c                    17.096424
_cell_angle_alpha                 89.452073
_cell_angle_beta                  94.108011
_cell_angle_gamma                 90.516047
_cell_volume                      1765.29097272

loop_
_atom_site_label
_atom_site_type_symbol
_atom_type_description
_atom_site_fract_x
_atom_site_fract_y
_atom_site_fract_z
_atom_type_partial_charge
C1    C     C_R   0.499762 0.262397 0.502255 0.569281
C2    C     C_R   0.500377 0.129384 0.511726 0.029773
C3    C     C_R   0.376304 0.063029 0.522640 -0.165647
C4    C     C_R   0.517554 0.499451 0.650917 0.552045
C5    C     C_R   0.377049 0.934137 0.522533 -0.126865
C6    C     C_R   0.502162 0.870730 0.511840 0.009179
C7    C     C_R   0.627776 0.937969 0.514343 -0.066990
C8    C     C_3   0.747607 0.933479 0.462804 -0.199636
C9    C     C_3   0.744196 0.073827 0.461335 0.487003
C10   C     C_R   0.065051 0.528450 0.433407 0.114254
C11   C     C_R   0.082304 0.455970 0.562422 0.019165
C12   C     C_R   0.657381 0.497389 0.780011 -0.097421
C13   C     C_R   0.933869 0.455140 0.562362 0.483613
C14   C     C_R   0.917919 0.525906 0.432863 0.089199
C15   C     C_3   0.904202 0.639705 0.383359 0.029856
C16   C     C_R   0.500715 0.737715 0.502176 0.551165
C17   C     C_3   0.063790 0.645252 0.386208 0.250501
C18   C     C_R   0.482515 0.500089 0.349226 0.549041
C19   C     C_R   0.526880 0.502242 0.736960 -0.053159
C20   C     C_R   0.404045 0.510644 0.776791 -0.174568
C21   C     C_R   0.411254 0.513616 0.858178 -0.144926
C22   C     C_R   0.542262 0.508098 0.901519 0.240915
C23   C     C_R   0.560637 0.446948 0.138786 -0.086322
C24   C     C_R   0.664737 0.499728 0.861732 0.392846
C25   C     C_3   0.772964 0.291661 0.219285 -0.283295
C26   C     C_3   0.984126 0.151506 0.450643 -0.251571
C27   C     C_3   0.813664 0.719140 0.255322 -0.301239
C28   C     C_3   0.106286 0.605199 0.111575 -0.287550
C29   C     C_R   0.569302 0.435010 0.220828 0.106007
C30   C     C_R   0.456023 0.519517 0.098907 0.194728
C31   C     C_R   0.472649 0.500432 0.263196 -0.008171
C32   C     C_R   0.367537 0.570755 0.223397 -0.143479
C33   C     C_R   0.356025 0.578690 0.141648 0.146237
C34   C     C_R   0.626305 0.065241 0.513860 0.071664
Cu1   Cu    Cu3+1 0.640670 0.499980 0.500000 1.071511
Cu2   Cu    Cu3+1 0.359330 0.500020 0.500000 0.982579
F1    F     F_    0.703372 0.122965 0.388229 -0.658929
F2    F     F_    0.874542 0.406534 0.625337 -0.633598
F3    F     F_    0.117200 0.744633 0.429313 -0.651254
F4    F     F_    0.791678 0.493506 0.902473 -0.622053
H1    H     H_    0.278778 0.885058 0.526990 0.200390
H2    H     H_    0.314122 0.518827 0.886833 0.164728
H3    H     H_    0.301870 0.514759 0.745174 0.158744
H4    H     H_    0.278060 0.109948 0.527454 0.130790
H5    H     H_    0.632231 0.305439 0.306840 0.319548
H6    H     H_    0.720209 0.222328 0.179525 0.158428
H7    H     H_    0.847013 0.242673 0.261556 0.171512
H8    H     H_    0.834839 0.358225 0.185623 0.134672
H9    H     H_    0.897091 0.101375 0.554814 0.233098
H10   H     H_    0.066595 0.207423 0.483000 0.124792
H11   H     H_    0.950448 0.203100 0.396237 0.190890
H12   H     H_    0.843429 0.894431 0.494070 0.120620
H13   H     H_    0.028439 0.060971 0.435591 0.154302
H14   H     H_    0.885099 0.540441 0.277679 0.249709
H15   H     H_    0.760213 0.689023 0.198801 0.161244
H16   H     H_    0.913765 0.766256 0.243441 0.147303
H17   H     H_    0.743914 0.784555 0.283061 0.164795
H18   H     H_    0.263233 0.679176 0.046907 0.280884
H19   H     H_    0.029370 0.669964 0.082287 0.168436
H20   H     H_    0.084127 0.597831 0.174317 0.127996
H21   H     H_    0.092389 0.513156 0.083730 0.172869
H22   H     H_    0.716506 0.892349 0.404835 0.144408
H23   H     H_    0.143790 0.421057 0.613235 0.137986
H24   H     H_    0.853708 0.715943 0.413035 0.168050
H25   H     H_    0.108672 0.635127 0.328704 0.100494
H26   H     H_    0.632337 0.396963 0.104997 0.156464
H27   H     H_    0.753669 0.491268 0.750682 0.210206
H28   H     H_    0.296461 0.623149 0.256213 0.137286
N1    N     N_2   0.554978 0.505703 0.984660 -0.194474
N2    N     N_2   0.443989 0.527868 0.015811 -0.263626
N3    N     N_R   0.147870 0.500930 0.499500 -0.255387
N4    N     N_R   0.851960 0.500890 0.499500 -0.231799
N5    N     N_2   0.670374 0.356123 0.261622 -0.482124
N6    N     N_2   0.867627 0.133526 0.499069 -0.452724
N7    N     N_2   0.840560 0.612777 0.305621 -0.514113
N8    N     N_2   0.247162 0.651288 0.103408 -0.506292
O1    O     O_R   0.618810 0.319640 0.500000 -0.432609
O2    O     O_R   0.381230 0.319680 0.499990 -0.534035
O3    O     O_R   0.631790 0.498830 0.613930 -0.437465
O4    O     O_R   0.394210 0.498870 0.613920 -0.527967
O5    O     O_R   0.618770 0.680320 0.500010 -0.524658
O6    O     O_R   0.381190 0.680360 0.500000 -0.440709
O7    O     O_R   0.605790 0.501130 0.386080 -0.460589
O8    O     O_R   0.368210 0.501170 0.386070 -0.515963

loop_
_geom_bond_atom_site_label_1
_geom_bond_atom_site_label_2
_ccdc_geom_bond_type
C15   N7    S    
C1    O1    A    
C19   C20   A    
Cu1   O5    S    
H18   N8    S    
C7    C8    S    
C23   C29   A    
C23   H26   S    
C4    O4    A    
C11   H23   S    
C26   H10   S    
C5    C6    A    
C27   H15   S    
C29   N5    S    
C10   C17   S    
H5    N5    S    
C1    C2    S    
C17   F3    S    
C24   F4    S    
C4    C19   S    
Cu1   Cu2   S    
Cu2   O6    S    
C8    C9    S    
C18   O8    A    
C15   H24   S    
C8    H12   S    
C22   N1    S    
C25   N5    S    
Cu2   N3    S    
C32   H28   S    
C28   H21   S    
C2    C34   A    
C21   C22   A    
C1    O2    A    
C27   N7    S    
C16   O6    A    
C30   N2    S    
C28   H20   S    
C12   H27   S    
C3    H4    S    
C23   C30   A    
C4    O3    A    
C27   H17   S    
Cu1   O7    S    
C27   H16   S    
Cu1   O1    S    
C21   H2    S    
C33   N8    S    
C31   C32   A    
C9    F1    S    
C18   O7    A    
C25   H8    S    
C13   F2    S    
Cu1   N4    S    
Cu2   O4    S    
C9    C34   S    
C7    C34   A    
C22   C24   A    
C9    N6    S    
C28   N8    S    
C26   H13   S    
C20   H3    S    
C28   H19   S    
C15   C17   S    
C5    H1    S    
C25   H7    S    
C30   C33   A    
H9    N6    S    
C14   N4    A    
C3    C5    A    
C6    C7    A    
C13   N4    A    
C12   C24   A    
C17   H25   S    
C32   C33   A    
C2    C3    A    
C29   C31   A    
Cu2   O2    S    
C26   H11   S    
C10   N3    A    
C11   C13   A    
Cu2   O8    S    
C12   C19   A    
Cu1   O3    S    
C16   O5    A    
C26   N6    S    
C11   N3    A    
N1    N2    D    
C6    C16   S    
H14   N7    S    
C20   C21   A    
C8    H22   S    
C14   C15   S    
C18   C31   S    
C25   H6    S    
C10   C14   A    
