data_mof_unit_68560.cif
_audit_creation_date              2012-12-10T19:24:07-0500
_audit_creation_method            fapswitch 2.2
_symmetry_space_group_name_H-M    P1
_symmetry_Int_Tables_number       1
_space_group_crystal_system       triclinic
_cell_length_a                    10.472321
_cell_length_b                    10.473043
_cell_length_c                    9.805917
_cell_angle_alpha                 89.43763
_cell_angle_beta                  89.539025
_cell_angle_gamma                 90.760514
_cell_volume                      1075.30173659

loop_
_atom_site_label
_atom_site_type_symbol
_atom_type_description
_atom_site_fract_x
_atom_site_fract_y
_atom_site_fract_z
_atom_type_partial_charge
C1    C     C_R   0.501389 0.257693 0.500615 0.890371
C2    C     C_R   0.498610 0.742307 0.499385 0.890379
C3    C     C_3   0.403164 0.956617 0.579420 -0.156821
C4    C     C_3   0.596834 0.043382 0.420585 -0.156758
C5    C     C_3   0.570705 0.410097 0.047950 0.247054
C6    C     C_3   0.429293 0.589901 0.952048 0.246979
C7    C     C_3   0.615274 0.516915 0.949411 -0.352876
C8    C     C_3   0.384725 0.483084 0.050589 -0.352904
C9    C     C_3   0.456684 0.394201 0.954226 0.523472
C10   C     C_3   0.543314 0.605797 0.045771 0.523473
C11   C     C_R   0.257959 0.498479 0.500600 0.972440
C12   C     C_R   0.742041 0.501521 0.499400 0.972442
C13   C     C_3   0.039633 0.503269 0.632095 -0.363578
C14   C     C_3   0.960368 0.496730 0.367906 -0.363569
C15   C     C_3   0.954910 0.397584 0.569443 0.208929
C16   C     C_3   0.045090 0.602416 0.430558 0.208941
C17   C     C_3   0.876770 0.501084 0.497995 -0.206448
C18   C     C_3   0.123231 0.498916 0.502007 -0.206451
C19   C     C_3   0.960541 0.605797 0.558618 0.462627
C20   C     C_3   0.039460 0.394203 0.441384 0.462621
C21   C     C_3   0.516685 0.038884 0.629047 -0.112806
C22   C     C_3   0.483313 0.961115 0.370958 -0.112772
C23   C     C_3   0.611511 0.957077 0.547762 -0.186122
C24   C     C_3   0.388487 0.042922 0.452243 -0.186122
C25   C     C_3   0.498168 0.877515 0.498270 0.021290
C26   C     C_3   0.501830 0.122484 0.501734 0.021291
H1    H     H_    0.075713 0.505618 0.738225 0.209813
H2    H     H_    0.924288 0.494382 0.261776 0.209813
H3    H     H_    0.701927 0.916660 0.586110 0.186822
H4    H     H_    0.298071 0.083340 0.413896 0.186823
H5    H     H_    0.532715 0.075324 0.733419 0.202385
H6    H     H_    0.467278 0.924669 0.266590 0.202377
H7    H     H_    0.323593 0.916942 0.642821 0.178778
H8    H     H_    0.676406 0.083056 0.357184 0.178761
H9    H     H_    0.711453 0.529470 0.902328 0.194434
H10   H     H_    0.288547 0.470542 0.097675 0.194434
N1    N     N_3   0.499910 0.500030 0.863290 -0.136280
N2    N     N_3   0.500090 0.499970 0.136710 -0.136278
O1    O     O_R   0.500010 0.313960 0.616610 -0.565981
O2    O     O_R   0.499990 0.686040 0.383390 -0.565993
O3    O     O_R   0.500060 0.313950 0.383350 -0.610272
O4    O     O_R   0.499940 0.686050 0.616650 -0.610299
O5    O     O_R   0.313930 0.499970 0.616610 -0.598754
O6    O     O_R   0.686070 0.500030 0.383390 -0.598756
O7    O     O_R   0.313980 0.499960 0.383350 -0.593152
O8    O     O_R   0.686020 0.500040 0.616650 -0.593155
Zn1   Zn    Zn3+2 0.499970 0.500010 0.655740 1.040055
Zn2   Zn    Zn3+2 0.500030 0.499990 0.344260 1.040076
Br1   Br    Br    0.883912 0.251777 0.668608 -0.542693
Br2   Br    Br    0.116092 0.748223 0.331398 -0.542648
O9    O     O_3   0.908598 0.717509 0.614534 -0.616963
C27   C     C_3   0.001660 0.779215 0.694689 0.096492
H11   H     H_    0.096523 0.784934 0.642334 0.178863
H12   H     H_    0.011496 0.727821 0.793781 0.178495
C28   C     C_3   0.959703 0.914678 0.723133 -0.748662
H13   H     H_    0.866180 0.913158 0.777232 0.243285
H14   H     H_    0.031534 0.963685 0.787668 0.233423
H15   H     H_    0.950664 0.968275 0.625492 0.278188
O10   O     O_3   0.091405 0.282492 0.385468 -0.616965
C29   C     C_3   0.998343 0.220777 0.305322 0.096468
H16   H     H_    0.988491 0.272172 0.206233 0.178494
H17   H     H_    0.903486 0.215047 0.357688 0.178864
C30   C     C_3   0.040311 0.085321 0.276870 -0.748669
H18   H     H_    0.049363 0.031723 0.374508 0.278189
H19   H     H_    0.968482 0.036307 0.212339 0.233435
H20   H     H_    0.133830 0.086853 0.222766 0.243292
Br3   Br    Br    0.679803 0.278418 0.119978 -0.572175
Br4   Br    Br    0.320177 0.721565 0.880021 -0.572204
O11   O     O_3   0.414809 0.277987 0.896782 -0.573530
C31   C     C_3   0.340369 0.208412 0.993226 0.065865
H21   H     H_    0.247659 0.256582 0.010637 0.156727
H22   H     H_    0.391104 0.197600 0.092097 0.170052
C32   C     C_3   0.311999 0.075711 0.938576 -0.759904
H23   H     H_    0.401904 0.021764 0.927691 0.260416
H24   H     H_    0.247711 0.022638 0.010323 0.233479
H25   H     H_    0.264777 0.082909 0.837823 0.263225
O12   O     O_3   0.585206 0.722018 0.103187 -0.573527
C33   C     C_3   0.659519 0.791628 0.006665 0.065804
H26   H     H_    0.608755 0.802295 0.907795 0.170073
H27   H     H_    0.752290 0.743572 0.989267 0.156754
C34   C     C_3   0.687702 0.924415 0.061185 -0.759788
H28   H     H_    0.735010 0.917381 0.161900 0.263199
H29   H     H_    0.751841 0.977541 0.989340 0.233517
H30   H     H_    0.597713 0.978214 0.072098 0.260390

loop_
_geom_bond_atom_site_label_1
_geom_bond_atom_site_label_2
_ccdc_geom_bond_type
C7    C10   S    
C21   C26   S    
C30   H19   S    
C11   C18   S    
C32   H23   S    
C5    Br3   S    
C34   H28   S    
O12   C33   S    
C21   H5    S    
C22   H6    S    
C13   C18   S    
C29   C30   S    
C23   H3    S    
C22   C24   S    
C16   Br2   S    
C33   H27   S    
C3    H7    S    
C29   H17   S    
C8    H10   S    
O2    Zn2   S    
C8    C9    S    
C22   C25   S    
C12   C17   S    
C11   O5    A    
C31   H21   S    
N1    Zn1   S    
N2    Zn2   S    
C27   C28   S    
C6    Br4   S    
C30   H20   S    
O10   C29   S    
C5    N2    S    
C32   H24   S    
C14   C17   S    
C3    C24   S    
C8    N2    S    
C31   C32   S    
C34   H29   S    
C10   O12   S    
C27   H12   S    
C21   C23   S    
C15   C20   S    
C4    H8    S    
C13   C19   S    
O9    C27   S    
C14   C20   S    
C3    C25   S    
C12   O8    A    
C5    C7    S    
C4    C23   S    
C33   H26   S    
C6    C8    S    
C29   H16   S    
C5    C9    S    
C19   O9    S    
C4    C22   S    
C28   H13   S    
C9    N1    S    
C7    N1    S    
C6    N1    S    
C20   O10   S    
C1    O3    A    
C28   H14   S    
C1    C26   S    
C32   H25   S    
C14   C16   S    
C11   O7    A    
C34   H30   S    
C27   H11   S    
O1    Zn1   S    
O7    Zn2   S    
C15   C17   S    
O8    Zn1   S    
C7    H9    S    
C24   C26   S    
C9    O11   S    
C6    C10   S    
C4    C26   S    
C10   N2    S    
C13   C15   S    
C12   O6    A    
C33   C34   S    
C2    O4    A    
C16   C19   S    
C17   C19   S    
O3    Zn2   S    
C2    C25   S    
C18   C20   S    
O4    Zn1   S    
C15   Br1   S    
O11   C31   S    
C24   H4    S    
C3    C21   S    
C1    O1    A    
C30   H18   S    
C2    O2    A    
C23   C25   S    
C16   C18   S    
C28   H15   S    
C13   H1    S    
C31   H22   S    
C14   H2    S    
O5    Zn1   S    
O6    Zn2   S    
