data_mof_unit_5891.cif
_audit_creation_date              2012-12-10T18:33:36-0500
_audit_creation_method            fapswitch 2.2
_symmetry_space_group_name_H-M    P1
_symmetry_Int_Tables_number       1
_space_group_crystal_system       triclinic
_cell_length_a                    10.513791
_cell_length_b                    15.051847
_cell_length_c                    15.486409
_cell_angle_alpha                 82.695847
_cell_angle_beta                  89.679882
_cell_angle_gamma                 104.053938
_cell_volume                      2356.41209178

loop_
_atom_site_label
_atom_site_type_symbol
_atom_type_description
_atom_site_fract_x
_atom_site_fract_y
_atom_site_fract_z
_atom_type_partial_charge
C1    C     C_R   0.484275 0.442287 0.661909 0.854727
C2    C     C_R   0.521199 0.557747 0.337992 0.857367
C3    C     C_R   0.542022 0.472349 0.810027 -0.269035
C4    C     C_R   0.537426 0.525846 0.188352 -0.258025
C5    C     C_R   0.555632 0.444655 0.898138 0.091121
C6    C     C_R   0.588386 0.549097 0.103045 0.091661
C7    C     C_R   0.513721 0.349257 0.930230 0.182494
C8    C     C_R   0.644723 0.643336 0.072416 0.178346
C9    C     C_R   0.599094 0.510369 0.956112 0.070326
C10   C     C_R   0.577258 0.481229 0.046376 0.068166
C11   C     C_R   0.543737 0.385380 0.076839 -0.235077
C12   C     C_R   0.660169 0.604356 0.927161 -0.230804
C13   C     C_R   0.514782 0.320407 0.019175 -0.244022
C14   C     C_R   0.684723 0.669429 0.985066 -0.242017
C15   C     C_R   0.678476 0.836702 0.646775 -0.287791
C16   C     C_R   0.315102 0.160012 0.358533 -0.288029
C17   C     C_R   0.648178 0.748959 0.622694 0.017042
C18   C     C_R   0.347080 0.248742 0.380034 0.012082
C19   C     C_R   0.525652 0.796670 0.505403 0.004262
C20   C     C_R   0.478415 0.205180 0.493921 -0.015196
C21   C     C_R   0.539926 0.884560 0.532241 0.013854
C22   C     C_R   0.458246 0.114823 0.471725 0.011004
C23   C     C_R   0.742252 0.500159 0.500641 0.851803
C24   C     C_R   0.257636 0.499642 0.499862 0.860356
C25   C     C_R   0.625612 0.904879 0.601039 0.101700
C26   C     C_R   0.368941 0.092667 0.404953 0.116207
C27   C     C_R   0.477961 0.953080 0.491623 -0.085682
C28   C     C_R   0.517954 0.045771 0.514406 -0.096808
C29   C     C_R   0.616131 0.065151 0.578373 0.467683
C30   C     C_R   0.376503 0.931739 0.430417 0.478214
C31   C     C_R   0.664870 0.993866 0.621047 -0.303930
C32   C     C_R   0.327052 0.002847 0.387357 -0.326748
C33   C     C_3   0.930259 0.417947 0.480968 -0.108166
C34   C     C_3   0.069355 0.581409 0.520488 -0.127470
C35   C     C_3   0.017918 0.431101 0.560225 -0.168471
C36   C     C_3   0.981863 0.568337 0.441137 -0.181102
C37   C     C_3   0.122158 0.499662 0.500172 0.015478
C38   C     C_3   0.877514 0.499801 0.501120 0.026831
C39   C     C_3   0.037260 0.486755 0.420953 -0.201622
C40   C     C_3   0.962319 0.512611 0.580441 -0.190517
C41   C     C_R   0.491710 0.408178 0.753804 -0.050759
C42   C     C_R   0.554263 0.591308 0.245953 -0.058397
C43   C     C_R   0.467227 0.284308 0.873168 -0.220491
C44   C     C_R   0.658542 0.710131 0.129566 -0.207086
C45   C     C_R   0.455703 0.313720 0.785216 -0.210950
C46   C     C_R   0.615154 0.683983 0.216520 -0.211067
H1    H     H_    0.039342 0.375773 0.608172 0.134801
H2    H     H_    0.962796 0.624308 0.392830 0.144434
H3    H     H_    0.530273 0.228410 0.548769 0.190589
H4    H     H_    0.482180 0.778163 0.446002 0.190314
H5    H     H_    0.307092 0.301883 0.344711 0.130618
H6    H     H_    0.685949 0.694825 0.658250 0.126337
H7    H     H_    0.742497 0.851170 0.700556 0.138597
H8    H     H_    0.248050 0.143934 0.306596 0.140064
H9    H     H_    0.869726 0.350987 0.465195 0.174403
H10   H     H_    0.129696 0.648306 0.536545 0.178059
H11   H     H_    0.072432 0.476294 0.356160 0.138114
H12   H     H_    0.926982 0.523009 0.645216 0.136902
H13   H     H_    0.486899 0.247605 0.044650 0.143361
H14   H     H_    0.730773 0.740884 0.960760 0.141110
H15   H     H_    0.481995 0.456425 0.210881 0.155961
H16   H     H_    0.564809 0.544632 0.784634 0.157848
H17   H     H_    0.630366 0.735707 0.260565 0.153318
H18   H     H_    0.417845 0.262933 0.742155 0.155840
H19   H     H_    0.436655 0.211176 0.896958 0.132406
H20   H     H_    0.703451 0.782214 0.107138 0.131937
H21   H     H_    0.541272 0.358838 0.145123 0.151698
H22   H     H_    0.692690 0.629067 0.860266 0.139107
H23   H     H_    0.742008 0.009291 0.666930 0.148465
H24   H     H_    0.249166 0.987428 0.342025 0.134955
N1    N     N_R   0.574200 0.731700 0.552740 -0.118773
N2    N     N_R   0.425800 0.268300 0.447260 -0.118194
O1    O     O_R   0.462600 0.383110 0.605620 -0.630042
O2    O     O_R   0.537400 0.616890 0.394380 -0.630377
O3    O     O_R   0.510210 0.531900 0.639510 -0.622165
O4    O     O_R   0.489790 0.468100 0.360490 -0.620799
O5    O     O_R   0.662240 0.425610 0.483080 -0.621514
O6    O     O_R   0.337760 0.574390 0.516920 -0.610181
O7    O     O_R   0.709860 0.574400 0.516970 -0.618073
O8    O     O_R   0.290140 0.425600 0.483030 -0.616302
Zn1   Zn    Zn3+2 0.468210 0.400660 0.477370 0.936162
Zn2   Zn    Zn3+2 0.531790 0.599340 0.522630 0.940130
O9    O     O_3   0.681380 0.154465 0.589830 -0.626216
C47   C     C_3   0.661786 0.170220 0.676823 0.057588
H25   H     H_    0.705244 0.125780 0.724719 0.143436
H26   H     H_    0.555270 0.157921 0.693731 0.125483
C48   C     C_3   0.729003 0.269865 0.686395 -0.823151
H27   H     H_    0.689042 0.318198 0.640570 0.262927
H28   H     H_    0.713478 0.283294 0.754015 0.219147
H29   H     H_    0.835861 0.282312 0.672591 0.250998
O10   O     O_3   0.313531 0.840314 0.422557 -0.632072
C49   C     C_3   0.284188 0.826533 0.335064 0.058054
H30   H     H_    0.355784 0.874812 0.286677 0.132489
H31   H     H_    0.183676 0.835106 0.322077 0.159551
C50   C     C_3   0.286801 0.728775 0.321004 -0.847831
H32   H     H_    0.229290 0.678122 0.373623 0.271319
H33   H     H_    0.244282 0.713458 0.257491 0.210146
H34   H     H_    0.389225 0.721791 0.320078 0.247562

loop_
_geom_bond_atom_site_label_1
_geom_bond_atom_site_label_2
_ccdc_geom_bond_type
C25   C31   A    
C38   C40   S    
C48   H27   S    
C33   H9    S    
C34   C37   S    
C44   H20   S    
C50   H32   S    
C47   C48   S    
C35   H1    S    
C50   H34   S    
C34   H10   S    
C12   H22   S    
C33   C39   S    
C34   C40   S    
C15   H7    S    
C28   C29   A    
C35   C37   S    
C47   H26   S    
C29   O9    S    
C15   C25   A    
C39   H11   S    
C42   C46   A    
C19   N1    A    
C24   O8    A    
C11   H21   S    
C7    C43   A    
C9    C10   A    
N2    Zn1   S    
C2    O2    A    
N1    Zn2   S    
C21   C27   A    
C22   C28   A    
C27   C30   A    
C18   N2    A    
O2    Zn2   S    
C17   H6    S    
O1    Zn1   S    
C44   C46   A    
C18   H5    S    
C16   C26   A    
C40   H12   S    
C1    O3    A    
C47   H25   S    
C4    C6    A    
O10   C49   S    
C5    C7    A    
C26   C32   A    
O8    Zn1   S    
C6    C8    A    
C4    H15   S    
C49   C50   S    
C5    C9    A    
C20   H3    S    
O6    Zn2   S    
C31   H23   S    
O9    C47   S    
O5    Zn1   S    
C43   H19   S    
C49   H31   S    
C24   C37   S    
C23   O5    A    
C43   C45   A    
C24   O6    A    
C20   C22   A    
C17   N1    A    
C48   H28   S    
C2    O4    A    
C3    H16   S    
C1    C41   S    
C15   C17   A    
C21   C25   A    
C3    C41   A    
C8    C14   A    
C19   C21   A    
C29   C31   A    
C36   C39   S    
C8    C44   A    
C12   C14   A    
C30   O10   S    
C3    C5    A    
O4    Zn1   S    
C6    C10   A    
O7    Zn2   S    
C32   H24   S    
C50   H33   S    
O3    Zn2   S    
C13   H13   S    
C23   C38   S    
C14   H14   S    
C45   H18   S    
C33   C38   S    
C46   H17   S    
C1    O1    A    
C36   C38   S    
C35   C40   S    
C37   C39   S    
C30   C32   A    
C11   C13   A    
C19   H4    S    
C4    C42   A    
C2    C42   S    
C49   H30   S    
C33   C35   S    
C36   H2    S    
C34   C36   S    
C9    C12   A    
C16   H8    S    
C10   C11   A    
C7    C13   A    
C16   C18   A    
C22   C26   A    
C48   H29   S    
C27   C28   A    
C41   C45   A    
C20   N2    A    
C23   O7    A    
