data_mof_unit_23623.cif
_audit_creation_date              2013-03-05T16:32:42-0500
_audit_creation_method            fapswitch 2.2
_symmetry_space_group_name_H-M    P1
_symmetry_Int_Tables_number       1
_space_group_crystal_system       triclinic
_cell_length_a                    9.544986
_cell_length_b                    10.818147
_cell_length_c                    17.190747
_cell_angle_alpha                 90.363529
_cell_angle_beta                  84.933697
_cell_angle_gamma                 90.421577
_cell_volume                      1768.08863346

loop_
_atom_site_label
_atom_site_type_symbol
_atom_site_description
_atom_site_fract_x
_atom_site_fract_y
_atom_site_fract_z
_atom_type_partial_charge
O1    O     O_R   0.381190 0.680360 0.500000 -0.582101
O2    O     O_R   0.618770 0.680320 0.499990 -0.584860
C1    C     C_R   0.499786 0.737445 0.504279 0.814785
O3    O     O_R   0.367430 0.500040 0.613600 -0.607967
O4    O     O_R   0.605020 0.500000 0.613590 -0.527763
C2    C     C_R   0.480306 0.500371 0.650118 0.868906
Cu1   Cu    Cu3+1 0.359330 0.500020 0.500000 0.974896
Cu2   Cu    Cu3+1 0.640670 0.499980 0.500000 1.042333
O5    O     O_R   0.381230 0.319680 0.500010 -0.585102
O6    O     O_R   0.618810 0.319640 0.500000 -0.526365
O7    O     O_R   0.394980 0.500000 0.386410 -0.585990
O8    O     O_R   0.632570 0.499960 0.386400 -0.567254
C3    C     C_R   0.498949 0.262385 0.503912 0.920383
C4    C     C_R   0.519526 0.497923 0.350158 0.886344
C5    C     C_R   0.465247 0.495265 0.735178 -0.083551
C6    C     C_R   0.551766 0.567422 0.779920 0.322449
C7    C     C_R   0.532766 0.560098 0.862503 0.360390
C8    C     C_R   0.439646 0.470433 0.897358 0.037101
C9    C     C_R   0.354256 0.400265 0.851791 -0.104937
C10   C     C_R   0.365002 0.414385 0.771401 -0.243267
C11   C     C_R   0.493976 0.555921 0.138622 -0.095380
C12   C     C_R   0.487675 0.573492 0.218747 -0.264025
C13   C     C_R   0.583765 0.367799 0.234121 0.362250
C14   C     C_R   0.590348 0.349588 0.152276 0.284559
C15   C     C_R   0.542896 0.444069 0.105018 -0.043545
C16   C     C_2   0.428934 0.450112 0.982432 0.200330
C17   C     C_2   0.546681 0.429198 0.019503 0.289066
C18   C     C_R   0.532903 0.480511 0.266122 -0.105881
H1    H     H_    0.447604 0.659693 0.243956 0.166479
H2    H     H_    0.280342 0.333286 0.878560 0.210055
H3    H     H_    0.459860 0.629626 0.102458 0.195186
H4    H     H_    0.298732 0.358250 0.736999 0.191701
C19   C     C_R   0.379946 0.934969 0.497320 -0.039822
C20   C     C_R   0.496915 0.870196 0.516704 -0.233143
C21   C     C_R   0.604625 0.936246 0.551563 0.342265
C22   C     C_R   0.605275 0.066654 0.549952 0.316001
C23   C     C_R   0.495015 0.129598 0.516684 -0.325111
C24   C     C_R   0.376807 0.061611 0.499238 -0.044852
C25   C     C_3   0.287262 0.063934 0.431254 0.777082
C26   C     C_3   0.294497 0.923217 0.428933 -0.388484
H5    H     H_    0.191862 0.876494 0.444793 0.218922
H6    H     H_    0.355846 0.884720 0.376394 0.153389
C27   C     C_R   0.932572 0.416353 0.455553 0.215027
N1    N     N_R   0.852130 0.499070 0.499500 -0.216977
C28   C     C_R   0.918375 0.574178 0.549404 -0.003251
H7    H     H_    0.856971 0.636010 0.588279 0.180194
C29   C     C_R   0.067245 0.573975 0.549539 -0.034885
H8    H     H_    0.117473 0.635688 0.588485 0.156364
N2    N     N_R   0.148040 0.499110 0.499500 -0.188523
C30   C     C_R   0.080111 0.417915 0.454649 0.146720
C31   C     C_3   0.100273 0.405429 0.367865 -0.487468
C32   C     C_3   0.940879 0.402301 0.368552 0.210701
H9    H     H_    0.147328 0.489518 0.339034 0.205275
H10   H     H_    0.152428 0.317426 0.348906 0.265950
H11   H     H_    0.897331 0.481825 0.338174 0.171064
O9    O     O_3   0.652086 0.643414 0.741730 -0.743693
H12   H     H_    0.730865 0.654577 0.774983 0.355128
N3    N     N_R   0.642670 0.236029 0.117566 0.125315
O10   O     O_R   0.566521 0.171758 0.072641 -0.288242
O11   O     O_R   0.769131 0.199401 0.128098 -0.254848
O12   O     O_3   0.708728 0.877773 0.587988 -0.654942
H13   H     H_    0.668737 0.800606 0.611619 0.348733
N4    N     N_R   0.715277 0.133343 0.584272 0.165272
O13   O     O_R   0.683932 0.216197 0.638094 -0.333857
O14   O     O_R   0.846190 0.102806 0.567785 -0.277014
O15   O     O_3   0.149801 0.104968 0.451556 -0.678159
H14   H     H_    0.158108 0.186116 0.477699 0.337311
O16   O     O_3   0.349857 0.122561 0.363884 -0.699625
H15   H     H_    0.446428 0.089555 0.352942 0.315987
O17   O     O_3   0.888263 0.287763 0.344347 -0.612244
H16   H     H_    0.923079 0.221450 0.377278 0.367643
O18   O     O_3   0.618672 0.276590 0.284872 -0.677808
H17   H     H_    0.630466 0.196726 0.256879 0.367047
N5    N     N_R   0.679603 0.400379 0.976701 0.166063
O19   O     O_R   0.796788 0.432870 0.004709 -0.239559
O20   O     O_R   0.684524 0.328923 0.915321 -0.292173
N6    N     N_R   0.291502 0.456063 0.024779 0.112796
O21   O     O_R   0.193133 0.521905 0.997877 -0.279558
O22   O     O_R   0.258977 0.384230 0.084216 -0.294696
O23   O     O_3   0.600417 0.639448 0.910438 -0.707058
H18   H     H_    0.622606 0.717659 0.882246 0.356523

loop_
_geom_bond_atom_site_label_1
_geom_bond_atom_site_label_2
_geom_bond_distance
_ccdc_geom_bond_type
N4    O14   1.301235 A    
C12   H1    1.083774 S    
C25   O16   1.407867 S    
C21   C22   1.411179 A    
C8    C16   1.474783 S    
Cu1   Cu2   2.685390 S    
C29   N2    1.368873 A    
N6    O21   1.301358 A    
Cu1   O7    1.952295 S    
C11   H3    1.083583 S    
C16   C17   1.361066 D    
N5    O20   1.301756 A    
C22   C23   1.421320 A    
C8    C9    1.396502 A    
O4    C2    1.295907 A    
O23   H18   0.989974 S    
O7    C4    1.292850 A    
C27   C32   1.497525 S    
N3    O11   1.301293 A    
C5    C6    1.406417 A    
O9    H12   0.990201 S    
C20   C21   1.420989 A    
O5    C3    1.294336 A    
C2    C5    1.457962 S    
C9    C10   1.386044 A    
C6    C7    1.417856 A    
C13   C14   1.415413 A    
O17   H16   0.993712 S    
C22   N4    1.436621 S    
C3    C23   1.454276 S    
C32   H11   1.111275 S    
C28   C29   1.421195 A    
O15   H14   0.989534 S    
C12   C18   1.392950 A    
C11   C12   1.385359 A    
O3    Cu1   1.961206 S    
C7    C8    1.410879 A    
N6    O22   1.301834 A    
C5    C10   1.399365 A    
C19   C26   1.493127 S    
N5    O19   1.301405 A    
C31   C32   1.520546 S    
C16   N6    1.444600 S    
C14   C15   1.411443 A    
Cu1   N2    2.017488 S    
O3    C2    1.293944 A    
C25   C26   1.524484 S    
O16   H15   0.992923 S    
C1    C20   1.450675 S    
C30   C31   1.492687 S    
N3    O10   1.301170 A    
C28   H7    1.080965 S    
C7    O23   1.381933 S    
O1    C1    1.293079 A    
C27   N1    1.363866 A    
C6    O9    1.381311 S    
C23   C24   1.395948 A    
C29   H8    1.081710 S    
Cu2   O8    1.961209 S    
C19   C20   1.388785 A    
C21   O12   1.379770 S    
C13   C18   1.406455 A    
Cu2   O6    1.960543 S    
C26   H5    1.112122 S    
O8    C4    1.292708 A    
C25   O15   1.402174 S    
C17   N5    1.444414 S    
N1    C28   1.369441 A    
C10   H4    1.083743 S    
Cu1   O5    1.963644 S    
C11   C15   1.402761 A    
O1    Cu1   1.960544 S    
C13   O18   1.383069 S    
O2    Cu2   1.963643 S    
Cu2   N1    2.017738 S    
O18   H17   0.988587 S    
O6    C3    1.293672 A    
O4    Cu2   1.952295 S    
C27   C30   1.406950 A    
C15   C17   1.475127 S    
C19   C24   1.370712 A    
C31   H10   1.111204 S    
C4    C18   1.450220 S    
O2    C1    1.293105 A    
C24   C25   1.508011 S    
C26   H6    1.112420 S    
O12   H13   0.989873 S    
C32   O17   1.407800 S    
N4    O13   1.301355 A    
C14   N3    1.435876 S    
N2    C30   1.362992 A    
C31   H9    1.111443 S    
C9    H2    1.083475 S    
