data_mof_unit_20058.cif
_audit_creation_date              2012-12-10T17:46:33-0500
_audit_creation_method            fapswitch 2.2
_symmetry_space_group_name_H-M    P1
_symmetry_Int_Tables_number       1
_space_group_crystal_system       triclinic
_cell_length_a                    20.769039
_cell_length_b                    20.974402
_cell_length_c                    14.942208
_cell_angle_alpha                 89.894481
_cell_angle_beta                  126.626019
_cell_angle_gamma                 90.226239
_cell_volume                      5223.81239026

loop_
_atom_site_label
_atom_site_type_symbol
_atom_type_description
_atom_site_fract_x
_atom_site_fract_y
_atom_site_fract_z
_atom_type_partial_charge
C1    C     C_R   0.605641 0.914864 0.633314 0.838943
C2    C     C_R   0.396121 0.086782 0.368878 0.828964
C3    C     C_R   0.394810 0.914422 0.367238 0.838669
C4    C     C_R   0.602591 0.087892 0.629494 0.829976
C5    C     C_R   0.103195 0.412667 0.630325 0.827316
C6    C     C_R   0.894139 0.585295 0.366724 0.838861
C7    C     C_R   0.896283 0.413053 0.369117 0.827619
C8    C     C_R   0.105666 0.585483 0.633018 0.840233
C9    C     C_R   0.326548 0.784611 0.920019 0.413380
C10   C     C_R   0.682921 0.209860 0.085228 0.360317
C11   C     C_R   0.668907 0.781031 0.075152 0.411241
C12   C     C_R   0.315090 0.207907 0.910469 0.360185
C13   C     C_R   0.817412 0.291479 0.910123 0.401569
C14   C     C_R   0.175358 0.715792 0.076660 0.355058
C15   C     C_R   0.180076 0.287903 0.084390 0.386093
C16   C     C_R   0.825127 0.717513 0.924396 0.358568
C17   C     C_R   0.325265 0.002180 0.675784 0.386152
C18   C     C_R   0.673698 0.005106 0.322529 0.380103
C19   C     C_R   0.825381 0.491747 0.675770 0.388392
C20   C     C_R   0.172773 0.484063 0.322137 0.390462
C21   C     C_R   0.352452 0.001778 0.609792 0.358181
C22   C     C_R   0.647031 0.005155 0.389265 0.362410
C23   C     C_R   0.852954 0.492004 0.610021 0.356155
C24   C     C_R   0.146368 0.489713 0.389082 0.355162
C25   C     C_R   0.487814 0.001056 0.771558 0.553556
C26   C     C_R   0.511736 0.999967 0.228610 0.546176
C27   C     C_R   0.986665 0.507315 0.771413 0.569967
C28   C     C_R   0.013320 0.507182 0.228711 0.545620
C29   C     C_R   0.463814 0.997534 0.845579 -0.163386
C30   C     C_R   0.534869 0.997450 0.153574 -0.156116
C31   C     C_R   0.962891 0.502264 0.845112 -0.168410
C32   C     C_R   0.035712 0.501092 0.153704 -0.146319
C33   C     C_R   0.380291 0.999096 0.791759 -0.056520
C34   C     C_R   0.618376 0.999165 0.206770 -0.056312
C35   C     C_R   0.879752 0.498976 0.791310 -0.065246
C36   C     C_R   0.118373 0.491919 0.206562 -0.060938
C37   C     C_R   0.516038 0.994048 0.968111 0.013880
C38   C     C_R   0.482007 0.994873 0.030788 0.014627
C39   C     C_R   0.015793 0.500934 0.967709 0.015642
C40   C     C_R   0.982169 0.503661 0.030758 0.013743
C41   C     C_R   0.397010 0.992297 0.966613 0.294438
C42   C     C_R   0.600504 0.988143 0.031415 0.307827
C43   C     C_R   0.896604 0.506013 0.966212 0.302223
C44   C     C_R   0.100402 0.493532 0.030458 0.290919
C45   C     C_R   0.349656 0.996561 0.852473 -0.153751
C46   C     C_R   0.648647 0.993721 0.145666 -0.154359
C47   C     C_R   0.849151 0.503363 0.851876 -0.152750
C48   C     C_R   0.148401 0.490387 0.144957 -0.169801
C49   C     C_R   0.660238 0.141702 0.697043 -0.127223
C50   C     C_R   0.332139 0.864674 0.293277 -0.140585
C51   C     C_R   0.336054 0.138682 0.298597 -0.131427
C52   C     C_R   0.668852 0.866083 0.708545 -0.139383
C53   C     C_R   0.169702 0.634514 0.707555 -0.134893
C54   C     C_R   0.836280 0.361098 0.298398 -0.132553
C55   C     C_R   0.829577 0.633772 0.291679 -0.133624
C56   C     C_R   0.161368 0.359512 0.699108 -0.133203
C57   C     C_R   0.750203 0.231624 0.732876 0.483036
C58   C     C_R   0.229049 0.783601 0.241904 0.474337
C59   C     C_R   0.244514 0.227177 0.259679 0.482445
C60   C     C_R   0.776553 0.789149 0.765215 0.476683
C61   C     C_R   0.278708 0.710892 0.763670 0.478822
C62   C     C_R   0.739686 0.275245 0.254174 0.482927
C63   C     C_R   0.720363 0.709543 0.236044 0.475694
C64   C     C_R   0.252909 0.270964 0.737552 0.475983
C65   C     C_R   0.697833 0.181149 0.661607 0.035802
C66   C     C_R   0.280450 0.834003 0.313936 0.042097
C67   C     C_R   0.293639 0.175288 0.329170 0.044462
C68   C     C_R   0.724050 0.838558 0.691908 0.044894
C69   C     C_R   0.224099 0.662477 0.689126 0.040372
C70   C     C_R   0.792054 0.325154 0.326981 0.034364
C71   C     C_R   0.775367 0.661431 0.310734 0.044289
C72   C     C_R   0.203250 0.322615 0.667865 0.038316
C73   C     C_R   0.676868 0.154335 0.801180 -0.156837
C74   C     C_R   0.324732 0.847786 0.196533 -0.162711
C75   C     C_R   0.322135 0.152393 0.196381 -0.162287
C76   C     C_R   0.674056 0.847442 0.802984 -0.165503
C77   C     C_R   0.177742 0.652514 0.804133 -0.161190
C78   C     C_R   0.823557 0.347585 0.196888 -0.162555
C79   C     C_R   0.820595 0.651675 0.194270 -0.160419
C80   C     C_R   0.173789 0.344704 0.800049 -0.161494
C81   C     C_R   0.719188 0.209002 0.865469 -0.017224
C82   C     C_R   0.279801 0.794618 0.129530 -0.026099
C83   C     C_R   0.279115 0.206396 0.130899 -0.016199
C84   C     C_R   0.719395 0.794625 0.870215 -0.026878
C85   C     C_R   0.223880 0.705374 0.870926 -0.026212
C86   C     C_R   0.780590 0.293513 0.130826 -0.024236
C87   C     C_R   0.774029 0.704167 0.127259 -0.024136
C88   C     C_R   0.216552 0.290341 0.864792 -0.022523
C89   C     C_R   0.761533 0.244736 0.835271 -0.056482
C90   C     C_R   0.229486 0.763451 0.151333 -0.031199
C91   C     C_R   0.235886 0.241532 0.159715 -0.052508
C92   C     C_R   0.772202 0.765837 0.851008 -0.029549
C93   C     C_R   0.274947 0.734768 0.849677 -0.049398
C94   C     C_R   0.735389 0.258725 0.158177 -0.035901
C95   C     C_R   0.722594 0.732895 0.148171 -0.052854
C96   C     C_R   0.260719 0.255681 0.836491 -0.035229
C97   C     C_R   0.722963 0.227214 0.961540 -0.045099
C98   C     C_R   0.280839 0.773422 0.038446 -0.055639
C99   C     C_R   0.275666 0.224583 0.034875 -0.042101
C100  C     C_R   0.716845 0.771728 0.959206 -0.054879
C101  C     C_R   0.222906 0.727765 0.961173 -0.040236
C102  C     C_R   0.778294 0.275154 0.035749 -0.059055
C103  C     C_R   0.775295 0.726891 0.037285 -0.037660
C104  C     C_R   0.219454 0.271493 0.959766 -0.060216
C105  C     C_R   0.336407 0.797465 0.020481 0.289742
C106  C     C_R   0.669973 0.200350 0.982010 0.283961
C107  C     C_R   0.659479 0.793601 0.974711 0.291377
C108  C     C_R   0.328818 0.198524 0.014473 0.281788
C109  C     C_R   0.829346 0.303014 0.012306 0.284409
C110  C     C_R   0.164392 0.706325 0.974722 0.275527
C111  C     C_R   0.167005 0.297856 0.981079 0.296874
C112  C     C_R   0.834916 0.706816 0.025104 0.267979
Cu1   Cu    Cu3+1 0.526640 1.000000 0.436960 0.995517
Cu2   Cu    Cu3+1 0.473360 0.000000 0.563040 0.997287
Cu3   Cu    Cu3+1 0.026640 0.500000 0.436960 0.995179
Cu4   Cu    Cu3+1 0.973360 0.500000 0.563040 1.001146
H1    H     H_    0.351707 0.879870 0.171854 0.235833
H2    H     H_    0.658948 0.118576 0.834017 0.202568
H3    H     H_    0.644758 0.877808 0.826080 0.235729
H4    H     H_    0.341804 0.117431 0.165571 0.204808
H5    H     H_    0.844799 0.382911 0.168142 0.221120
H6    H     H_    0.149850 0.622020 0.829207 0.225651
H7    H     H_    0.152294 0.378825 0.830084 0.226640
H8    H     H_    0.847645 0.621271 0.168209 0.224136
H9    H     H_    0.285623 0.994862 0.810752 0.217239
H10   H     H_    0.712539 0.989991 0.187406 0.211195
H11   H     H_    0.785030 0.503292 0.810324 0.222878
H12   H     H_    0.211786 0.483233 0.185487 0.219058
N1    N     N_R   0.433280 1.000000 0.657760 -0.267985
N2    N     N_R   0.566720 0.000000 0.342240 -0.269815
N3    N     N_R   0.933280 0.500000 0.657760 -0.268975
N4    N     N_R   0.066720 0.500000 0.342240 -0.274845
O1    O     O_R   0.600040 0.935040 0.546740 -0.616830
O2    O     O_R   0.399960 0.064960 0.453260 -0.610468
O3    O     O_R   0.399960 0.935040 0.453260 -0.617355
O4    O     O_R   0.600040 0.064960 0.546740 -0.603570
O5    O     O_R   0.100040 0.435040 0.546740 -0.604083
O6    O     O_R   0.899960 0.564960 0.453260 -0.618994
O7    O     O_R   0.899960 0.435040 0.453260 -0.606008
O8    O     O_R   0.100040 0.564960 0.546740 -0.620296
O9    O     O_R   0.555010 0.935070 0.653220 -0.523864
O10   O     O_R   0.444990 0.064930 0.346780 -0.542385
O11   O     O_R   0.444990 0.935070 0.346780 -0.521505
O12   O     O_R   0.555010 0.064930 0.653220 -0.533900
O13   O     O_R   0.055010 0.435070 0.653220 -0.535508
O14   O     O_R   0.944990 0.564930 0.346780 -0.528175
O15   O     O_R   0.944990 0.435070 0.346780 -0.536455
O16   O     O_R   0.055010 0.564930 0.653220 -0.516465
O17   O     O_3   0.369009 0.818153 0.890532 -0.637992
H13   H     H_    0.403547 0.851385 0.945369 0.338805
O18   O     O_3   0.637675 0.176425 0.109782 -0.637526
H14   H     H_    0.632567 0.131274 0.085901 0.298197
O19   O     O_3   0.624779 0.813642 0.102572 -0.632480
H15   H     H_    0.582854 0.841089 0.040172 0.344479
O20   O     O_3   0.360550 0.175486 0.885618 -0.639468
H16   H     H_    0.369829 0.131191 0.913974 0.300014
O21   O     O_3   0.866989 0.320126 0.888326 -0.612035
H17   H     H_    0.888018 0.361654 0.928718 0.334916
O22   O     O_3   0.128617 0.682806 0.099114 -0.652729
H18   H     H_    0.116658 0.639354 0.065664 0.299399
O23   O     O_3   0.130392 0.316341 0.105268 -0.615815
H19   H     H_    0.118247 0.360644 0.075690 0.332044
O24   O     O_3   0.871312 0.684727 0.900947 -0.652905
H20   H     H_    0.888678 0.643035 0.940305 0.300355
O25   O     O_3   0.356383 0.977308 0.009537 -0.722196
H21   H     H_    0.315795 0.011376 0.984924 0.324939
O26   O     O_3   0.638557 0.968446 0.986740 -0.725811
H22   H     H_    0.684387 0.998193 0.014561 0.326014
O27   O     O_3   0.853932 0.503301 0.009166 -0.700269
H23   H     H_    0.824655 0.544990 0.989194 0.325615
O28   O     O_3   0.138902 0.479554 0.983653 -0.722958
H24   H     H_    0.181703 0.512965 0.011702 0.329376
C113  C     C_3   0.272432 0.853936 0.405180 -0.786219
H25   H     H_    0.315990 0.886532 0.469994 0.278708
H26   H     H_    0.212842 0.876834 0.365343 0.232344
H27   H     H_    0.277756 0.811422 0.453666 0.228483
C114  C     C_3   0.688725 0.170954 0.553311 -0.762060
H28   H     H_    0.645097 0.136385 0.492617 0.283455
H29   H     H_    0.667559 0.215752 0.503800 0.204130
H30   H     H_    0.748111 0.156816 0.574552 0.248240
C115  C     C_3   0.735120 0.861546 0.604914 -0.803840
H31   H     H_    0.691294 0.893339 0.539275 0.272128
H32   H     H_    0.793958 0.886563 0.648278 0.232725
H33   H     H_    0.733155 0.820274 0.557009 0.228323
C116  C     C_3   0.293528 0.160519 0.429243 -0.779987
H34   H     H_    0.331543 0.122973 0.487162 0.288755
H35   H     H_    0.313103 0.203410 0.483304 0.217961
H36   H     H_    0.231417 0.146529 0.397694 0.233228
C117  C     C_3   0.793688 0.338834 0.428645 -0.763504
H37   H     H_    0.838859 0.371093 0.492817 0.290122
H38   H     H_    0.734051 0.358150 0.399478 0.244040
H39   H     H_    0.807060 0.294196 0.477076 0.207500
C118  C     C_3   0.232075 0.640914 0.598701 -0.798444
H40   H     H_    0.186216 0.610485 0.531782 0.272548
H41   H     H_    0.230165 0.683091 0.552225 0.224096
H42   H     H_    0.290097 0.615369 0.638880 0.239742
C119  C     C_3   0.203375 0.337046 0.567845 -0.758728
H43   H     H_    0.168380 0.376668 0.513369 0.293202
H44   H     H_    0.266256 0.346934 0.598313 0.246803
H45   H     H_    0.178648 0.295606 0.509942 0.202498
C120  C     C_3   0.767985 0.640028 0.402121 -0.797426
H46   H     H_    0.812501 0.608384 0.467552 0.272632
H47   H     H_    0.772070 0.682289 0.450282 0.224594
H48   H     H_    0.709171 0.615345 0.362451 0.235991
O29   O     O_3   0.339437 0.734559 0.758940 -0.643702
H49   H     H_    0.341704 0.713796 0.701739 0.335900
O30   O     O_3   0.690813 0.241607 0.273277 -0.646180
H50   H     H_    0.694842 0.256481 0.339528 0.325534
O31   O     O_3   0.661145 0.734040 0.243619 -0.641871
H51   H     H_    0.659241 0.712845 0.301427 0.334204
O32   O     O_3   0.298306 0.235877 0.714202 -0.645417
H52   H     H_    0.276658 0.238207 0.634325 0.322759
O33   O     O_3   0.791218 0.270175 0.705191 -0.645442
H53   H     H_    0.776976 0.261036 0.630135 0.324792
O34   O     O_3   0.177355 0.752343 0.258006 -0.653830
H54   H     H_    0.165633 0.777898 0.302304 0.332167
O35   O     O_3   0.205146 0.266646 0.288022 -0.649395
H55   H     H_    0.203825 0.249110 0.348638 0.326880
O36   O     O_3   0.834708 0.763311 0.757755 -0.651955
H56   H     H_    0.842675 0.787461 0.708314 0.333905
O37   O     O_3   0.407895 0.823454 0.107944 -0.700736
H57   H     H_    0.410334 0.867475 0.086393 0.352711
O38   O     O_3   0.598315 0.174882 0.892478 -0.720827
H58   H     H_    0.572178 0.147830 0.919143 0.321611
O39   O     O_3   0.587519 0.817670 0.885346 -0.704067
H59   H     H_    0.582990 0.861438 0.905316 0.354734
O40   O     O_3   0.400415 0.173082 0.103648 -0.737621
H60   H     H_    0.428355 0.149493 0.078838 0.330920
O41   O     O_3   0.899024 0.333393 0.095469 -0.694819
H61   H     H_    0.894035 0.378672 0.071239 0.337254
O42   O     O_3   0.091249 0.685531 0.881414 -0.737319
H62   H     H_    0.054747 0.671421 0.901719 0.339159
O43   O     O_3   0.094399 0.322191 0.893428 -0.686687
H63   H     H_    0.087591 0.364782 0.916090 0.352281
O44   O     O_3   0.907905 0.686685 0.119029 -0.750212
H64   H     H_    0.944990 0.674797 0.100875 0.342649
O45   O     O_3   0.435806 0.011231 0.192310 -0.645495
H65   H     H_    0.426542 0.055640 0.165290 0.318388
O46   O     O_3   0.564249 0.013112 0.809161 -0.648695
H66   H     H_    0.575601 0.055902 0.843223 0.310887
O47   O     O_3   0.942059 0.531838 0.192798 -0.645699
H67   H     H_    0.949505 0.578183 0.185151 0.321721
O48   O     O_3   0.059823 0.529929 0.808863 -0.652170
H68   H     H_    0.064204 0.571075 0.845145 0.311096
O49   O     O_3   0.704503 0.014546 0.501543 -0.762227
H69   H     H_    0.683083 0.000913 0.541755 0.380775
O50   O     O_3   0.294098 0.005701 0.496542 -0.776051
H70   H     H_    0.318018 0.999309 0.457415 0.385163
O51   O     O_3   0.204607 0.486434 0.502252 -0.770976
H71   H     H_    0.182596 0.501601 0.540880 0.382400
O52   O     O_3   0.795112 0.486147 0.496900 -0.771595
H72   H     H_    0.817755 0.499482 0.457877 0.382928
O53   O     O_3   0.244091 0.005048 0.629143 -0.721576
H73   H     H_    0.210858 0.004776 0.546718 0.381339
O54   O     O_3   0.754519 0.011173 0.368137 -0.717985
H74   H     H_    0.788308 0.008206 0.450606 0.378735
O55   O     O_3   0.744498 0.484574 0.629565 -0.716277
H75   H     H_    0.711643 0.478544 0.547531 0.379807
O56   O     O_3   0.252528 0.471372 0.367422 -0.712218
H76   H     H_    0.284094 0.462024 0.448535 0.380336

loop_
_geom_bond_atom_site_label_1
_geom_bond_atom_site_label_2
_ccdc_geom_bond_type
O28   H24   S    
C88   C96   A    
C10   C94   A    
O25   H21   S    
Cu3   O15   S    
C119  H45   S    
C27   N3    A    
O27   H23   S    
C5    C56   S    
C53   C77   A    
O38   H58   S    
C6    C55   S    
C25   N1    A    
C76   C84   A    
C79   C87   A    
O23   H19   S    
C43   O27   S    
O52   H72   S    
C21   O50   S    
C113  H25   S    
C99   C108  A    
Cu3   O14   S    
C9    O17   S    
O51   H71   S    
O21   H17   S    
C98   C105  A    
C57   C89   A    
C32   C36   A    
C24   O51   S    
C37   C38   A    
C51   C75   A    
O55   H75   S    
C50   C74   A    
Cu4   O13   S    
C6    O14   A    
C61   C93   A    
C116  H35   S    
C25   O46   S    
C9    C105  A    
O48   H68   S    
C63   C95   A    
O54   H74   S    
C111  O43   S    
C33   C45   A    
Cu1   O10   S    
C30   C38   A    
C117  H38   S    
O47   H67   S    
C42   C46   A    
C13   O21   S    
C37   C42   A    
C119  H44   S    
C78   H5    S    
C14   C90   A    
C13   C109  A    
C77   H6    S    
C86   C94   A    
C81   C97   A    
C59   C67   A    
C72   C119  S    
C85   C93   A    
C58   C66   A    
C40   C43   A    
C69   C118  S    
O46   H66   S    
C29   C33   A    
C45   H9    S    
C114  H29   S    
Cu1   O4    S    
C41   O25   S    
C57   O33   S    
C23   O52   S    
O44   H64   S    
C66   C113  S    
C34   C46   A    
O43   H63   S    
Cu4   O6    S    
C97   C102  A    
C26   N2    A    
C4    O4    A    
Cu4   O7    S    
C81   C89   A    
C58   O34   S    
C78   C86   A    
C113  H26   S    
C99   C104  A    
C22   O49   S    
C53   C69   A    
O19   H15   S    
Cu1   O1    S    
O45   H65   S    
C22   N2    A    
C120  H47   S    
C62   C70   A    
C8    O16   A    
C17   C33   A    
C77   C85   A    
C63   O31   S    
C1    O1    A    
C73   C81   A    
C88   C104  A    
C3    C50   S    
C15   O23   S    
O39   H59   S    
C7    O15   A    
Cu3   N4    S    
C115  H32   S    
C16   O24   S    
C25   C29   A    
C68   C115  S    
C76   H3    S    
C5    O13   A    
Cu1   N2    S    
C30   C34   A    
C27   C31   A    
O30   H50   S    
C84   C100  A    
Cu2   O9    S    
C20   C24   A    
C28   C32   A    
C109  O41   S    
C3    O11   A    
C64   C96   A    
C38   C41   A    
C59   O35   S    
C60   O36   S    
O26   H22   S    
C12   C108  A    
C116  H36   S    
C51   C67   A    
C56   C72   A    
O35   H55   S    
C115  H31   S    
C100  C103  A    
C17   C21   A    
Cu1   O11   S    
C87   C95   A    
C103  C112  A    
C28   N4    A    
Cu2   O12   S    
C6    O6    A    
C117  H39   S    
C19   C23   A    
O34   H54   S    
O32   H52   S    
Cu3   O5    S    
O41   H61   S    
C15   C111  A    
C10   O18   S    
C48   H12   S    
O37   H57   S    
C55   C79   A    
C24   N4    A    
O22   H18   S    
C54   C70   A    
C16   C112  A    
O33   H53   S    
O18   H14   S    
C114  H30   S    
C17   O53   S    
C118  H41   S    
O31   H51   S    
Cu2   O2    S    
C23   N3    A    
C64   O32   S    
C59   C91   A    
C82   C90   A    
C4    O12   A    
C5    O5    A    
C50   C66   A    
C21   N1    A    
Cu2   O3    S    
C49   C65   A    
C58   C90   A    
C87   C103  A    
C97   C106  A    
C26   C30   A    
O42   H62   S    
C63   C71   A    
C16   C92   A    
C67   C116  S    
C62   C94   A    
C11   C107  A    
C2    O10   A    
C120  H48   S    
C49   C73   A    
C10   C106  A    
C28   O47   S    
C12   O20   S    
O56   H76   S    
C86   C102  A    
C98   C101  A    
C9    C93   A    
C62   O30   S    
O36   H56   S    
C32   C40   A    
C85   C101  A    
C42   O26   S    
O40   H60   S    
Cu4   O16   S    
Cu1   Cu2   S    
C74   C82   A    
C115  H33   S    
C11   C95   A    
C117  H37   S    
C14   C110  A    
C74   H1    S    
O29   H49   S    
C100  C107  A    
C41   C45   A    
C73   H2    S    
C13   C89   A    
C18   C22   A    
C46   H10   S    
C106  O38   S    
C75   H4    S    
C57   C65   A    
C52   C76   A    
C52   C68   A    
C8    C53   S    
C19   O55   S    
C104  C111  A    
C113  H27   S    
O50   H70   S    
C2    O2    A    
C47   H11   S    
C39   C44   A    
C108  O40   S    
C18   O54   S    
C112  O44   S    
C83   C91   A    
C79   H8    S    
C14   O22   S    
C2    C51   S    
C56   C80   A    
C120  H46   S    
C4    C49   S    
C8    O8    A    
C61   C69   A    
C101  C110  A    
C44   O28   S    
C80   C88   A    
C19   C35   A    
O17   H13   S    
C118  H42   S    
C7    O7    A    
C26   O45   S    
C75   C83   A    
C116  H34   S    
O53   H73   S    
Cu4   N3    S    
C65   C114  S    
C18   C34   A    
C105  O37   S    
C107  O39   S    
C31   C35   A    
Cu2   N1    S    
C31   C39   A    
C27   O48   S    
C36   C48   A    
C3    O3    A    
C64   C72   A    
C119  H43   S    
C1    C52   S    
C82   C98   A    
O24   H20   S    
C1    O9    A    
C110  O42   S    
C11   O19   S    
C20   O56   S    
C15   C91   A    
C39   C40   A    
C44   C48   A    
Cu3   O8    S    
C60   C68   A    
C114  H28   S    
C29   C37   A    
O20   H16   S    
C20   C36   A    
C71   C120  S    
C12   C96   A    
C102  C109  A    
C83   C99   A    
C84   C92   A    
C7    C54   S    
C35   C47   A    
O49   H69   S    
C60   C92   A    
C43   C47   A    
C55   C71   A    
Cu3   Cu4   S    
C70   C117  S    
C61   O29   S    
C118  H40   S    
C54   C78   A    
C80   H7    S    
