data_mof_unit_5483.cif
_audit_creation_date              2012-12-11T14:40:23-0500
_audit_creation_method            fapswitch 2.2
_symmetry_space_group_name_H-M    P1
_symmetry_Int_Tables_number       1
_space_group_crystal_system       triclinic
_cell_length_a                    19.706971
_cell_length_b                    10.990325
_cell_length_c                    19.418529
_cell_angle_alpha                 90.051415
_cell_angle_beta                  97.125566
_cell_angle_gamma                 90.476832
_cell_volume                      4173.14685009

loop_
_atom_site_label
_atom_site_type_symbol
_atom_type_description
_atom_site_fract_x
_atom_site_fract_y
_atom_site_fract_z
_atom_type_partial_charge
Br1   Br    Br    0.601105 0.420945 0.559019 -0.403495
Br2   Br    Br    0.389678 0.374727 0.435198 -0.404665
Br3   Br    Br    0.129097 0.089594 0.533371 -0.468503
Br4   Br    Br    0.842005 0.733274 0.417411 -0.480030
C1    C     C_R   0.725231 0.952209 0.360576 0.607349
C2    C     C_3   0.254186 0.403248 0.568226 0.019762
C3    C     C_2   0.886681 0.963232 0.550295 0.616993
C4    C     C_2   0.604199 0.106859 0.012605 0.571513
C5    C     C_2   0.324773 0.176359 0.997888 0.530486
C6    C     C_2   0.104205 0.606870 0.012603 0.571005
C7    C     C_2   0.824777 0.676360 0.997887 0.530631
C8    C     C_3   0.237669 0.865670 0.437774 -0.002786
C9    C     C_3   0.756070 0.901859 0.567188 0.007466
C10   C     C_3   0.714319 0.500096 0.469082 0.058715
C11   C     C_3   0.295603 0.494196 0.530652 0.048938
C12   C     C_3   0.251369 0.999804 0.454317 0.065044
C13   C     C_3   0.813941 0.932273 0.523577 0.057367
C14   C     C_3   0.783763 0.513402 0.515711 -0.141211
C15   C     C_3   0.228252 0.532729 0.486983 -0.189635
C16   C     C_3   0.314408 0.963357 0.505215 -0.158018
C17   C     C_R   0.289492 0.992151 0.632592 0.549247
C18   C     C_3   0.767329 0.027346 0.484841 -0.170753
C19   C     C_3   0.812663 0.403352 0.480240 -0.110921
C20   C     C_3   0.187152 0.440350 0.525590 -0.147493
C21   C     C_3   0.299999 0.827931 0.488347 -0.122664
C22   C     C_3   0.709251 0.996451 0.529487 -0.178648
C23   C     C_3   0.785365 0.315198 0.532386 -0.160035
C24   C     C_3   0.198413 0.340494 0.472561 -0.091196
C25   C     C_3   0.252738 0.817912 0.545818 -0.136526
C26   C     C_3   0.681803 0.897336 0.476832 -0.113214
C27   C     C_3   0.757024 0.423789 0.567575 0.029782
C28   C     C_R   0.224738 0.454102 0.361405 0.577100
C29   C     C_3   0.239341 0.431291 0.434707 0.035332
C30   C     C_3   0.267452 0.952076 0.562480 0.025478
C31   C     C_3   0.739721 0.927465 0.433428 0.057927
C32   C     C_3   0.497681 0.262311 0.975483 -0.121564
C33   C     C_3   0.452669 0.274100 0.035516 -0.141254
C34   C     C_3   0.997684 0.762313 0.975481 -0.121832
C35   C     C_3   0.952673 0.774100 0.035514 -0.140626
C36   C     C_3   0.533975 0.153152 0.011298 0.018281
C37   C     C_3   0.400227 0.182829 0.998197 0.050750
C38   C     C_3   0.033980 0.653156 0.011296 0.017392
C39   C     C_R   0.773799 0.450813 0.640140 0.561640
C40   C     C_3   0.900231 0.682828 0.998197 0.050917
C41   C     C_3   0.491622 0.166149 0.071607 0.002414
C42   C     C_3   0.444498 0.173148 0.938184 0.014208
C43   C     C_3   0.991626 0.666151 0.071605 0.002301
C44   C     C_3   0.944502 0.673148 0.938184 0.014844
C45   C     C_R   0.536046 0.179669 0.338394 0.556168
C46   C     C_R   0.465096 0.180036 0.662454 0.551552
C47   C     C_R   0.036296 0.679873 0.338601 0.549271
C48   C     C_R   0.965549 0.680076 0.662779 0.552056
C49   C     C_3   0.438858 0.075521 0.036136 -0.146720
C50   C     C_3   0.715716 0.304035 0.485778 -0.157014
C51   C     C_3   0.481006 0.064498 0.974678 -0.152460
C52   C     C_3   0.938863 0.575521 0.036135 -0.146145
C53   C     C_3   0.981011 0.564500 0.974676 -0.152617
C54   C     C_1   0.757536 0.408021 0.898984 0.035022
C55   C     C_1   0.241320 0.426991 0.096586 0.100875
C56   C     C_1   0.257537 0.908015 0.898979 0.032988
C57   C     C_1   0.741315 0.926997 0.096583 0.102625
C58   C     C_1   0.736793 0.365057 0.026593 0.036056
C59   C     C_1   0.253620 0.421833 0.963960 0.031176
C60   C     C_1   0.236799 0.865063 0.026592 0.036402
C61   C     C_3   0.266231 0.303041 0.515592 -0.094835
C62   C     C_1   0.753617 0.921835 0.963958 0.031049
C63   C     C_1   0.746193 0.385022 0.956943 0.015409
C64   C     C_1   0.250287 0.423694 0.036235 0.080238
C65   C     C_1   0.246197 0.885022 0.956941 0.015156
C66   C     C_1   0.750282 0.923698 0.036232 0.079601
C67   C     C_1   0.729941 0.345017 0.086156 0.046597
C68   C     C_1   0.256079 0.406539 0.902832 0.036790
C69   C     C_1   0.229945 0.845025 0.086156 0.044452
C70   C     C_1   0.756077 0.906538 0.902832 0.036220
C71   C     C_R   0.738829 0.361589 0.362086 0.601507
C72   C     C_3   0.190337 0.855132 0.494248 -0.139737
C73   C     C_R   0.260415 0.365654 0.639417 0.563007
C74   C     C_R   0.226262 0.816759 0.368342 0.537986
C75   C     C_R   0.761002 0.864669 0.638741 0.547435
C76   C     C_R   0.723115 0.951535 0.164415 0.574961
C77   C     C_R   0.277022 0.949647 0.834603 0.576193
C78   C     C_R   0.223118 0.451529 0.164418 0.566006
C79   C     C_R   0.777026 0.449661 0.834612 0.566856
C80   C     C_R   0.528203 0.177778 0.141942 0.549770
C81   C     C_R   0.432420 0.182583 0.861730 0.595346
C82   C     C_R   0.028205 0.677779 0.141940 0.551282
C83   C     C_3   0.729276 0.802144 0.514614 -0.111388
C84   C     C_R   0.932421 0.682583 0.861730 0.594738
C85   C     C_R   0.723133 0.313489 0.156256 0.561067
C86   C     C_R   0.263262 0.364304 0.834231 0.566436
C87   C     C_R   0.223135 0.813495 0.156256 0.561215
C88   C     C_R   0.763262 0.864302 0.834232 0.564459
C89   C     C_1   0.487990 0.170662 0.596031 0.040480
C90   C     C_1   0.516974 0.169945 0.406455 0.072062
C91   C     C_1   0.989712 0.671208 0.596895 0.035714
C92   C     C_1   0.018075 0.671274 0.407079 0.051935
C93   C     C_1   0.508080 0.164379 0.466351 0.041132
C94   C     C_3   0.743879 0.392267 0.434444 0.024831
C95   C     C_1   0.499246 0.164865 0.536856 0.021694
C96   C     C_1   0.009892 0.666752 0.467211 0.021155
C97   C     C_1   0.001533 0.666593 0.537852 0.017410
C98   C     C_3   0.687925 0.413639 0.522189 0.154514
C99   C     C_3   0.306534 0.395732 0.477047 0.164202
C100  C     C_3   0.204678 0.990275 0.512185 0.154149
C101  C     C_3   0.787108 0.834228 0.470588 0.138492
C102  C     C_2   0.670432 0.587986 0.424332 0.589015
C103  C     C_2   0.351921 0.571163 0.568415 0.582627
C104  C     C_2   0.250922 0.092080 0.397491 0.593447
Cr1   Cr    Cr6+3 0.765830 0.160660 0.268180 1.059244
Cr2   Cr    Cr6+3 0.384070 0.324050 0.751550 1.073775
Cr3   Cr    Cr6+3 0.115930 0.824050 0.248450 1.092069
Cr4   Cr    Cr6+3 0.884070 0.824050 0.751550 1.064876
Cr5   Cr    Cr6+3 0.234170 0.160660 0.731820 1.078990
Cr6   Cr    Cr6+3 0.265830 0.660660 0.268180 1.069691
Cr7   Cr    Cr6+3 0.734170 0.660660 0.731820 1.079831
Cr8   Cr    Cr6+3 0.612110 0.009150 0.248770 1.040729
Cr9   Cr    Cr6+3 0.387890 0.009150 0.751230 1.039461
Cr10  Cr    Cr6+3 0.112110 0.509150 0.248770 1.053225
Cr11  Cr    Cr6+3 0.887890 0.509150 0.751230 1.048326
Cr12  Cr    Cr6+3 0.615930 0.324050 0.248450 1.084443
H1    H     H_    0.684067 0.223046 0.468966 0.118232
H2    H     H_    0.138790 0.459491 0.547277 0.144553
H3    H     H_    0.338814 0.761845 0.475878 0.196101
H4    H     H_    0.678343 0.062306 0.555459 0.136815
H5    H     H_    0.814263 0.241527 0.561619 0.180860
H6    H     H_    0.157368 0.281910 0.445877 0.217855
H7    H     H_    0.249605 0.746440 0.585392 0.184932
H8    H     H_    0.627334 0.881154 0.456318 0.176352
H9    H     H_    0.524157 0.339535 0.952969 0.161034
H10   H     H_    0.439761 0.360344 0.060529 0.138110
H11   H     H_    0.024158 0.839537 0.952967 0.160739
H12   H     H_    0.284006 0.210748 0.531146 0.118032
H13   H     H_    0.939764 0.860345 0.060527 0.138843
H14   H     H_    0.415492 0.998205 0.061809 0.142128
H15   H     H_    0.491899 0.977280 0.949343 0.152802
H16   H     H_    0.915498 0.498204 0.061808 0.142553
H17   H     H_    0.991905 0.477282 0.949342 0.152746
H18   H     H_    0.658005 0.687306 0.336728 0.353295
H19   H     H_    0.386165 0.668388 0.654006 0.350585
H20   H     H_    0.305869 0.193695 0.337994 0.357004
H21   H     H_    0.951382 0.065300 0.615548 0.354607
H22   H     H_    0.578106 0.947129 0.055212 0.314848
H23   H     H_    0.139417 0.809831 0.487865 0.138151
H24   H     H_    0.232399 0.154187 0.942563 0.340622
H25   H     H_    0.078117 0.447139 0.055211 0.315102
H26   H     H_    0.732403 0.654190 0.942560 0.340734
H27   H     H_    0.711701 0.713638 0.532727 0.164105
H28   H     H_    0.365259 0.009078 0.511304 0.142103
H29   H     H_    0.787774 0.112792 0.465570 0.148712
H30   H     H_    0.813426 0.596043 0.533644 0.145498
H31   H     H_    0.209772 0.622884 0.469191 0.095803
H32   H     H_    0.863508 0.400044 0.461285 0.167014
O1    O     O_R   0.783230 0.287800 0.346510 -0.516905
O2    O     O_R   0.454570 0.285140 0.836900 -0.512818
O3    O     O_R   0.045430 0.785140 0.163100 -0.514171
O4    O     O_R   0.954570 0.785140 0.836900 -0.515442
O5    O     O_R   0.677850 0.374730 0.185500 -0.477820
O6    O     O_R   0.322150 0.374730 0.814500 -0.510867
O7    O     O_R   0.177850 0.874730 0.185500 -0.470507
O8    O     O_R   0.822150 0.874730 0.814500 -0.514443
O9    O     O_3   0.664630 0.164620 0.255130 -0.304802
O10   O     O_3   0.335370 0.164620 0.744870 -0.315190
O11   O     O_3   0.164630 0.664620 0.255130 -0.324593
O12   O     O_R   0.216770 0.287800 0.653490 -0.494699
O13   O     O_3   0.835370 0.664620 0.744870 -0.296857
O14   O     O_R   0.760130 0.037060 0.338610 -0.497323
O15   O     O_R   0.239870 0.037060 0.661390 -0.463055
O16   O     O_R   0.260130 0.537060 0.338610 -0.494681
O17   O     O_R   0.739870 0.537060 0.661390 -0.483326
O18   O     O_R   0.666620 0.921370 0.332440 -0.525271
O19   O     O_R   0.333380 0.921370 0.667560 -0.502092
O20   O     O_R   0.166620 0.421370 0.332440 -0.496821
O21   O     O_R   0.833380 0.421370 0.667560 -0.508982
O22   O     O_R   0.557170 0.082420 0.312350 -0.510149
O23   O     O_R   0.283230 0.787800 0.346510 -0.487151
O24   O     O_R   0.442830 0.082420 0.687650 -0.518328
O25   O     O_R   0.057170 0.582420 0.312350 -0.505874
O26   O     O_R   0.942830 0.582420 0.687650 -0.499653
O27   O     O_R   0.548310 0.285980 0.316250 -0.472362
O28   O     O_R   0.451690 0.285980 0.683750 -0.465015
O29   O     O_R   0.048310 0.785980 0.316250 -0.488043
O30   O     O_R   0.951690 0.785980 0.683750 -0.478515
O31   O     O_R   0.680520 0.375500 0.327470 -0.471571
O32   O     O_R   0.319480 0.375500 0.672530 -0.473318
O33   O     O_R   0.180520 0.875500 0.327470 -0.446163
O34   O     O_R   0.716770 0.787800 0.653490 -0.509966
O35   O     O_R   0.819480 0.875500 0.672530 -0.477952
O36   O     O_R   0.780350 0.286970 0.193350 -0.500129
O37   O     O_R   0.219650 0.286970 0.806650 -0.488849
O38   O     O_R   0.280350 0.786970 0.193350 -0.494714
O39   O     O_R   0.719650 0.786970 0.806650 -0.485917
O40   O     O_R   0.757460 0.036290 0.196640 -0.518775
O41   O     O_R   0.242540 0.036290 0.803360 -0.470421
O42   O     O_R   0.257460 0.536290 0.196640 -0.521201
O43   O     O_R   0.742540 0.536290 0.803360 -0.471801
O44   O     O_R   0.663740 0.920540 0.179290 -0.487658
O45   O     O_R   0.554500 0.081650 0.170370 -0.506197
O46   O     O_R   0.336260 0.920540 0.820710 -0.513412
O47   O     O_R   0.163740 0.420540 0.179290 -0.481613
O48   O     O_R   0.836260 0.420540 0.820710 -0.518703
O49   O     O_2   0.613309 0.612735 0.438169 -0.459549
O50   O     O_R   0.693901 0.636656 0.365177 -0.653357
O51   O     O_2   0.404885 0.588290 0.542998 -0.437424
O52   O     O_R   0.344679 0.619250 0.633706 -0.702945
O53   O     O_2   0.196711 0.123482 0.365262 -0.485050
O54   O     O_R   0.312721 0.135816 0.378849 -0.674857
O55   O     O_2   0.933413 0.914233 0.525425 -0.465063
O56   O     O_R   0.445500 0.081650 0.829630 -0.494313
O57   O     O_R   0.900541 0.051279 0.602169 -0.695533
O58   O     O_2   0.647493 0.165168 0.987132 -0.516625
O59   O     O_R   0.617229 0.988084 0.034695 -0.697743
O60   O     O_2   0.300785 0.175642 0.052991 -0.529084
O61   O     O_R   0.282498 0.160407 0.935670 -0.720542
O62   O     O_2   0.147496 0.665181 0.987127 -0.516573
O63   O     O_R   0.117239 0.488098 0.034694 -0.697331
O64   O     O_2   0.800788 0.675646 0.052988 -0.526544
O65   O     O_R   0.782503 0.660409 0.935668 -0.719940
O66   O     O_R   0.054500 0.581650 0.170370 -0.505350
O67   O     O_R   0.945500 0.581650 0.829630 -0.495563
O68   O     O_R   0.545430 0.285140 0.163100 -0.515748

loop_
_geom_bond_atom_site_label_1
_geom_bond_atom_site_label_2
_ccdc_geom_bond_type
C57   C66   T    
Br3   C100  S    
C19   H32   S    
C9    C75   S    
C72   C100  S    
C72   H23   S    
Cr6   O38   S    
C75   O34   A    
C6    C38   S    
C39   O21   A    
C10   C14   S    
C55   C78   S    
Cr7   O17   S    
Cr9   O56   S    
C71   O31   A    
Cr6   O11   S    
Cr4   O35   S    
C39   O17   A    
C23   C50   S    
C44   C53   S    
C25   C72   S    
C33   H10   S    
C11   C15   S    
C18   C31   S    
C37   C42   S    
C27   C39   S    
C58   C63   S    
C33   C37   S    
C31   C101  S    
C84   O4    A    
C32   C33   S    
Br2   C99   S    
Cr12  O27   S    
C48   O30   A    
C34   C38   S    
Cr4   O8    S    
H19   O52   S    
C74   O23   A    
H24   O61   S    
C6    O63   S    
C10   C98   S    
C16   C21   S    
C5    O60   D    
C70   C88   S    
C62   C70   T    
C1    C31   S    
Cr3   O29   S    
C73   O32   A    
C78   O47   A    
C52   C53   S    
C48   C91   S    
C46   O24   A    
C82   O66   A    
C11   C103  S    
Cr3   O7    S    
Cr7   O43   S    
C80   O68   A    
C7    O65   S    
C3    O57   S    
C2    C11   S    
H25   O63   S    
H26   O65   S    
C12   C100  S    
C2    C61   S    
C8    C12   S    
C3    C13   S    
C8    C74   S    
C42   C51   S    
Cr10  O66   S    
C15   H31   S    
C60   C69   T    
C44   C84   S    
C32   C42   S    
Cr11  O26   S    
Cr10  O20   S    
C45   C90   S    
Cr7   O13   S    
C4    O59   S    
Cr1   O1    S    
C89   C95   T    
C34   C44   S    
Cr2   O6    S    
C88   O39   A    
Cr12  O68   S    
C7    O64   D    
C81   O2    A    
C42   C81   S    
Cr7   O39   S    
C71   O1    A    
C73   O12   A    
C28   O20   A    
C18   H29   S    
Cr2   O32   S    
C23   H5    S    
Cr11  O67   S    
C76   O40   A    
C22   H4    S    
H22   O59   S    
C4    O58   D    
Cr10  O47   S    
C38   C53   S    
C45   O22   A    
C93   C95   S    
C24   H6    S    
C10   C94   S    
C49   C51   S    
Cr1   O36   S    
Cr2   O10   S    
C36   C41   S    
C76   O44   A    
C87   O38   A    
C26   H8    S    
Cr10  O11   S    
Cr3   O33   S    
C1    O18   A    
C23   C27   S    
Cr11  O48   S    
C27   C98   S    
Cr8   O9    S    
C32   C36   S    
Cr3   O11   S    
Cr8   O18   S    
C69   C87   S    
C3    O55   D    
C15   C29   S    
C77   O46   A    
Cr7   O34   S    
C6    O62   D    
C2    C73   S    
Cr4   O30   S    
C17   C30   S    
C90   C93   T    
C5    O61   S    
C17   O19   A    
C77   O41   A    
C25   C30   S    
C71   C94   S    
C30   C100  S    
C14   C19   S    
Cr8   O45   S    
C34   C35   S    
C86   O6    A    
C46   O28   A    
C82   O3    A    
C43   C82   S    
C103  O51   D    
Cr2   O2    S    
C13   C101  S    
C55   C64   T    
C102  O50   S    
Cr5   O41   S    
C68   C86   S    
C56   C77   S    
Cr9   O19   S    
C14   H30   S    
C83   C101  S    
Cr2   O28   S    
C12   C16   S    
C36   C51   S    
C2    C20   S    
C9    C83   S    
C20   H2    S    
C60   C65   S    
C53   H17   S    
C7    C40   S    
C74   O33   A    
C1    O14   A    
Cr5   O12   S    
C85   O5    A    
C21   H3    S    
C37   C49   S    
C18   C22   S    
C75   O35   A    
C67   C85   S    
Cr12  O9    S    
Cr9   O24   S    
C104  O54   S    
Cr6   O23   S    
C50   H1    S    
C24   C29   S    
C52   H16   S    
C19   C23   S    
C28   O16   A    
Cr4   O4    S    
Cr12  O5    S    
C80   O45   A    
C85   O36   A    
C9    C22   S    
C41   C80   S    
C61   C99   S    
C33   C41   S    
H21   O57   S    
C61   H12   S    
C4    C36   S    
C35   C43   S    
C35   H13   S    
C26   C31   S    
Cr11  O13   S    
C59   C64   S    
Cr6   O42   S    
C29   C99   S    
C87   O7    A    
C50   C98   S    
C49   H14   S    
C20   C24   S    
C104  O53   D    
C47   O29   A    
H20   O54   S    
Cr5   O15   S    
C46   C89   S    
Cr6   O16   S    
C35   C40   S    
C9    C13   S    
Cr9   O10   S    
Cr5   O37   S    
Br4   C101  S    
C47   C92   S    
C79   O48   A    
C5    C37   S    
C13   C18   S    
C17   O15   A    
C84   O67   A    
Cr8   O22   S    
C8    C21   S    
C88   O8    A    
C11   C99   S    
C34   H11   S    
C8    C72   S    
C15   C20   S    
C25   H7    S    
C16   C30   S    
C103  O52   S    
C47   O25   A    
C54   C79   S    
C28   C29   S    
C102  O49   D    
C40   C52   S    
H18   O50   S    
C21   C25   S    
C16   H28   S    
C62   C66   S    
C56   C65   T    
C51   H15   S    
Cr4   O13   S    
C92   C96   T    
C96   C97   S    
C58   C67   T    
C24   C61   S    
C38   C43   S    
C79   O43   A    
Cr12  O31   S    
C48   O26   A    
C78   O42   A    
Cr1   O14   S    
C12   C104  S    
C41   C49   S    
Cr8   O44   S    
Cr10  O25   S    
C40   C44   S    
C54   C63   T    
Cr5   O10   S    
C19   C94   S    
C59   C68   T    
C83   H27   S    
C10   C102  S    
C50   C94   S    
Cr1   O9    S    
C14   C27   S    
Cr1   O40   S    
C57   C76   S    
C26   C83   S    
C32   H9    S    
Cr3   O3    S    
Br1   C98   S    
C86   O37   A    
Cr11  O21   S    
Cr9   O46   S    
C91   C97   T    
C81   O56   A    
C43   C52   S    
C45   O27   A    
C22   C26   S    
