data_mof_unit_6502.cif
_audit_creation_date              2012-12-11T15:34:28-0500
_audit_creation_method            fapswitch 2.2
_symmetry_space_group_name_H-M    P1
_symmetry_Int_Tables_number       1
_space_group_crystal_system       triclinic
_cell_length_a                    15.069233
_cell_length_b                    15.077818
_cell_length_c                    34.93489
_cell_angle_alpha                 90.541293
_cell_angle_beta                  90.007939
_cell_angle_gamma                 60.060755
_cell_volume                      6877.96199133

loop_
_atom_site_label
_atom_site_type_symbol
_atom_type_description
_atom_site_fract_x
_atom_site_fract_y
_atom_site_fract_z
_atom_type_partial_charge
C1    C     C_R   0.302696 0.608165 0.555784 0.543481
C2    C     C_R   0.228189 0.715429 0.387859 -0.125342
C3    C     C_R   0.752410 0.146972 0.266386 -0.117923
C4    C     C_R   0.758232 0.140018 0.226583 -0.114734
C5    C     C_R   0.670820 0.199380 0.204321 0.028249
C6    C     C_R   0.723449 0.226687 0.348742 -0.122598
C7    C     C_R   0.707725 0.245511 0.387994 -0.127220
C8    C     C_R   0.551713 0.236648 0.383727 -0.125492
C9    C     C_R   0.737690 0.581010 0.648583 -0.119917
C10   C     C_R   0.567257 0.218348 0.344501 -0.122331
C11   C     C_R   0.651003 0.217293 0.326536 0.031487
C12   C     C_R   0.619304 0.255111 0.405525 0.022591
C13   C     C_R   0.206160 0.719845 0.349038 -0.122314
C14   C     C_R   0.086115 0.706949 0.093385 0.022665
C15   C     C_R   0.103318 0.614235 0.109064 -0.127172
C16   C     C_R   0.141311 0.587664 0.146042 -0.123717
C17   C     C_R   0.162634 0.653357 0.167817 0.031916
C18   C     C_R   0.153093 0.741927 0.151044 -0.119641
C19   C     C_R   0.115288 0.768451 0.114068 -0.126143
C20   C     C_R   0.253556 0.657682 0.226813 -0.120630
C21   C     C_2   0.734985 0.300202 0.792072 0.560375
C22   C     C_R   0.202934 0.638134 0.330940 0.031259
C23   C     C_R   0.564188 0.724439 0.650198 -0.123456
C24   C     C_R   0.248260 0.628642 0.408997 0.022857
C25   C     C_R   0.735758 0.025968 0.943490 0.543673
C26   C     C_R   0.745854 0.722760 0.945123 0.545327
C27   C     C_R   0.038384 0.733932 0.948383 0.541789
C28   C     C_R   0.723068 0.038667 0.052854 0.544471
C29   C     C_R   0.733449 0.734460 0.054703 0.544056
C30   C     C_R   0.655606 0.659116 0.669340 0.033376
C31   C     C_R   0.027745 0.744636 0.057781 0.545166
C32   C     C_R   0.552132 0.706417 0.611844 -0.132792
C33   C     C_R   0.670982 0.671656 0.788734 0.347682
C34   C     C_R   0.662629 0.666427 0.711218 0.347162
C35   C     C_R   0.760933 0.597180 0.850105 -0.109777
C36   C     C_R   0.778083 0.608749 0.888519 -0.122459
C37   C     C_R   0.626779 0.777243 0.889538 -0.131559
C38   C     C_R   0.609431 0.765504 0.851107 -0.122246
C39   C     C_R   0.678875 0.677155 0.830633 0.036703
C40   C     C_R   0.610651 0.588367 0.555252 0.545859
C41   C     C_R   0.260876 0.656836 0.266515 -0.117985
C42   C     C_R   0.713719 0.700702 0.908115 0.021871
C43   C     C_R   0.720975 0.077832 0.906572 0.020286
C44   C     C_R   0.625770 0.120299 0.888115 -0.123173
C45   C     C_R   0.616661 0.150259 0.850061 -0.103245
C46   C     C_R   0.702317 0.138766 0.829998 0.067688
C47   C     C_R   0.796036 0.102097 0.848890 -0.076745
C48   C     C_R   0.805229 0.072362 0.887047 -0.120481
C49   C     C_R   0.715484 0.226271 0.770312 0.060825
C50   C     C_R   0.711764 0.231771 0.730177 -0.113830
C51   C     C_R   0.687987 0.168021 0.708117 -0.002227
C52   C     C_R   0.197095 0.635118 0.289062 0.027610
C53   C     C_R   0.590238 0.300658 0.553608 0.544089
C54   C     C_R   0.670139 0.096170 0.726355 -0.121728
C55   C     C_R   0.674551 0.088903 0.765999 -0.144310
C56   C     C_R   0.696442 0.153462 0.788315 -0.005907
C57   C     C_R   0.586991 0.188378 0.648968 -0.115869
C58   C     C_R   0.563751 0.219229 0.611041 -0.125427
C59   C     C_R   0.717587 0.231782 0.606504 -0.124453
C60   C     C_R   0.740678 0.201079 0.644443 -0.119714
C61   C     C_R   0.673580 0.182854 0.666395 0.033050
C62   C     C_R   0.626681 0.245223 0.589946 0.020942
C63   C     C_R   0.128871 0.610116 0.271427 -0.118126
C64   C     C_R   0.092757 0.696815 0.911488 0.021148
C65   C     C_R   0.300302 0.610188 0.446070 0.543656
C66   C     C_R   0.124274 0.757031 0.891604 -0.124913
C67   C     C_R   0.149137 0.738997 0.852866 -0.118353
C68   C     C_R   0.144015 0.659879 0.833455 0.031639
C69   C     C_R   0.122325 0.593429 0.854008 -0.116479
C70   C     C_R   0.096637 0.611866 0.892810 -0.124842
C71   C     C_R   0.214631 0.560082 0.772634 -0.105593
C72   C     C_R   0.222941 0.556177 0.732773 -0.104433
C73   C     C_R   0.167158 0.645458 0.711105 0.032565
C74   C     C_R   0.121132 0.611471 0.231702 -0.114918
C75   C     C_R   0.100952 0.737971 0.729993 -0.109674
C76   C     C_R   0.093530 0.741995 0.769763 -0.107885
C77   C     C_R   0.607854 0.589634 0.445244 0.542546
C78   C     C_R   0.151441 0.653477 0.791393 0.031351
C79   C     C_R   0.193791 0.722801 0.652444 -0.116163
C80   C     C_R   0.224918 0.714760 0.614419 -0.124492
C81   C     C_R   0.232011 0.551074 0.608724 -0.126378
C82   C     C_R   0.200432 0.559359 0.646776 -0.119377
C83   C     C_R   0.184502 0.643632 0.669366 0.033305
C84   C     C_R   0.248099 0.627029 0.592622 0.021250
C85   C     C_R   0.182108 0.637117 0.209133 0.028291
C86   C     C_R   0.691567 0.718335 0.090443 0.021374
C87   C     C_R   0.605479 0.800030 0.108201 -0.128139
C88   C     C_R   0.578527 0.790637 0.145559 -0.122959
C89   C     C_R   0.587711 0.303163 0.443688 0.542958
C90   C     C_R   0.637029 0.699398 0.165712 0.031844
C91   C     C_R   0.718400 0.615463 0.146890 -0.119088
C92   C     C_R   0.745289 0.624781 0.109620 -0.124897
C93   C     C_R   0.633520 0.603996 0.223388 -0.120284
C94   C     C_R   0.633479 0.594177 0.263006 -0.118593
C95   C     C_R   0.620327 0.674805 0.287192 0.026517
C96   C     C_R   0.213156 0.555990 0.352708 -0.122223
C97   C     C_R   0.602906 0.767002 0.271180 -0.117386
C98   C     C_R   0.603780 0.776598 0.231506 -0.114482
C99   C     C_R   0.621147 0.694402 0.207243 0.028153
C100  C     C_R   0.549643 0.735042 0.353003 -0.121941
C101  C     C_R   0.631320 0.622773 0.592056 0.022231
C102  C     C_R   0.548180 0.715475 0.391910 -0.126343
C103  C     C_R   0.704524 0.552519 0.383831 -0.125169
C104  C     C_R   0.705364 0.571731 0.344948 -0.121994
C105  C     C_R   0.626059 0.661432 0.329022 0.030496
C106  C     C_R   0.623575 0.622259 0.407391 0.022299
C107  C     C_R   0.235729 0.551211 0.391550 -0.126667
C108  C     C_R   0.699397 0.101401 0.087942 0.022552
C109  C     C_R   0.773293 0.121308 0.103986 -0.126750
C110  C     C_R   0.760694 0.160507 0.141110 -0.123641
C111  C     C_R   0.674115 0.180324 0.162727 0.031891
C112  C     C_R   0.596162 0.168946 0.145468 -0.119636
C113  C     C_R   0.725678 0.563041 0.610287 -0.130423
C114  C     C_R   0.608590 0.130004 0.108329 -0.126447
C115  C     C_R   0.578398 0.268454 0.222517 -0.120580
C116  C     C_R   0.572508 0.275031 0.262319 -0.118344
C117  C     C_R   0.658978 0.212845 0.284518 0.027394
Cr1   Cr    Cr6+3 0.421670 0.426920 0.499620 1.010200
Cr2   Cr    Cr6+3 0.427030 0.651190 0.500980 1.010867
Cr3   Cr    Cr6+3 0.651280 0.421870 0.499380 1.010496
Cr4   Cr    Cr6+3 0.910810 0.908010 0.001130 1.013315
Cr5   Cr    Cr6+3 0.682800 0.909890 0.998370 1.012374
Cr6   Cr    Cr6+3 0.908370 0.682300 0.002180 1.012258
H1    H     H_    0.788471 0.498635 0.595659 0.129779
H2    H     H_    0.863031 0.091915 0.833557 0.111321
H3    H     H_    0.478613 0.754107 0.598489 0.128172
H4    H     H_    0.768049 0.250536 0.590901 0.127545
H5    H     H_    0.122967 0.822498 0.905227 0.129052
H6    H     H_    0.072891 0.563987 0.907375 0.126946
H7    H     H_    0.191854 0.498209 0.658903 0.105361
H8    H     H_    0.275807 0.484069 0.719048 0.107697
H9    H     H_    0.259721 0.490984 0.788868 0.110244
H10   H     H_    0.167707 0.789874 0.837585 0.112083
H11   H     H_    0.055696 0.807512 0.714030 0.106614
H12   H     H_    0.879717 0.039336 0.900436 0.126666
H13   H     H_    0.042348 0.814419 0.783705 0.108552
H14   H     H_    0.182980 0.788299 0.669184 0.107513
H15   H     H_    0.845306 0.548019 0.902133 0.132329
H16   H     H_    0.236665 0.774555 0.602874 0.127556
H17   H     H_    0.118321 0.531715 0.839507 0.110184
H18   H     H_    0.248691 0.482782 0.592563 0.124586
H19   H     H_    0.562258 0.872996 0.094078 0.125272
H20   H     H_    0.811734 0.560298 0.096657 0.127442
H21   H     H_    0.766146 0.514832 0.327003 0.103486
H22   H     H_    0.644600 0.523170 0.274819 0.111716
H23   H     H_    0.808877 0.195505 0.657103 0.111579
H24   H     H_    0.645304 0.540117 0.205378 0.106376
H25   H     H_    0.514354 0.855950 0.159201 0.100215
H26   H     H_    0.592561 0.830084 0.289365 0.105034
H27   H     H_    0.809786 0.530456 0.662342 0.136773
H28   H     H_    0.595552 0.846655 0.219916 0.105574
H29   H     H_    0.487923 0.804921 0.341267 0.101241
H30   H     H_    0.484791 0.770679 0.409340 0.122079
H31   H     H_    0.765527 0.544414 0.161750 0.102465
H32   H     H_    0.763756 0.480021 0.394823 0.126032
H33   H     H_    0.843539 0.101213 0.088740 0.124209
H34   H     H_    0.722585 0.289370 0.716042 0.157318
H35   H     H_    0.550068 0.116006 0.096641 0.126030
H36   H     H_    0.511715 0.208917 0.327916 0.102570
H37   H     H_    0.500198 0.328268 0.275809 0.110654
H38   H     H_    0.510331 0.315873 0.205969 0.106312
H39   H     H_    0.499936 0.786079 0.665305 0.132190
H40   H     H_    0.820909 0.170592 0.153597 0.100223
H41   H     H_    0.819907 0.098336 0.283016 0.104160
H42   H     H_    0.830022 0.084771 0.213306 0.105550
H43   H     H_    0.788806 0.225760 0.335415 0.100208
H44   H     H_    0.761257 0.259271 0.404048 0.122996
H45   H     H_    0.543867 0.178375 0.835715 0.109912
H46   H     H_    0.528856 0.183062 0.161566 0.101965
H47   H     H_    0.483156 0.243038 0.396414 0.126276
H48   H     H_    0.082686 0.564671 0.093553 0.124942
H49   H     H_    0.103397 0.840060 0.102615 0.127624
H50   H     H_    0.196151 0.784972 0.332744 0.103694
H51   H     H_    0.814830 0.527382 0.835273 0.128779
H52   H     H_    0.315929 0.673777 0.279671 0.111479
H53   H     H_    0.302201 0.676375 0.209951 0.107009
H54   H     H_    0.149804 0.518074 0.158238 0.100713
H55   H     H_    0.079222 0.593044 0.288412 0.104841
H56   H     H_    0.652427 0.045767 0.709906 0.119543
H57   H     H_    0.064214 0.596993 0.218755 0.106417
H58   H     H_    0.210446 0.492423 0.339205 0.100989
H59   H     H_    0.250320 0.483590 0.407189 0.123727
H60   H     H_    0.168308 0.794287 0.167360 0.103062
H61   H     H_    0.236512 0.776653 0.400575 0.127253
H62   H     H_    0.575405 0.848754 0.903979 0.128770
H63   H     H_    0.544784 0.828001 0.836992 0.131645
H64   H     H_    0.559526 0.125623 0.902445 0.127932
H65   H     H_    0.792627 0.395601 0.791597 0.349897
H66   H     H_    0.661135 0.032120 0.779444 0.123558
H67   H     H_    0.533721 0.175179 0.665339 0.106578
H68   H     H_    0.493255 0.228718 0.599080 0.127203
N1    N     N_R   0.748839 0.595968 0.768236 -0.232766
N2    N     N_R   0.744584 0.593186 0.730279 -0.218108
N3    N     N_R   0.584683 0.742303 0.731692 -0.238185
N4    N     N_R   0.589038 0.745189 0.769701 -0.235789
O1    O     O_R   0.502070 0.323090 0.541280 -0.519814
O2    O     O_R   0.831550 0.656950 0.958960 -0.520400
O3    O     O_R   0.998590 0.685540 0.963930 -0.502690
O4    O     O_R   0.338340 0.520690 0.539540 -0.502356
O5    O     O_R   0.008220 0.831200 0.045060 -0.520074
O6    O     O_R   0.813270 0.997930 0.038810 -0.501710
O7    O     O_R   0.657500 0.016560 0.039940 -0.521155
O8    O     O_R   0.685680 0.820940 0.038120 -0.502394
O9    O     O_R   0.822130 0.666070 0.043610 -0.519203
O10   O     O_R   0.989860 0.694000 0.042400 -0.502740
O11   O     O_3   0.833990 0.833400 0.000560 -0.236457
O12   O     O_R   0.520720 0.641670 0.461580 -0.501925
O13   O     O_R   0.324760 0.674070 0.543580 -0.520906
O14   O     O_R   0.522400 0.640310 0.540110 -0.502910
O15   O     O_R   0.675940 0.500630 0.542210 -0.519576
O16   O     O_R   0.641790 0.337020 0.538150 -0.502258
O17   O     O_R   0.500260 0.324550 0.456580 -0.520746
O18   O     O_R   0.336660 0.522040 0.461020 -0.503403
O19   O     O_R   0.322940 0.675540 0.458880 -0.520582
O20   O     O_2   0.706849 0.322406 0.825359 -0.512064
O21   O     O_R   0.783803 0.346754 0.773995 -0.699449
O22   O     O_R   0.674120 0.502090 0.457500 -0.521232
O23   O     O_R   0.640110 0.338380 0.459630 -0.503514
O24   O     O_3   0.499990 0.499990 0.499990 -0.235285
O25   O     O_R   0.017640 0.822070 0.960410 -0.521261
O26   O     O_R   0.822000 0.989470 0.960340 -0.502172
O27   O     O_R   0.666920 0.007430 0.955290 -0.519692
O28   O     O_R   0.694410 0.812480 0.959650 -0.502204

loop_
_geom_bond_atom_site_label_1
_geom_bond_atom_site_label_2
_ccdc_geom_bond_type
C58   C62   A    
C55   C56   A    
C6    H43   S    
C93   C94   A    
C29   O8    A    
C101  C113  A    
Cr5   O11   S    
Cr6   O3    S    
C36   C42   A    
C35   C36   A    
C51   C61   S    
C96   H58   S    
C80   C84   A    
C25   C43   S    
C112  C114  A    
C20   C41   A    
C76   H13   S    
C75   H11   S    
C45   C46   A    
C54   H56   S    
C1    C84   S    
C13   H50   S    
C100  C105  A    
C33   C39   S    
C63   H55   S    
Cr6   O9    S    
C33   N1    A    
C17   C85   S    
C28   O6    A    
C55   H66   S    
C77   C106  S    
C67   H10   S    
C76   C78   A    
C31   O10   A    
C69   C70   A    
C77   O12   A    
C38   C39   A    
C59   H4    S    
C115  C116  A    
C40   O15   A    
C108  C109  A    
Cr6   O10   S    
Cr1   O17   S    
C18   C19   A    
C93   H24   S    
C32   H3    S    
C37   C42   A    
C92   H20   S    
C1    O13   A    
C110  C111  A    
C71   H9    S    
C95   C105  S    
C89   O23   A    
C54   C55   A    
C37   H62   S    
C112  H46   S    
C68   C69   A    
C13   C22   A    
C21   O20   D    
C25   O26   A    
C64   C70   A    
C82   H7    S    
Cr1   O1    S    
C43   C48   A    
C93   C99   A    
C41   C52   A    
C58   H68   S    
C8    C12   A    
C97   C98   A    
C23   H39   S    
C34   N3    A    
C69   H17   S    
C81   H18   S    
N3    N4    A    
C41   H52   S    
C59   C60   A    
C74   C85   A    
C29   O9    A    
C5    C115  A    
Cr2   O24   S    
C73   C75   A    
C1    O4    A    
C27   O3    A    
C60   H23   S    
Cr4   O11   S    
C114  H35   S    
Cr1   O4    S    
C103  C106  A    
C21   C49   S    
C31   O5    A    
C8    H47   S    
C81   C82   A    
C89   O17   A    
C98   H28   S    
C50   H34   S    
C68   C78   S    
C7    C12   A    
C47   H2    S    
C14   C31   S    
C9    H27   S    
Cr2   O14   S    
C30   C34   S    
C107  H59   S    
C67   C68   A    
C23   C30   A    
C12   C89   S    
C19   H49   S    
C91   H31   S    
C27   C64   S    
C91   C92   A    
C86   C87   A    
C16   C17   A    
C5    C111  S    
C74   H57   S    
C50   C51   A    
C38   H63   S    
C40   O14   A    
C82   C83   A    
C70   H6    S    
C100  H29   S    
Cr6   O11   S    
C60   C61   A    
C64   C66   A    
Cr5   O8    S    
C115  H38   S    
C35   C39   A    
C75   C76   A    
Cr4   O5    S    
C65   O18   A    
C37   C38   A    
Cr6   O2    S    
C53   C62   S    
C47   C48   A    
C53   O16   A    
C20   C85   A    
C100  C102  A    
C17   C18   A    
C88   H25   S    
C21   O21   S    
C15   H48   S    
C25   O27   A    
C24   C107  A    
C2    H61   S    
C108  C114  A    
C57   C61   A    
C2    C13   A    
C102  H30   S    
C29   C86   S    
C3    H41   S    
H65   O21   S    
C24   C65   S    
C34   N2    A    
C103  H32   S    
C79   H14   S    
Cr3   O16   S    
C88   C90   A    
C49   C50   A    
Cr5   O28   S    
C6    C11   A    
C43   C44   A    
C2    C24   A    
Cr4   O25   S    
Cr2   O12   S    
C90   C91   A    
C3    C4    A    
C11   C117  S    
C109  H33   S    
C90   C99   S    
C26   O28   A    
C81   C84   A    
C16   H54   S    
C26   C42   S    
C72   H8    S    
C22   C52   S    
C7    H44   S    
C46   C47   A    
C59   C62   A    
Cr4   O26   S    
C111  C112  A    
C32   C101  A    
C35   H51   S    
C22   C96   A    
C14   C19   A    
C96   C107  A    
C8    C10   A    
C44   C45   A    
C40   C101  S    
C57   H67   S    
C72   C73   A    
C52   C63   A    
C104  C105  A    
C110  H40   S    
C95   C97   A    
C116  H37   S    
C6    C7    A    
C63   C74   A    
C80   H16   S    
C51   C54   A    
C28   O7    A    
N1    N2    A    
Cr5   O7    S    
Cr3   O15   S    
C9    C113  A    
C65   O19   A    
C49   C56   A    
C86   C92   A    
C109  C110  A    
C23   C32   A    
C79   C83   A    
C77   O22   A    
C57   C58   A    
C20   H53   S    
C113  H1    S    
C18   H60   S    
C94   H22   S    
Cr3   O24   S    
C4    C5    A    
C48   H12   S    
Cr2   O19   S    
C66   H5    S    
C116  C117  A    
C66   C67   A    
Cr1   O18   S    
C26   O2    A    
C9    C30   A    
C87   H19   S    
C94   C95   A    
C28   C108  S    
C45   H45   S    
C10   C11   A    
Cr3   O22   S    
C44   H64   S    
Cr4   O6    S    
C79   C80   A    
C27   O25   A    
C71   C72   A    
C33   N4    A    
C87   C88   A    
Cr3   O23   S    
C98   C99   A    
Cr5   O27   S    
C102  C106  A    
C46   C56   S    
C103  C104  A    
C53   O1    A    
C97   H26   S    
C14   C15   A    
Cr2   O13   S    
C3    C117  A    
C4    H42   S    
C104  H21   S    
C36   H15   S    
C10   H36   S    
C73   C83   S    
C71   C78   A    
C15   C16   A    
Cr1   O24   S    
