data_mof_unit_43544.cif
_audit_creation_date              2012-12-11T15:33:48-0500
_audit_creation_method            fapswitch 2.2
_symmetry_space_group_name_H-M    P1
_symmetry_Int_Tables_number       1
_space_group_crystal_system       triclinic
_cell_length_a                    27.277432
_cell_length_b                    7.195169
_cell_length_c                    22.656431
_cell_angle_alpha                 89.988024
_cell_angle_beta                  100.903093
_cell_angle_gamma                 89.989744
_cell_volume                      4366.41158868

loop_
_atom_site_label
_atom_site_type_symbol
_atom_type_description
_atom_site_fract_x
_atom_site_fract_y
_atom_site_fract_z
_atom_type_partial_charge
O1    O     O_R   0.207310 0.594030 0.676830 -0.529700
O2    O     O_R   0.792690 0.405970 0.323170 -0.535409
O3    O     O_R   0.292690 0.094030 0.823170 -0.529761
O4    O     O_R   0.707310 0.905970 0.176830 -0.535457
O5    O     O_R   0.197320 0.262370 0.795700 -0.538702
O6    O     O_R   0.802680 0.737630 0.204300 -0.538895
O7    O     O_R   0.302680 0.762370 0.704300 -0.538688
O8    O     O_R   0.697320 0.237630 0.295700 -0.538904
C1    C     C_R   0.184617 0.432570 0.811887 0.668250
C2    C     C_R   0.815445 0.567432 0.188200 0.670298
C3    C     C_R   0.315381 0.932569 0.688109 0.668446
C4    C     C_R   0.684552 0.067432 0.311797 0.670490
O9    O     O_R   0.201410 0.264250 0.675590 -0.538702
O10   O     O_R   0.798590 0.735750 0.324410 -0.532450
O11   O     O_R   0.298590 0.764250 0.824410 -0.538715
O12   O     O_R   0.701410 0.235750 0.175590 -0.532511
O13   O     O_R   0.296810 0.094940 0.702210 -0.537894
O14   O     O_R   0.703190 0.905060 0.297790 -0.538279
O15   O     O_R   0.203190 0.594940 0.797790 -0.537840
O16   O     O_R   0.796810 0.405060 0.202210 -0.538213
C5    C     C_R   0.189695 0.432505 0.653535 0.690557
C6    C     C_R   0.810201 0.567152 0.346409 0.696125
C7    C     C_R   0.310310 0.932442 0.846470 0.690360
C8    C     C_R   0.689796 0.067215 0.153592 0.696375
O17   O     O_3   0.281300 0.427390 0.758870 -0.372078
O18   O     O_3   0.718700 0.572610 0.241130 -0.373507
O19   O     O_3   0.218700 0.927390 0.741130 -0.372082
O20   O     O_3   0.781300 0.072610 0.258870 -0.373479
V1    V     V_3+5 0.244190 0.152150 0.748350 1.391115
V2    V     V_3+5 0.755810 0.847850 0.251650 1.399447
V3    V     V_3+5 0.255810 0.652150 0.751650 1.391204
V4    V     V_3+5 0.744190 0.347850 0.248350 1.399446
C9    C     C_R   0.653951 0.057943 0.096072 -0.089790
C10   C     C_R   0.345920 0.934643 0.904474 -0.097398
C11   C     C_R   0.846024 0.557581 0.403944 -0.089830
C12   C     C_R   0.154079 0.435049 0.595549 -0.097268
C13   C     C_R   0.640918 0.059700 0.987642 -0.160570
C14   C     C_R   0.363699 0.831540 0.007881 -0.168161
C15   C     C_R   0.858937 0.555638 0.512375 -0.160603
C16   C     C_R   0.136515 0.334862 0.491854 -0.167759
C17   C     C_R   0.672926 0.061138 0.043108 -0.212398
C18   C     C_R   0.331110 0.846812 0.953167 -0.212105
C19   C     C_R   0.826978 0.558110 0.456876 -0.212290
C20   C     C_R   0.169045 0.349070 0.546649 -0.212071
C21   C     C_R   0.601559 0.050421 0.093519 0.215874
C22   C     C_R   0.395127 0.007031 0.910725 0.207402
C23   C     C_R   0.898441 0.551635 0.406558 0.215565
C24   C     C_R   0.104775 0.506452 0.589454 0.207564
C25   C     C_R   0.568468 0.027281 0.036499 0.047427
C26   C     C_R   0.431153 0.968822 0.964544 0.046255
C27   C     C_R   0.931507 0.527182 0.463537 0.047358
C28   C     C_R   0.068842 0.469230 0.535487 0.046238
C29   C     C_R   0.589224 0.043812 0.983797 0.094614
C30   C     C_R   0.413319 0.890106 0.013974 0.095882
C31   C     C_R   0.910666 0.541129 0.516249 0.094667
C32   C     C_R   0.086824 0.392613 0.485855 0.095838
C33   C     C_R   0.515960 0.986297 0.029295 0.053398
C34   C     C_R   0.484149 0.999670 0.971137 0.051132
C35   C     C_R   0.984070 0.487187 0.470679 0.053284
C36   C     C_R   0.015808 0.499129 0.528915 0.051115
C37   C     C_R   0.507188 0.020782 0.920854 -0.154582
C38   C     C_R   0.495405 0.911479 0.076694 -0.153871
C39   C     C_R   0.992688 0.517843 0.579224 -0.154568
C40   C     C_R   0.004768 0.414589 0.423074 -0.154025
C41   C     C_R   0.558513 0.039978 0.927139 -0.202927
C42   C     C_R   0.445424 0.863095 0.068933 -0.208451
C43   C     C_R   0.941331 0.535978 0.572928 -0.202954
C44   C     C_R   0.054804 0.366924 0.430765 -0.208260
H1    H     H_    0.574454 0.049770 0.886882 0.129537
H2    H     H_    0.431924 0.800113 0.106314 0.129635
H3    H     H_    0.925330 0.543829 0.613185 0.129537
H4    H     H_    0.068419 0.305586 0.393211 0.129650
H5    H     H_    0.293636 0.791592 0.948945 0.128444
H6    H     H_    0.712834 0.069666 0.044768 0.122994
H7    H     H_    0.206598 0.294635 0.550763 0.128262
H8    H     H_    0.787045 0.565313 0.455180 0.122984
H9    H     H_    0.656805 0.068123 0.947334 0.127312
H10   H     H_    0.350450 0.767114 0.045185 0.128206
H11   H     H_    0.842988 0.562019 0.552676 0.127295
H12   H     H_    0.149880 0.271986 0.454385 0.128173
H13   H     H_    0.486979 0.006262 0.875452 0.171046
H14   H     H_    0.518065 0.872556 0.119112 0.171596
H15   H     H_    0.012877 0.502140 0.624598 0.171067
H16   H     H_    0.982192 0.376798 0.380493 0.171563
C45   C     C_R   0.629271 0.881581 0.367283 -0.159271
C46   C     C_R   0.370705 0.118505 0.632693 -0.160169
C47   C     C_R   0.870752 0.381581 0.132748 -0.159314
C48   C     C_R   0.129252 0.618511 0.867247 -0.160112
H17   H     H_    0.644657 0.753887 0.353214 0.124203
H18   H     H_    0.355657 0.246199 0.647244 0.125475
H19   H     H_    0.855395 0.253887 0.146857 0.124235
H20   H     H_    0.144278 0.746205 0.852665 0.125495
C49   C     C_R   0.593260 0.868652 0.403671 -0.139960
C50   C     C_R   0.406540 0.131490 0.596064 -0.139433
C51   C     C_R   0.906758 0.368652 0.096354 -0.139998
C52   C     C_R   0.093411 0.631497 0.903868 -0.139424
H21   H     H_    0.582236 0.731899 0.416279 0.133255
H22   H     H_    0.417779 0.268282 0.583764 0.133599
H23   H     H_    0.917808 0.231899 0.083780 0.133260
H24   H     H_    0.082147 0.768290 0.916134 0.133592
C53   C     C_R   0.572036 0.029344 0.423703 0.020838
C54   C     C_R   0.427363 0.970803 0.575466 0.020036
C55   C     C_R   0.927946 0.529345 0.076272 0.020827
C56   C     C_R   0.072616 0.470808 0.924505 0.020039
C57   C     C_R   0.587665 0.203728 0.405817 -0.135708
C58   C     C_R   0.411466 0.796359 0.592962 -0.134852
C59   C     C_R   0.912284 0.703729 0.094113 -0.135648
C60   C     C_R   0.088546 0.296362 0.907052 -0.134863
H25   H     H_    0.572154 0.330711 0.420217 0.138735
H26   H     H_    0.426643 0.669372 0.578093 0.138945
H27   H     H_    0.927767 0.830712 0.079672 0.138717
H28   H     H_    0.073389 0.169375 0.921951 0.138945
C61   C     C_R   0.623763 0.216794 0.369274 -0.161345
C62   C     C_R   0.375528 0.783234 0.629718 -0.160083
C63   C     C_R   0.876192 0.716795 0.130663 -0.161147
C64   C     C_R   0.124488 0.283236 0.870303 -0.160099
H29   H     H_    0.634944 0.353414 0.356750 0.120537
H30   H     H_    0.364114 0.646570 0.641905 0.121294
H31   H     H_    0.864984 0.853415 0.143152 0.120536
H32   H     H_    0.135927 0.146571 0.858151 0.121294
C65   C     C_R   0.645292 0.055766 0.349653 -0.045332
C66   C     C_R   0.354455 0.944265 0.649988 -0.047717
C67   C     C_R   0.854700 0.555766 0.150336 -0.045416
C68   C     C_R   0.145535 0.444269 0.849998 -0.047725
N1    N     N_R   0.513752 0.168743 0.483316 -0.279994
N2    N     N_R   0.485552 0.831446 0.515726 -0.279961
N3    N     N_R   0.986155 0.668743 0.016559 -0.279992
N4    N     N_R   0.014496 0.331452 0.984337 -0.279965
N5    N     N_R   0.480063 0.154811 0.518801 -0.285177
N6    N     N_R   0.519244 0.845378 0.480247 -0.285314
N7    N     N_R   0.019843 0.654813 0.981072 -0.285178
N8    N     N_R   0.980806 0.345383 0.019817 -0.285318
C69   C     C_R   0.465175 0.985886 0.535869 0.512864
C70   C     C_R   0.534138 0.014299 0.463187 0.512728
C71   C     C_R   0.034802 0.485890 0.964099 0.512879
C72   C     C_R   0.965841 0.514301 0.036783 0.512744
N9    N     N_2   0.406804 0.127545 0.865398 -0.551044
H33   H     H_    0.389149 0.097846 0.822071 0.247713
C73   C     C_3   0.405652 0.323149 0.879827 -0.486223
H34   H     H_    0.417762 0.406047 0.843805 0.187157
H35   H     H_    0.431472 0.353208 0.922886 0.201486
H36   H     H_    0.367143 0.365785 0.883363 0.202753
N10   N     N_2   0.582613 0.084871 0.146994 -0.548325
H37   H     H_    0.604345 0.035714 0.186116 0.240633
C74   C     C_3   0.565543 0.273213 0.152623 -0.526952
H38   H     H_    0.549032 0.284944 0.193661 0.196188
H39   H     H_    0.536441 0.311011 0.113164 0.208769
H40   H     H_    0.597344 0.371822 0.156372 0.198666
N11   N     N_2   0.092903 0.625163 0.635119 -0.550865
H41   H     H_    0.110611 0.594557 0.678362 0.247329
C75   C     C_3   0.093742 0.821274 0.621240 -0.486989
H42   H     H_    0.081501 0.902645 0.657497 0.187180
H43   H     H_    0.067873 0.852033 0.578267 0.201542
H44   H     H_    0.132182 0.865097 0.617821 0.202894
N12   N     N_2   0.917404 0.588754 0.353253 -0.548187
H45   H     H_    0.895764 0.540737 0.313917 0.240470
C76   C     C_3   0.934278 0.777725 0.348376 -0.525837
H46   H     H_    0.950812 0.791579 0.307408 0.195838
H47   H     H_    0.963317 0.814516 0.388004 0.208628
H48   H     H_    0.902369 0.875767 0.344980 0.198736

loop_
_geom_bond_atom_site_label_1
_geom_bond_atom_site_label_2
_ccdc_geom_bond_type
N1    C70   A    
O17   V3    S    
C48   C52   A    
O1    C5    A    
C76   H46   S    
C56   C71   S    
C47   H19   S    
O19   V1    S    
C9    C21   A    
O12   C8    A    
O3    C7    A    
C10   C18   A    
C48   C68   A    
O15   V3    S    
C74   H38   S    
C25   C33   A    
C33   C38   A    
C5    C12   S    
C53   C70   S    
O7    C3    A    
C6    C11   S    
N9    C73   S    
C35   C40   A    
C26   C30   A    
C58   C62   A    
C36   C39   A    
C40   C44   A    
C57   C61   A    
C14   C18   A    
N7    C71   A    
N11   C75   S    
C58   H26   S    
O4    C8    A    
C73   H36   S    
C51   H23   S    
N12   C76   S    
C50   H22   S    
N10   H37   S    
O1    V3    S    
C1    C68   S    
O13   V1    S    
O2    V4    S    
C75   H44   S    
O3    V1    S    
C40   H16   S    
C46   C50   A    
C17   H6    S    
C45   C49   A    
C1    O15   A    
C15   C31   A    
C4    C65   S    
C48   H20   S    
N2    C69   A    
C2    O16   A    
C16   C32   A    
C47   C51   A    
O2    C6    A    
C75   H42   S    
C16   H12   S    
C45   C65   A    
C10   C22   A    
C11   C19   A    
C16   C20   A    
C43   H3    S    
N8    C72   A    
C13   C29   A    
C34   C37   A    
O11   C7    A    
C38   H14   S    
C11   C23   A    
C35   C36   A    
C76   H47   S    
C24   N11   S    
N6    C70   A    
O10   V2    S    
N4    N8    A    
C74   H39   S    
C51   C55   A    
O5    V1    S    
C53   C57   A    
C39   C43   A    
O7    V3    S    
C38   C42   A    
O8    V4    S    
C63   C67   A    
N3    C72   A    
C2    C67   S    
C46   H18   S    
N4    C71   A    
C49   C53   A    
C45   H17   S    
O18   V4    S    
C23   C27   A    
C14   H10   S    
C32   C44   A    
C13   H9    S    
C64   H32   S    
C39   H15   S    
C44   H4    S    
C26   C34   A    
C20   H7    S    
C55   C72   S    
O5    C1    A    
N1    N5    A    
C31   C43   A    
C14   C30   A    
C21   C25   A    
O8    C4    A    
C7    C10   S    
O9    C5    A    
C59   C63   A    
C62   H30   S    
C22   N9    S    
C61   H29   S    
O6    V2    S    
C76   H48   S    
C63   H31   S    
C52   C56   A    
O14   V2    S    
N5    C69   A    
C12   C20   A    
C3    C66   S    
C27   C35   A    
C49   H21   S    
C56   C60   A    
C74   H40   S    
C29   C41   A    
O16   V4    S    
O9    V1    S    
C19   H8    S    
N10   C74   S    
C57   H25   S    
C3    O13   A    
C18   H5    S    
C64   C68   A    
C59   H27   S    
O6    C2    A    
C15   C19   A    
C73   H34   S    
O11   V3    S    
C30   C42   A    
O12   V4    S    
N9    H33   S    
C22   C26   A    
C8    C9    S    
C9    C17   A    
C60   C64   A    
O20   V2    S    
C54   C69   S    
C37   H13   S    
N11   H41   S    
C47   C67   A    
C73   H35   S    
O10   C6    A    
C33   C34   A    
C42   H2    S    
C23   N12   S    
C41   H1    S    
C52   H24   S    
C12   C24   A    
C27   C31   A    
C75   H43   S    
C37   C41   A    
C13   C17   A    
C46   C66   A    
N3    N7    A    
C25   C29   A    
C62   C66   A    
C60   H28   S    
C24   C28   A    
C61   C65   A    
C50   C54   A    
C28   C36   A    
C54   C58   A    
C4    O14   A    
N12   H45   S    
C21   N10   S    
N2    N6    A    
C55   C59   A    
O4    V2    S    
C28   C32   A    
C15   H11   S    
