data_mof_unit_49634.cif
_audit_creation_date              2012-12-10T17:03:37-0500
_audit_creation_method            fapswitch 2.2
_symmetry_space_group_name_H-M    P1
_symmetry_Int_Tables_number       1
_space_group_crystal_system       triclinic
_cell_length_a                    10.035836
_cell_length_b                    10.748889
_cell_length_c                    13.129931
_cell_angle_alpha                 90.006896
_cell_angle_beta                  69.981239
_cell_angle_gamma                 89.981903
_cell_volume                      1330.80239708

loop_
_atom_site_label
_atom_site_type_symbol
_atom_type_description
_atom_site_fract_x
_atom_site_fract_y
_atom_site_fract_z
_atom_type_partial_charge
C1    C     C_R   0.498847 0.737278 0.502826 0.939999
C2    C     C_R   0.369640 0.486742 0.822209 -0.168552
C3    C     C_2   0.608210 0.067044 0.508397 -0.165513
C4    C     C_R   0.421147 0.494095 0.704111 0.868221
C5    C     C_2   0.505291 0.131097 0.489205 -0.330661
C6    C     C_2   0.611745 0.933152 0.501963 -0.156235
C7    C     C_2   0.493619 0.868712 0.514217 -0.336713
C8    C     C_2   0.108473 0.447506 0.424818 -0.128296
C9    C     C_2   0.960162 0.454699 0.421349 -0.150117
C10   C     C_R   0.500980 0.262701 0.498071 0.923002
C11   C     C_R   0.578813 0.499120 0.295862 0.869126
C12   C     C_R   0.432074 0.477994 0.984757 0.067692
C13   C     C_R   0.765193 0.364429 0.021537 -0.187204
C14   C     C_R   0.626146 0.480424 0.179564 -0.057586
C15   C     C_R   0.238595 0.540744 0.880993 -0.179004
C16   C     C_R   0.200821 0.558870 0.992138 0.154423
C17   C     C_R   0.298167 0.530684 0.043554 -0.259656
C18   C     C_R   0.459230 0.441855 0.876531 0.087965
C19   C     C_R   0.539867 0.459442 0.029853 0.091777
C20   C     C_R   0.661414 0.387070 0.974208 0.171191
C21   C     C_R   0.675879 0.336448 0.873382 -0.260642
C22   C     C_R   0.576183 0.363524 0.824901 -0.190445
C23   C     C_R   0.530969 0.512924 0.128353 -0.256547
C24   C     C_R   0.745888 0.408711 0.125447 -0.196505
H1    H     H_    0.819793 0.381794 0.165289 0.143774
H2    H     H_    0.857569 0.308156 0.980292 0.139221
H3    H     H_    0.446556 0.576546 0.169762 0.149792
H4    H     H_    0.167544 0.572656 0.840191 0.166661
H5    H     H_    0.264640 0.547587 0.129697 0.133244
H6    H     H_    0.590633 0.321021 0.747140 0.167921
H7    H     H_    0.693219 0.113015 0.527477 0.172168
H8    H     H_    0.083094 0.694645 0.086861 0.185198
H9    H     H_    0.013139 0.550642 0.114320 0.182671
H10   H     H_    0.423951 0.088219 0.463925 0.151211
H11   H     H_    0.713287 0.887665 0.487546 0.174314
H12   H     H_    0.389690 0.911259 0.535629 0.150960
H13   H     H_    0.186978 0.398017 0.359489 0.163885
H14   H     H_    0.076409 0.551522 0.557307 0.160026
H15   H     H_    0.942803 0.418466 0.349784 0.153116
H16   H     H_    0.866802 0.526298 0.569228 0.170958
H17   H     H_    0.765502 0.277606 0.831112 0.148727
N1    N     N_2   0.148270 0.498670 0.498870 -0.189789
N2    N     N_2   0.852610 0.498640 0.498840 -0.191009
N3    N     N_3   0.065710 0.611825 0.051550 -0.456285
O1    O     O_R   0.386950 0.680940 0.500020 -0.615035
O2    O     O_R   0.613110 0.680900 0.499980 -0.605133
O3    O     O_R   0.330780 0.500000 0.653640 -0.613376
O4    O     O_R   0.556930 0.499960 0.653610 -0.610538
O5    O     O_R   0.386890 0.319100 0.500020 -0.609089
O6    O     O_R   0.613050 0.319060 0.499980 -0.616022
O7    O     O_R   0.443070 0.500040 0.346390 -0.612267
O8    O     O_R   0.669220 0.500000 0.346360 -0.616015
Zn1   Zn    Zn3+2 0.349000 0.500030 0.500020 0.937224
Zn2   Zn    Zn3+2 0.651000 0.499970 0.499980 0.933767

loop_
_geom_bond_atom_site_label_1
_geom_bond_atom_site_label_2
_ccdc_geom_bond_type
C12   C17   A    
C14   C23   A    
C2    C4    S    
C6    C7    D    
C23   H3    S    
C2    C18   A    
C17   H5    S    
C7    H12   S    
C16   N3    S    
N2    Zn2   S    
C19   C23   A    
C19   C20   A    
O3    Zn1   S    
C3    C6    S    
C5    H10   S    
O2    Zn2   S    
H8    N3    S    
O1    Zn1   S    
C5    C10   S    
C18   C22   A    
C21   C22   A    
C6    H11   S    
C3    H7    S    
C2    C15   A    
C10   O5    A    
C1    O1    A    
C15   H4    S    
O6    Zn2   S    
C21   H17   S    
C12   C19   A    
C8    N1    D    
H14   N1    S    
N1    Zn1   S    
C13   H2    S    
C11   C14   S    
O5    Zn1   S    
C1    O2    A    
C9    N2    D    
C11   O7    A    
C8    H13   S    
C14   C24   A    
C15   C16   A    
C10   O6    A    
C9    H15   S    
C24   H1    S    
C4    O4    A    
C12   C18   A    
O4    Zn2   S    
C16   C17   A    
C11   O8    A    
C22   H6    S    
C13   C20   A    
O7    Zn1   S    
C20   C21   A    
C1    C7    S    
H9    N3    S    
H16   N2    S    
C13   C24   A    
O8    Zn2   S    
C8    C9    S    
C3    C5    D    
C4    O3    A    
