data_mof_unit_60879.cif
_audit_creation_date              2012-12-10T16:43:15-0500
_audit_creation_method            fapswitch 2.2
_symmetry_space_group_name_H-M    P1
_symmetry_Int_Tables_number       1
_space_group_crystal_system       triclinic
_cell_length_a                    30.196152
_cell_length_b                    30.989909
_cell_length_c                    21.806148
_cell_angle_alpha                 90.004791
_cell_angle_beta                  134.648229
_cell_angle_gamma                 89.993295
_cell_volume                      14517.3027041

loop_
_atom_site_label
_atom_site_type_symbol
_atom_type_description
_atom_site_fract_x
_atom_site_fract_y
_atom_site_fract_z
_atom_type_partial_charge
C1    C     C_R   0.690013 0.808881 0.882689 0.832162
C2    C     C_R   0.310228 0.808647 0.117782 0.832267
C3    C     C_R   0.189783 0.308646 0.882218 0.831621
C4    C     C_R   0.809990 0.308880 0.117311 0.831611
C5    C     C_R   0.452533 0.786597 0.997915 0.111561
C6    C     C_R   0.547585 0.786592 0.002351 0.110596
C7    C     C_R   0.954302 0.286670 0.001482 0.111644
C8    C     C_R   0.048951 0.286660 0.005070 0.112199
C9    C     C_R   0.477249 0.668506 0.000538 -0.198542
C10   C     C_R   0.522552 0.668506 0.999053 -0.198734
C11   C     C_R   0.971635 0.168803 0.989445 -0.199608
C12   C     C_R   0.017519 0.168840 0.989057 -0.198136
C13   C     C_R   0.523992 0.825641 0.001902 -0.188380
C14   C     C_R   0.476236 0.825645 0.998596 -0.189220
C15   C     C_R   0.026529 0.325680 0.006992 -0.190532
C16   C     C_R   0.979300 0.325693 0.004754 -0.189700
C17   C     C_2   0.561899 0.874518 0.681500 -0.156542
C18   C     C_2   0.403139 0.909218 0.249295 -0.152129
C19   C     C_2   0.096752 0.409156 0.750590 -0.151675
C20   C     C_2   0.938115 0.374509 0.318502 -0.155354
C21   C     C_2   0.591165 0.905031 0.677346 -0.308626
C22   C     C_2   0.402427 0.911384 0.309987 -0.307291
C23   C     C_2   0.097581 0.411386 0.690020 -0.310561
C24   C     C_2   0.908849 0.405022 0.322670 -0.310386
C25   C     C_2   0.596662 0.838099 0.742243 -0.157575
C26   C     C_2   0.362327 0.878840 0.176468 -0.153761
C27   C     C_2   0.137574 0.378795 0.823443 -0.155239
C28   C     C_2   0.903350 0.338093 0.257754 -0.157165
C29   C     C_2   0.655295 0.843226 0.818921 -0.309085
C30   C     C_2   0.347393 0.840563 0.186416 -0.308022
C31   C     C_2   0.152640 0.340556 0.813578 -0.307045
C32   C     C_2   0.844713 0.343224 0.181082 -0.309804
C33   C     C_R   0.132525 0.749416 0.078141 -0.241038
C34   C     C_R   0.867471 0.749402 0.921850 -0.240371
C35   C     C_R   0.632528 0.249400 0.078149 -0.237297
C36   C     C_R   0.367468 0.249388 0.921843 -0.238175
C37   C     C_R   0.115837 0.750704 0.999784 -0.057886
C38   C     C_R   0.884159 0.750696 0.000207 -0.058751
C39   C     C_R   0.615841 0.250702 0.999795 -0.052328
C40   C     C_R   0.384155 0.250694 0.000197 -0.051530
C41   C     C_R   0.053006 0.752283 0.921495 -0.231601
C42   C     C_R   0.946989 0.752282 0.078495 -0.232186
C43   C     C_R   0.553011 0.252292 0.921509 -0.233679
C44   C     C_R   0.446985 0.252292 0.078482 -0.232783
C45   C     C_R   0.664596 0.749384 0.000482 0.860537
C46   C     C_R   0.335407 0.749386 0.999528 0.860793
C47   C     C_R   0.164533 0.249473 0.000350 0.858436
C48   C     C_R   0.835411 0.249411 0.999551 0.862826
C49   C     C_R   0.006423 0.751709 0.920961 0.103901
C50   C     C_R   0.993571 0.751711 0.079029 0.104343
C51   C     C_R   0.506427 0.251708 0.920968 0.108287
C52   C     C_R   0.493569 0.251711 0.079022 0.107520
C53   C     C_R   0.023263 0.751070 0.999949 0.061742
C54   C     C_R   0.976731 0.751068 0.000041 0.061770
C55   C     C_R   0.523265 0.251061 0.999953 0.061107
C56   C     C_R   0.476731 0.251059 0.000038 0.061083
C57   C     C_R   0.086594 0.750334 0.078847 0.109780
C58   C     C_R   0.913401 0.750322 0.921143 0.108863
C59   C     C_R   0.586596 0.250320 0.078852 0.108154
C60   C     C_R   0.413400 0.250311 0.921139 0.109391
C61   C     C_R   0.943366 0.751548 0.842955 -0.202785
C62   C     C_R   0.056628 0.751559 0.157035 -0.203326
C63   C     C_R   0.443370 0.251549 0.842959 -0.205617
C64   C     C_R   0.556625 0.251559 0.157031 -0.204753
C65   C     C_R   0.897165 0.750530 0.843045 -0.206518
C66   C     C_R   0.102830 0.750546 0.156945 -0.207766
C67   C     C_R   0.397166 0.250522 0.843044 -0.206337
C68   C     C_R   0.602830 0.250535 0.156947 -0.204789
C69   C     C_2   0.939197 0.623837 0.316177 -0.268199
C70   C     C_2   0.060803 0.623828 0.683854 -0.269676
C71   C     C_2   0.406817 0.091819 0.252383 -0.273486
C72   C     C_2   0.593066 0.091895 0.747503 -0.273124
C73   C     C_2   0.909717 0.595544 0.323797 -0.350313
C74   C     C_2   0.090282 0.595533 0.676224 -0.349240
C75   C     C_2   0.402183 0.088089 0.308946 -0.348319
C76   C     C_2   0.597804 0.088091 0.691056 -0.349611
C77   C     C_2   0.905890 0.661260 0.256734 0.430926
C78   C     C_2   0.094105 0.661253 0.743289 0.430815
C79   C     C_2   0.365706 0.121509 0.177524 0.438985
C80   C     C_2   0.634177 0.121572 0.822380 0.436978
C81   C     C_2   0.845986 0.656884 0.181559 -0.322609
C82   C     C_2   0.154017 0.656882 0.818448 -0.323118
C83   C     C_2   0.348340 0.159164 0.186138 -0.327601
C84   C     C_2   0.651676 0.159176 0.813852 -0.321633
C85   C     C_R   0.058039 0.559715 0.615469 0.869070
C86   C     C_R   0.941960 0.559717 0.384537 0.873096
C87   C     C_R   0.560034 0.057741 0.619400 0.875580
C88   C     C_R   0.439964 0.057742 0.380603 0.871644
C89   C     C_R   0.810333 0.691120 0.117331 0.900122
C90   C     C_R   0.189667 0.691120 0.882670 0.900128
C91   C     C_R   0.310527 0.191299 0.117699 0.895211
C92   C     C_R   0.689478 0.191302 0.882300 0.900968
C93   C     C_R   0.558106 0.940289 0.615489 0.844766
C94   C     C_R   0.439914 0.942249 0.380600 0.840032
C95   C     C_R   0.060089 0.442250 0.619401 0.843976
C96   C     C_R   0.941899 0.440287 0.384516 0.847909
C97   C     C_R   0.835772 0.750185 0.000136 0.808995
C98   C     C_R   0.164226 0.750188 0.999861 0.808808
C99   C     C_R   0.335770 0.250186 0.000131 0.808444
C100  C     C_R   0.664229 0.250188 0.999866 0.808802
C101  C     C_R   0.404977 0.786703 0.995029 -0.333477
C102  C     C_R   0.595137 0.786692 0.005229 -0.333216
C103  C     C_R   0.906698 0.286814 0.998515 -0.335490
C104  C     C_R   0.095145 0.286829 0.005223 -0.334707
C105  C     C_R   0.383326 0.747936 0.998732 -0.093606
C106  C     C_R   0.616681 0.747931 0.001294 -0.095230
C107  C     C_R   0.883267 0.247996 0.998656 -0.093396
C108  C     C_R   0.116682 0.248076 0.001265 -0.094996
C109  C     C_R   0.408673 0.708160 0.004727 0.342114
C110  C     C_R   0.591231 0.708164 0.995082 0.341705
C111  C     C_R   0.906443 0.208131 0.000381 0.341434
C112  C     C_R   0.093694 0.208195 0.999807 0.346000
C113  C     C_R   0.454300 0.707454 0.002345 0.012478
C114  C     C_R   0.545605 0.707456 0.997466 0.012472
C115  C     C_R   0.952023 0.207524 0.997863 0.009912
C116  C     C_R   0.045810 0.207558 0.997806 0.008492
C117  C     C_R   0.476735 0.746945 0.000172 0.037988
C118  C     C_R   0.523276 0.746944 0.999866 0.037958
C119  C     C_R   0.976962 0.247014 0.000646 0.039215
C120  C     C_R   0.024106 0.247018 0.001498 0.038431
Cu1   Cu    Cu3+1 0.719490 0.719480 0.938970 0.979154
Cu2   Cu    Cu3+1 0.280510 0.719480 0.061030 0.980178
Cu3   Cu    Cu3+1 0.219490 0.219480 0.938970 1.023945
Cu4   Cu    Cu3+1 0.780510 0.219480 0.061030 1.014590
Cu5   Cu    Cu3+1 0.780480 0.780500 0.060980 0.993165
Cu6   Cu    Cu3+1 0.219520 0.780500 0.939020 0.992446
Cu7   Cu    Cu3+1 0.280480 0.280500 0.060980 0.951791
Cu8   Cu    Cu3+1 0.719520 0.280500 0.939020 0.955241
Cu9   Cu    Cu3+1 0.455530 0.999980 0.499990 0.954223
Cu10  Cu    Cu3+1 0.544470 0.999980 0.500010 0.958083
Cu11  Cu    Cu3+1 0.955530 0.499980 0.499990 0.955429
Cu12  Cu    Cu3+1 0.044470 0.499980 0.500010 0.954308
H1    H     H_    0.385846 0.817098 0.992385 0.163230
H2    H     H_    0.614348 0.817084 0.008050 0.166417
H3    H     H_    0.888847 0.317219 0.998460 0.164628
H4    H     H_    0.113816 0.317242 0.006982 0.162945
H5    H     H_    0.040533 0.752935 0.861164 0.161626
H6    H     H_    0.959463 0.752939 0.138827 0.161545
H7    H     H_    0.540536 0.252964 0.861180 0.145363
H8    H     H_    0.459460 0.252968 0.138811 0.145721
H9    H     H_    0.848731 0.750102 0.782049 0.147473
H10   H     H_    0.151264 0.750124 0.217941 0.145822
H11   H     H_    0.348733 0.250093 0.782046 0.145675
H12   H     H_    0.651263 0.250113 0.217944 0.147801
H13   H     H_    0.989002 0.620874 0.357026 0.169977
H14   H     H_    0.010998 0.620868 0.643010 0.170166
H15   H     H_    0.438901 0.071345 0.258349 0.167764
H16   H     H_    0.560888 0.071489 0.741431 0.170324
H17   H     H_    0.861408 0.600726 0.289545 0.156204
H18   H     H_    0.138590 0.600711 0.710472 0.156751
H19   H     H_    0.365994 0.105244 0.298561 0.154021
H20   H     H_    0.634064 0.105188 0.701537 0.157399
H21   H     H_    0.823457 0.625554 0.162333 0.114222
H22   H     H_    0.176556 0.625553 0.837673 0.114201
H23   H     H_    0.367265 0.168813 0.248679 0.106889
H24   H     H_    0.632852 0.168802 0.751359 0.107189
H25   H     H_    0.460158 0.637497 0.999119 0.155063
H26   H     H_    0.539560 0.637495 0.000294 0.154966
H27   H     H_    0.950906 0.138092 0.980939 0.157468
H28   H     H_    0.029405 0.138167 0.980098 0.158471
H29   H     H_    0.542131 0.856215 0.003349 0.144705
H30   H     H_    0.458180 0.856221 0.997328 0.143361
H31   H     H_    0.045179 0.356245 0.009470 0.142689
H32   H     H_    0.962295 0.356263 0.005592 0.144079
H33   H     H_    0.511529 0.874920 0.636832 0.162649
H34   H     H_    0.431501 0.931462 0.250414 0.161178
H35   H     H_    0.068273 0.431336 0.749356 0.163705
H36   H     H_    0.988484 0.374912 0.363155 0.162189
H37   H     H_    0.676944 0.874899 0.839309 0.156655
H38   H     H_    0.367796 0.830424 0.249511 0.153156
H39   H     H_    0.132341 0.330432 0.750527 0.153372
H40   H     H_    0.823062 0.374899 0.160703 0.155812
O1    O     O_R   0.679710 0.768740 0.859430 -0.587808
O2    O     O_R   0.320290 0.768740 0.140570 -0.594437
O3    O     O_R   0.179710 0.268740 0.859430 -0.595002
O4    O     O_R   0.820290 0.268740 0.140570 -0.589063
O5    O     O_R   0.082020 0.544510 0.588970 -0.590017
O6    O     O_R   0.917980 0.544510 0.411030 -0.590279
O7    O     O_R   0.582020 0.044510 0.588970 -0.586248
O8    O     O_R   0.417980 0.044510 0.411030 -0.587682
O9    O     O_R   0.506970 0.955460 0.589020 -0.584067
O10   O     O_R   0.493030 0.955460 0.410980 -0.583133
O11   O     O_R   0.006970 0.455460 0.589020 -0.580133
O12   O     O_R   0.993030 0.455460 0.410980 -0.580751
O13   O     O_R   0.582050 0.955480 0.588990 -0.585449
O14   O     O_R   0.417950 0.955480 0.411010 -0.590033
O15   O     O_R   0.082050 0.455480 0.588990 -0.590549
O16   O     O_R   0.917950 0.455480 0.411010 -0.586188
O17   O     O_R   0.731220 0.820270 0.962460 -0.590505
O18   O     O_R   0.268780 0.820270 0.037540 -0.583909
O19   O     O_R   0.231220 0.320270 0.962460 -0.583573
O20   O     O_R   0.768780 0.320270 0.037540 -0.589964
O21   O     O_R   0.659370 0.724200 0.948480 -0.549913
O22   O     O_R   0.340630 0.724200 0.051520 -0.546878
O23   O     O_R   0.159370 0.224200 0.948480 -0.539537
O24   O     O_R   0.840630 0.224200 0.051520 -0.553322
O25   O     O_R   0.710880 0.775730 0.051510 -0.602214
O26   O     O_R   0.289120 0.775730 0.948490 -0.605134
O27   O     O_R   0.210880 0.275730 0.051510 -0.606936
O28   O     O_R   0.789120 0.275730 0.948490 -0.600613
O29   O     O_R   0.768760 0.679710 0.037490 -0.590790
O30   O     O_R   0.231240 0.679710 0.962510 -0.590898
O31   O     O_R   0.268760 0.179710 0.037490 -0.513836
O32   O     O_R   0.731240 0.179710 0.962510 -0.514079
O33   O     O_R   0.820270 0.731240 0.140520 -0.531690
O34   O     O_R   0.179730 0.731240 0.859480 -0.531794
O35   O     O_R   0.320270 0.231240 0.140520 -0.608940
O36   O     O_R   0.679730 0.231240 0.859480 -0.608595
O37   O     O_R   0.789100 0.724240 0.948440 -0.591088
O38   O     O_R   0.210900 0.724240 0.051560 -0.592581
O39   O     O_R   0.289100 0.224240 0.948440 -0.579633
O40   O     O_R   0.710900 0.224240 0.051560 -0.578123
O41   O     O_R   0.840600 0.775770 0.051470 -0.579719
O42   O     O_R   0.159400 0.775770 0.948530 -0.578253
O43   O     O_R   0.340600 0.275770 0.051470 -0.591244
O44   O     O_R   0.659400 0.275770 0.948530 -0.592753
O45   O     O_R   0.006940 0.544490 0.589000 -0.584161
O46   O     O_R   0.993060 0.544490 0.411000 -0.580322
O47   O     O_R   0.506940 0.044490 0.589000 -0.581067
O48   O     O_R   0.493060 0.044490 0.411000 -0.583621
H41   H     H_    0.929802 0.751905 0.781896 0.150651
H42   H     H_    0.070192 0.751920 0.218094 0.150064
H43   H     H_    0.429807 0.251914 0.781902 0.146420
H44   H     H_    0.570188 0.251928 0.218088 0.147518
O49   O     O_3   0.937006 0.699411 0.275239 -0.714024
H45   H     H_    0.980194 0.696512 0.332770 0.319169
O50   O     O_3   0.062980 0.699403 0.724794 -0.713880
H46   H     H_    0.019787 0.696501 0.667275 0.319363
O51   O     O_3   0.348748 0.112139 0.101341 -0.705211
H47   H     H_    0.365670 0.083317 0.107223 0.318657
O52   O     O_3   0.650994 0.112255 0.898479 -0.705578
H48   H     H_    0.633977 0.083469 0.892538 0.320076
O53   O     O_3   0.386327 0.670843 0.009715 -0.726050
H49   H     H_    0.421757 0.650929 0.050548 0.318011
O54   O     O_3   0.613475 0.670851 0.989888 -0.726088
H50   H     H_    0.577988 0.651000 0.948926 0.317392
O55   O     O_3   0.882194 0.170761 0.001735 -0.723737
H51   H     H_    0.916088 0.149271 0.038167 0.319424
O56   O     O_3   0.119861 0.170872 0.002066 -0.721511
H52   H     H_    0.122418 0.149305 0.037917 0.314190
H53   H     H_    0.640491 0.902066 0.715224 0.155553
H54   H     H_    0.369098 0.892553 0.303760 0.153015
H55   H     H_    0.131000 0.392610 0.696354 0.152687
H56   H     H_    0.859527 0.402054 0.284808 0.154465
H57   H     H_    0.572618 0.807653 0.725773 0.163114
H58   H     H_    0.347529 0.887005 0.115868 0.161476
H59   H     H_    0.152257 0.386932 0.883978 0.161012
H60   H     H_    0.927395 0.307643 0.274215 0.162956
H61   H     H_    0.181288 0.748527 0.138431 0.144180
H62   H     H_    0.818707 0.748507 0.861560 0.146471
H63   H     H_    0.681291 0.248504 0.138440 0.145921
H64   H     H_    0.318705 0.248487 0.861553 0.143419

loop_
_geom_bond_atom_site_label_1
_geom_bond_atom_site_label_2
_ccdc_geom_bond_type
C71   H15   S    
C55   C56   A    
C77   O49   S    
C55   C59   A    
C47   O27   A    
C42   H6    S    
C69   H13   S    
C4    O20   A    
C69   C77   S    
O56   H52   S    
C18   C26   S    
C22   H54   S    
C57   C66   A    
C72   C76   D    
C67   H11   S    
C94   O10   A    
C40   C99   S    
C71   C79   S    
C18   H34   S    
Cu10  O13   S    
C11   H27   S    
C99   O39   A    
C53   C54   A    
C16   H32   S    
C98   O38   A    
C84   C92   S    
C1    O1    A    
C111  O55   S    
C97   O37   A    
Cu4   O32   S    
C37   C41   A    
C64   C68   A    
C15   H31   S    
C69   C73   D    
C114  C118  A    
C96   O12   A    
C38   C42   A    
C27   H59   S    
C24   C96   S    
C86   O46   A    
C116  C120  A    
C46   O26   A    
C48   C107  S    
C70   C78   S    
C76   H20   S    
C45   O25   A    
C15   C16   A    
C46   C105  S    
C86   O6    A    
C81   H21   S    
C64   H44   S    
C35   C59   A    
C28   H60   S    
C41   C49   A    
Cu6   O18   S    
C85   O45   A    
C30   H38   S    
Cu7   O35   S    
Cu6   O42   S    
C106  C110  A    
C90   O34   A    
C52   C56   A    
C93   O9    A    
C28   C32   D    
C79   O51   S    
C20   C24   D    
C60   C67   A    
C75   H19   S    
Cu3   O3    S    
C5    C101  A    
Cu3   O39   S    
C66   H10   S    
C70   C74   D    
Cu5   O41   S    
O54   H50   S    
Cu2   O38   S    
C43   H7    S    
C70   H14   S    
C87   O47   A    
C19   C27   S    
O53   H49   S    
C10   H26   S    
C41   H5    S    
C10   C114  A    
C109  C113  A    
Cu12  O5    S    
Cu4   Cu8   S    
C73   H17   S    
Cu11  O16   S    
Cu6   O26   S    
C31   H39   S    
C62   H42   S    
C32   H40   S    
Cu5   O25   S    
C81   C89   S    
C44   H8    S    
C7    C103  A    
C13   C14   A    
C48   O24   A    
C101  C105  A    
C22   C94   S    
Cu3   O23   S    
C19   H35   S    
Cu2   O22   S    
C38   C97   S    
Cu12  O15   S    
Cu1   O21   S    
C37   C98   S    
Cu11  O6    S    
C33   H61   S    
C92   O32   A    
C46   O22   A    
C63   C67   A    
C17   H33   S    
C25   C29   D    
C20   H36   S    
Cu9   O8    S    
Cu1   O1    S    
C71   C75   D    
C49   C61   A    
C62   C66   A    
C27   C31   D    
C80   C84   D    
C103  H3    S    
C7    C119  A    
C36   C40   A    
C51   C63   A    
C65   H9    S    
C52   C64   A    
C25   H57   S    
C53   C57   A    
C19   C23   D    
C39   C43   A    
Cu4   O40   S    
C72   H16   S    
C100  O40   A    
Cu7   O19   S    
C88   O48   A    
C5    C117  A    
Cu8   O20   S    
C45   O21   A    
C14   H30   S    
C35   C39   A    
C17   C21   D    
Cu8   O28   S    
Cu1   Cu5   S    
O51   H47   S    
C92   O36   A    
C88   O8    A    
C3    O19   A    
C59   C68   A    
C63   H43   S    
C78   C82   D    
C58   C65   A    
Cu3   Cu7   S    
O50   H46   S    
C95   O11   A    
C77   C81   D    
C42   C50   A    
C119  C120  A    
C112  O56   S    
Cu4   O24   S    
C35   H63   S    
C9    H25   S    
C34   H62   S    
C50   C54   A    
C12   H28   S    
Cu10  O48   S    
C8    C104  A    
C76   C87   S    
C5    C14   A    
C4    C32   S    
Cu8   O44   S    
C61   C65   A    
C113  C117  A    
C111  C115  A    
C3    O3    A    
C7    C16   A    
C48   O28   A    
C95   O15   A    
C8    C15   A    
Cu1   O37   S    
Cu5   O17   S    
Cu10  O10   S    
C45   C106  S    
C50   C62   A    
C21   C93   S    
C93   O13   A    
C80   O52   S    
C23   H55   S    
Cu11  Cu12  S    
C90   O30   A    
C110  C114  A    
C104  C108  A    
C56   C60   A    
C11   C115  A    
C110  O54   S    
C8    C120  A    
C103  C107  A    
Cu9   Cu10  S    
C9    C10   A    
C47   O23   A    
C78   O50   S    
C105  C109  A    
C100  O44   A    
C33   C57   A    
C104  H4    S    
Cu12  O46   S    
O49   H45   S    
C34   C38   A    
C107  C111  A    
C2    O18   A    
C36   C60   A    
Cu7   O27   S    
C44   C52   A    
C68   H12   S    
C91   O35   A    
C11   C12   A    
C112  C116  A    
C13   H29   S    
Cu4   O4    S    
C101  H1    S    
C12   C116  A    
C20   C28   S    
C89   O29   A    
C115  C119  A    
C82   C90   S    
C94   O14   A    
Cu3   O31   S    
C33   C37   A    
C2    C30   S    
C17   C25   S    
Cu2   O30   S    
C18   C22   D    
Cu5   O33   S    
Cu1   O29   S    
C72   C80   S    
Cu2   O2    S    
C117  C118  A    
Cu12  O12   S    
C3    C31   S    
C79   C83   D    
C84   H24   S    
Cu7   O43   S    
C1    C29   S    
C99   O43   A    
C43   C51   A    
C49   C53   A    
O55   H51   S    
C83   C91   S    
C89   O33   A    
C36   H64   S    
C23   C95   S    
Cu2   Cu6   S    
C24   H56   S    
C51   C55   A    
C6    C102  A    
C74   C85   S    
C98   O42   A    
Cu9   O47   S    
C61   H41   S    
C73   C86   S    
Cu6   O34   S    
Cu10  O7    S    
C2    O2    A    
C87   O7    A    
C102  H2    S    
C82   H22   S    
C108  C112  A    
C75   C88   S    
C40   C44   A    
C83   H23   S    
C39   C100  S    
C85   O5    A    
C47   C108  S    
C4    O4    A    
C102  C106  A    
C54   C58   A    
O52   H48   S    
C34   C58   A    
C9    C113  A    
C91   O31   A    
C74   H18   S    
C97   O41   A    
Cu8   O36   S    
C29   H37   S    
Cu11  O45   S    
Cu9   O14   S    
C21   H53   S    
Cu9   O9    S    
C96   O16   A    
C6    C118  A    
Cu11  O11   S    
C26   H58   S    
C109  O53   S    
C6    C13   A    
C26   C30   D    
C1    O17   A    
