data_mof_unit_53487.cif
_audit_creation_date              2012-12-11T14:27:04-0500
_audit_creation_method            fapswitch 2.2
_symmetry_space_group_name_H-M    P1
_symmetry_Int_Tables_number       1
_space_group_crystal_system       triclinic
_cell_length_a                    15.008155
_cell_length_b                    14.924964
_cell_length_c                    14.885754
_cell_angle_alpha                 109.998657
_cell_angle_beta                  109.483969
_cell_angle_gamma                 109.190967
_cell_volume                      2558.4204975

loop_
_atom_site_label
_atom_site_type_symbol
_atom_type_description
_atom_site_fract_x
_atom_site_fract_y
_atom_site_fract_z
_atom_type_partial_charge
C1    C     C_R   0.943658 0.761384 0.037934 -0.134608
C2    C     C_R   0.205103 0.803664 0.298907 0.276172
C3    C     C_R   0.968047 0.408136 0.222158 -0.122012
C4    C     C_R   0.780716 0.258542 0.687371 -0.135205
C5    C     C_R   0.313613 0.590816 0.068796 -0.149182
C6    C     C_R   0.041990 0.500687 0.326015 0.146126
C7    C     C_R   0.324574 0.498700 0.052782 0.016101
C8    C     C_R   0.301832 0.865871 0.306186 0.039201
C9    C     C_R   0.928181 0.129861 0.923373 0.088984
C10   C     C_3   0.525649 0.390516 0.059647 0.171165
C11   C     C_3   0.419547 0.388622 0.050575 -0.437491
C12   C     C_R   0.678889 0.235707 0.675451 0.075423
C13   C     C_3   0.631243 0.599619 0.171603 -0.468279
C14   C     C_3   0.534077 0.505655 0.963393 0.093466
C15   C     C_3   0.599172 0.497541 0.064756 0.299927
C16   C     C_R   0.097477 0.589576 0.793527 -0.243435
C17   C     C_3   0.425024 0.498006 0.062070 0.313649
C18   C     C_3   0.527963 0.594575 0.173845 -0.403947
C19   C     C_3   0.433937 0.509371 0.965179 -0.424664
C20   C     C_2   0.384568 0.057063 0.458643 -0.120508
C21   C     C_2   0.393390 0.975130 0.395424 -0.158728
C22   C     C_2   0.481794 0.150729 0.562885 -0.166881
C23   C     C_R   0.075346 0.498113 0.704229 0.127205
C24   C     C_2   0.580688 0.195605 0.572176 0.276356
C25   C     C_2   0.093540 0.417477 0.540706 -0.166797
C26   C     C_2   0.125168 0.504689 0.635391 -0.236493
C27   C     C_2   0.100907 0.429606 0.449241 0.345269
C28   C     C_R   0.700863 0.408691 0.003681 -0.150987
C29   C     C_2   0.079947 0.504996 0.431387 -0.239692
C30   C     C_2   0.927925 0.960589 0.834004 -0.162085
C31   C     C_2   0.875968 0.009604 0.869792 0.276645
C32   C     C_2   0.928124 0.866786 0.844669 -0.113358
C33   C     C_2   0.932023 0.863023 0.934482 -0.194365
C34   C     C_R   0.696829 0.499733 0.061991 0.033344
C35   C     C_R   0.013027 0.407349 0.706412 0.325800
C36   C     C_R   0.788418 0.591445 0.091807 -0.155952
C37   C     C_R   0.688298 0.257026 0.777736 -0.164083
C38   C     C_R   0.034701 0.759126 0.944672 -0.105466
C39   C     C_R   0.965978 0.794128 0.967758 0.114872
C40   C     C_3   0.362048 0.851337 0.163776 -1.050022
C41   C     C_3   0.150111 0.848214 0.354558 -1.067802
C42   C     C_3   0.583379 0.377362 0.157686 -1.036050
C43   C     C_3   0.500409 0.415114 0.848720 -1.044891
C44   C     C_3   0.593355 0.196901 0.475717 -0.992704
C45   C     C_R   0.059765 0.591886 0.314779 -0.170320
C46   C     C_3   0.109902 0.343573 0.368681 -1.007669
C47   C     C_3   0.770474 0.946042 0.864631 -1.003215
C48   C     C_3   0.003808 0.296236 0.657686 -1.105311
C49   C     C_R   0.222041 0.407373 0.976014 -0.125067
C50   C     C_R   0.298944 0.803157 0.210943 0.243282
C51   C     C_R   0.903318 0.195235 0.990199 -0.134466
C52   C     C_R   0.994805 0.195536 0.899934 -0.180373
H1    H     H_    0.894950 0.777732 0.073781 0.096254
H2    H     H_    0.533146 0.675054 0.190685 0.152619
H3    H     H_    0.306571 0.049629 0.444635 0.147933
H4    H     H_    0.158080 0.673541 0.826493 0.116670
H5    H     H_    0.473416 0.984814 0.413749 0.156888
H6    H     H_    0.474095 0.164209 0.635570 0.102296
H7    H     H_    0.044603 0.334244 0.519248 0.161064
H8    H     H_    0.077025 0.567202 0.493123 0.112069
H9    H     H_    0.994190 0.004572 0.824087 0.095153
H10   H     H_    0.946601 0.814427 0.791559 0.123455
H11   H     H_    0.647823 0.323758 0.975402 0.097685
H12   H     H_    0.199308 0.321638 0.939131 0.098391
H13   H     H_    0.919458 0.918813 0.991523 0.154101
H14   H     H_    0.625595 0.251050 0.799196 0.099151
H15   H     H_    0.112766 0.676215 0.381045 0.130523
H16   H     H_    0.361499 0.928130 0.172796 0.262582
H17   H     H_    0.447793 0.871069 0.208615 0.241817
H18   H     H_    0.324492 0.793114 0.074298 0.252436
H19   H     H_    0.013595 0.166893 0.835216 0.092132
H20   H     H_    0.198594 0.884635 0.445310 0.250525
H21   H     H_    0.139112 0.910234 0.334529 0.249275
H22   H     H_    0.066611 0.782772 0.322335 0.253165
H23   H     H_    0.840188 0.166401 0.009770 0.104218
H24   H     H_    0.932327 0.322928 0.200718 0.111920
H25   H     H_    0.531562 0.294534 0.141783 0.253413
H26   H     H_    0.662775 0.384798 0.168589 0.254864
H27   H     H_    0.597535 0.439530 0.236039 0.265829
H28   H     H_    0.501440 0.316594 0.983977 0.109599
H29   H     H_    0.587381 0.585051 0.973310 0.135370
H30   H     H_    0.572818 0.420339 0.841359 0.265941
H31   H     H_    0.449210 0.331606 0.831415 0.247971
H32   H     H_    0.452511 0.426973 0.783143 0.263817
H33   H     H_    0.357653 0.443228 0.885441 0.184430
H34   H     H_    0.378160 0.675029 0.117932 0.122175
H35   H     H_    0.441027 0.588955 0.973896 0.145173
H36   H     H_    0.676083 0.676902 0.173629 0.149180
H37   H     H_    0.652453 0.281883 0.502522 0.245619
H38   H     H_    0.624579 0.141459 0.447121 0.234446
H39   H     H_    0.515383 0.171446 0.405066 0.266685
H40   H     H_    0.178019 0.586933 0.655016 0.133354
H41   H     H_    0.174894 0.330616 0.415149 0.251131
H42   H     H_    0.031484 0.264492 0.317642 0.236730
H43   H     H_    0.132570 0.369380 0.314236 0.258523
H44   H     H_    0.736116 0.855657 0.816843 0.267441
H45   H     H_    0.351062 0.317608 0.968378 0.127964
H46   H     H_    0.783751 0.970225 0.949291 0.232014
H47   H     H_    0.708912 0.965001 0.822584 0.246028
H48   H     H_    0.938280 0.243936 0.569611 0.244285
H49   H     H_    0.083077 0.304829 0.666521 0.261158
H50   H     H_    0.982582 0.253873 0.702063 0.258644
H51   H     H_    0.816237 0.676690 0.145779 0.089368
H52   H     H_    0.070915 0.773954 0.895817 0.094212
H53   H     H_    0.802537 0.253854 0.624569 0.134978
H54   H     H_    0.403496 0.374920 0.113921 0.177472
H55   H     H_    0.686693 0.605039 0.247225 0.186367
H56   H     H_    0.525080 0.582698 0.242857 0.171650
N1    N     N_R   0.993980 0.704500 0.053430 -0.038424
N2    N     N_R   0.053690 0.556380 0.849240 -0.051739
N3    N     N_R   0.790390 0.443640 0.997160 -0.034670
N4    N     N_R   0.998260 0.443670 0.792970 -0.059686
N5    N     N_R   0.845830 0.556350 0.053430 -0.030300
N6    N     N_R   0.792820 0.295510 0.849240 -0.035440
N7    N     N_R   0.051260 0.704510 0.997160 -0.040205
N8    N     N_R   0.001740 0.556330 0.207030 -0.038332
N9    N     N_R   0.154170 0.443650 0.946570 -0.032480
N10   N     N_R   0.207180 0.704490 0.150760 -0.070602
N11   N     N_R   0.948740 0.295490 0.002840 -0.040755
N12   N     N_R   0.006020 0.295500 0.946570 -0.034360
N13   N     N_R   0.149890 0.704480 0.207030 -0.073419
N14   N     N_R   0.946310 0.443620 0.150760 -0.045033
N15   N     N_R   0.209610 0.556360 0.002840 -0.033287
N16   N     N_R   0.850110 0.295520 0.792970 -0.040474
Ni1   Ni    Ni4+2 0.997880 0.629240 0.129060 0.208799
Ni2   Ni    Ni4+2 0.002120 0.370760 0.870940 0.207571
Ni3   Ni    Ni4+2 0.129260 0.629260 0.000000 0.206882
Ni4   Ni    Ni4+2 0.870740 0.370740 0.000000 0.206925

loop_
_geom_bond_atom_site_label_1
_geom_bond_atom_site_label_2
_ccdc_geom_bond_type
C6    C45   A    
C27   C29   D    
C43   H31   S    
C9    C51   A    
C13   H55   S    
C3    C6    A    
C16   N2    A    
N13   Ni1   S    
C33   C39   S    
C47   H46   S    
N8    N14   A    
C13   C18   S    
C36   H51   S    
C51   H23   S    
C18   H2    S    
C19   H35   S    
C10   C15   S    
C30   C31   D    
N12   Ni2   S    
N5    Ni1   S    
C35   C48   S    
C2    C41   S    
C26   H40   S    
C47   H47   S    
C4    N16   A    
C23   C26   S    
C12   C37   A    
C1    H1    S    
C38   H52   S    
C1    N1    A    
C41   H22   S    
C49   N9    A    
C46   H43   S    
C7    C17   S    
C45   H15   S    
C51   N11   A    
C47   H44   S    
C4    C12   A    
N9    Ni2   S    
C15   C34   S    
N4    Ni2   S    
C3    N14   A    
N2    Ni3   S    
N6    N16   A    
N11   Ni4   S    
N7    Ni3   S    
C28   C34   A    
C42   H27   S    
C49   H12   S    
C31   C47   S    
C43   H32   S    
C9    C52   A    
C44   H37   S    
C20   H3    S    
C36   N5    A    
C8    C21   S    
N2    N4    A    
C28   N3    A    
C48   H48   S    
C40   H17   S    
C33   H13   S    
C7    C49   A    
C5    C7    A    
N1    N7    A    
C37   N6    A    
C25   C26   D    
N10   N13   A    
C16   H4    S    
C21   H5    S    
N6    Ni4   S    
C1    C39   A    
N15   Ni3   S    
C46   H42   S    
C29   H8    S    
C48   H50   S    
C37   H14   S    
C11   H54   S    
C17   C18   S    
N3    N5    A    
C3    H24   S    
C44   H39   S    
C40   H18   S    
C41   H20   S    
C5    H34   S    
C52   N12   A    
C27   C46   S    
N1    Ni1   S    
C20   C22   S    
C42   H26   S    
C16   C23   A    
C23   C35   A    
N8    Ni1   S    
C13   C15   S    
C24   C44   S    
C22   C24   D    
N10   Ni3   S    
C8    C50   A    
C44   H38   S    
N16   Ni2   S    
C2    N13   A    
C5    N15   A    
C11   C17   S    
C10   C42   S    
C10   H28   S    
C50   N10   A    
C14   C19   S    
C2    C8    A    
C19   H33   S    
C22   H6    S    
N11   N12   A    
C25   C27   S    
C4    H53   S    
C12   C24   S    
C11   H45   S    
C32   C33   D    
N9    N15   A    
C32   H10   S    
C52   H19   S    
C30   C32   S    
C38   N7    A    
C45   N8    A    
C38   C39   A    
C46   H41   S    
C40   C50   S    
C48   H49   S    
C13   H36   S    
C17   C19   S    
C34   C36   A    
N14   Ni4   S    
C18   H56   S    
C10   C11   S    
C9    C31   S    
C41   H21   S    
C28   H11   S    
C6    C29   S    
C20   C21   D    
C42   H25   S    
C40   H16   S    
C30   H9    S    
N3    Ni4   S    
C43   H30   S    
C14   C15   S    
C25   H7    S    
C14   H29   S    
C35   N4    A    
C14   C43   S    
