data_mof_unit_20520.cif
_audit_creation_date              2012-12-11T14:58:20-0500
_audit_creation_method            fapswitch 2.2
_symmetry_space_group_name_H-M    P1
_symmetry_Int_Tables_number       1
_space_group_crystal_system       triclinic
_cell_length_a                    10.918579
_cell_length_b                    10.973698
_cell_length_c                    18.766402
_cell_angle_alpha                 90.194728
_cell_angle_beta                  90.230796
_cell_angle_gamma                 60.33876
_cell_volume                      1953.88535142

loop_
_atom_site_label
_atom_site_type_symbol
_atom_type_description
_atom_site_fract_x
_atom_site_fract_y
_atom_site_fract_z
_atom_type_partial_charge
C1    C     C_R   0.357901 0.775562 0.398128 0.610998
C2    C     C_R   0.257111 0.438841 0.197265 -0.026145
C3    C     C_R   0.264799 0.451113 0.270316 0.039643
C4    C     C_R   0.414159 0.375637 0.382477 0.594073
C5    C     C_R   0.890618 0.769445 0.371040 0.078610
C6    C     C_R   0.947141 0.629123 0.391576 -0.184054
C7    C     C_R   0.065767 0.524014 0.357097 -0.149805
C8    C     C_R   0.135109 0.559582 0.305269 -0.008274
C9    C     C_R   0.392623 0.361358 0.306235 0.094868
C10   C     C_R   0.905790 0.326351 0.308310 -0.081548
C11   C     C_R   0.952197 0.308995 0.238581 0.318113
C12   C     C_R   0.618399 0.120877 0.157985 -0.043698
C13   C     C_R   0.855453 0.343318 0.182649 -0.019626
C14   C     C_R   0.710843 0.417027 0.195859 -0.164509
C15   C     C_R   0.663793 0.446135 0.265921 0.304836
C16   C     C_R   0.713378 0.416156 0.394856 0.606246
C17   C     C_R   0.761466 0.392271 0.322029 0.006233
C18   C     C_R   0.456410 0.815173 0.287270 -0.137758
C19   C     C_R   0.436524 0.853711 0.215614 -0.137077
C20   C     C_R   0.300065 0.931349 0.188225 0.006991
C21   C     C_R   0.184206 0.975020 0.233773 0.058663
C22   C     C_R   0.203750 0.940242 0.305545 0.423011
C23   C     C_R   0.367488 0.331999 0.159463 0.004711
C24   C     C_R   0.339340 0.851264 0.331377 0.051716
C25   C     C_R   0.370206 0.201144 0.692012 0.087209
C26   C     C_R   0.358616 0.187408 0.764472 -0.102347
C27   C     C_R   0.296130 0.306454 0.808617 0.016048
C28   C     C_R   0.344971 0.767147 0.605203 0.565062
C29   C     C_R   0.231561 0.440466 0.779511 -0.142978
C30   C     C_R   0.243482 0.454786 0.706988 -0.158377
C31   C     C_R   0.319580 0.334919 0.663972 0.062660
C32   C     C_R   0.755618 0.473224 0.730270 -0.127214
C33   C     C_R   0.761230 0.464759 0.803645 0.041553
C34   C     C_R   0.510252 0.262230 0.266874 0.074803
C35   C     C_R   0.809468 0.333186 0.836400 0.054173
C36   C     C_R   0.828942 0.217578 0.794831 0.347407
C37   C     C_R   0.816084 0.229734 0.720826 -0.100787
C38   C     C_R   0.785727 0.356238 0.688228 -0.057417
C39   C     C_R   0.199519 0.830278 0.714381 0.354439
C40   C     C_R   0.368768 0.351265 0.595409 0.572862
C41   C     C_R   0.193217 0.838738 0.787696 -0.073452
C42   C     C_R   0.301912 0.841287 0.826009 -0.040178
C43   C     C_R   0.420033 0.828245 0.790521 -0.185065
C44   C     C_R   0.431717 0.809378 0.717844 -0.218914
C45   C     C_R   0.497991 0.242997 0.194046 -0.007035
C46   C     C_R   0.321148 0.812113 0.678915 0.025331
C47   C     C_R   0.908288 0.317301 0.110953 0.554742
C48   C     C_R   0.330732 0.294333 0.091313 0.553981
C49   C     C_R   0.272390 0.961929 0.112240 0.571310
C50   C     C_R   0.877784 0.311029 0.906152 0.570025
C51   C     C_R   0.292545 0.284509 0.883960 0.546680
C52   C     C_R   0.757536 0.379992 0.612164 0.564038
C53   C     C_R   0.275821 0.893229 0.898253 0.546597
C54   C     C_R   0.826281 0.886880 0.083933 0.443790
C55   C     C_R   0.785058 0.022476 0.060396 0.408454
C56   C     C_R   0.076998 0.699614 0.284032 0.402568
C57   C     C_R   0.683820 0.139374 0.097943 -0.111085
C58   C     C_R   0.955374 0.803358 0.316383 0.516413
C59   C     C_R   0.659907 0.983930 0.180958 -0.088233
C60   C     C_R   0.763802 0.867223 0.144626 0.086864
Cr1   Cr    Cr6+3 0.601770 0.606860 0.505860 1.000978
Cr2   Cr    Cr6+3 0.291380 0.601660 0.495070 1.081934
Cr3   Cr    Cr6+3 0.606880 0.291510 0.499120 1.099149
Cr4   Cr    Cr6+3 0.062440 0.063090 0.008210 1.184608
Cr5   Cr    Cr6+3 0.062880 0.375170 0.998920 1.117058
Cr6   Cr    Cr6+3 0.374700 0.061720 0.992470 1.051402
F1    F     F_    0.090625 0.262177 0.225379 -0.687285
F2    F     F_    0.523892 0.524213 0.279001 -0.661784
F3    F     F_    0.090470 0.987776 0.349179 -0.585641
F4    F     F_    0.867773 0.091413 0.825025 -0.587850
F5    F     F_    0.087313 0.837741 0.678883 -0.624994
F6    F     F_    0.902563 0.936886 0.294495 -0.601911
F7    F     F_    0.924559 0.774684 0.046928 -0.596305
F8    F     F_    0.839026 0.040163 0.999170 -0.553602
F9    F     F_    0.137575 0.735194 0.231088 -0.613751
H1    H     H_    0.900692 0.602240 0.435089 0.170274
H2    H     H_    0.202290 0.559386 0.685683 0.195303
H3    H     H_    0.725388 0.573590 0.706199 0.153138
H4    H     H_    0.832415 0.140234 0.689148 0.195833
H5    H     H_    0.099216 0.851892 0.813844 0.225182
H6    H     H_    0.499857 0.840470 0.818495 0.146413
H7    H     H_    0.526383 0.794944 0.692030 0.136655
H8    H     H_    0.651456 0.243768 0.078429 0.122315
H9    H     H_    0.609074 0.967876 0.226404 0.138028
H10   H     H_    0.157755 0.506305 0.170816 0.179724
H11   H     H_    0.724899 0.174011 0.269037 0.282969
H12   H     H_    0.108214 0.415906 0.373277 0.154993
H13   H     H_    0.657608 0.083155 0.312439 0.300205
H14   H     H_    0.686618 0.854494 0.399290 0.219421
H15   H     H_    0.790263 0.873875 0.460081 0.241974
H16   H     H_    0.909652 0.673454 0.176844 0.268621
H17   H     H_    0.777608 0.679585 0.127256 0.265667
H18   H     H_    0.371238 0.036226 0.644459 0.231798
H19   H     H_    0.533523 0.008124 0.669585 0.239997
H20   H     H_    0.722871 0.668074 0.812980 0.232945
H21   H     H_    0.633664 0.619927 0.870671 0.233306
H22   H     H_    0.981414 0.292271 0.351595 0.171250
H23   H     H_    0.635560 0.453650 0.152358 0.141698
H24   H     H_    0.562712 0.747413 0.306433 0.163751
H25   H     H_    0.526586 0.815237 0.180790 0.163019
H26   H     H_    0.077837 0.032452 0.213044 0.186515
H27   H     H_    0.401600 0.083402 0.786485 0.143102
H28   H     H_    0.178484 0.532815 0.812956 0.153516
N1    N     N_3   0.643987 0.182116 0.301687 -0.537448
N2    N     N_3   0.768297 0.877442 0.405622 -0.574415
N3    N     N_3   0.800944 0.729402 0.168360 -0.635207
N4    N     N_3   0.436751 0.080129 0.646976 -0.600875
N5    N     N_3   0.729738 0.587267 0.845037 -0.570018
O1    O     O_R   0.748800 0.497470 0.428000 -0.552729
O2    O     O_R   0.417600 0.174890 0.067840 -0.523992
O3    O     O_R   0.375320 0.946260 0.070860 -0.510080
O4    O     O_R   0.476420 0.724060 0.429470 -0.536626
O5    O     O_R   0.160600 0.919630 0.926660 -0.439281
O6    O     O_R   0.933060 0.190520 0.936020 -0.389685
O7    O     O_R   0.908880 0.403460 0.925020 -0.483888
O8    O     O_R   0.179600 0.361450 0.918490 -0.486921
O9    O     O_R   0.391510 0.170860 0.907530 -0.507122
O10   O     O_R   0.351130 0.942530 0.922260 -0.516583
O11   O     O_3   0.166667 0.166667 0.999870 -0.308957
O12   O     O_R   0.300070 0.471040 0.567100 -0.519132
O13   O     O_R   0.264580 0.744340 0.416750 -0.448266
O14   O     O_R   0.309380 0.472470 0.418200 -0.519655
O15   O     O_R   0.501710 0.260430 0.414300 -0.489054
O16   O     O_R   0.728090 0.305600 0.428960 -0.446614
O17   O     O_R   0.738760 0.495930 0.588610 -0.521230
O18   O     O_R   0.467110 0.722640 0.578360 -0.525742
O19   O     O_R   0.254530 0.742800 0.577360 -0.437659
O20   O     O_R   0.491670 0.258900 0.574910 -0.473898
O21   O     O_R   0.718780 0.304180 0.577850 -0.490426
O22   O     O_3   0.500010 0.500010 0.500020 -0.310473
O23   O     O_R   0.186690 0.923650 0.086970 -0.452854
O24   O     O_R   0.957250 0.194250 0.084630 -0.505613
O25   O     O_R   0.934970 0.407490 0.085330 -0.493488
O26   O     O_R   0.203780 0.365190 0.067090 -0.471836

loop_
_geom_bond_atom_site_label_1
_geom_bond_atom_site_label_2
_ccdc_geom_bond_type
C25   C31   A    
C48   O2    A    
C23   C45   A    
C27   C29   A    
C41   C42   A    
Cr2   O22   S    
C35   C36   A    
H11   N1    S    
C8    C56   A    
C41   H5    S    
Cr3   O16   S    
C7    C8    A    
C39   C41   A    
C54   C60   A    
C37   H4    S    
C28   C46   S    
C26   C27   A    
C37   C38   A    
Cr4   O11   S    
C5    C58   A    
C18   C24   A    
C52   O21   A    
C48   O26   A    
C36   C37   A    
C18   C19   A    
C44   H7    S    
C42   C53   S    
C30   C31   A    
C38   C52   S    
C10   C17   A    
C40   O20   A    
C31   C40   S    
C29   H28   S    
C2    H10   S    
C50   O7    A    
Cr3   O22   S    
C51   O9    A    
C30   H2    S    
C7    H12   S    
Cr4   O24   S    
C53   O5    A    
C16   C17   S    
Cr6   O9    S    
C57   H8    S    
Cr1   O18   S    
C23   C48   S    
C32   C38   A    
Cr6   O3    S    
C29   C30   A    
C22   F3    S    
Cr2   O12   S    
Cr5   O26   S    
C28   O19   A    
C49   O3    A    
C21   H26   S    
Cr3   O21   S    
H21   N5    S    
Cr1   O1    S    
C59   C60   A    
C56   F9    S    
C13   C14   A    
C47   O25   A    
Cr5   O7    S    
H16   N3    S    
C33   N5    S    
H13   N1    S    
C27   C51   S    
C16   O1    A    
C14   H23   S    
H19   N4    S    
Cr4   O6    S    
C59   H9    S    
C3    C8    S    
H20   N5    S    
C13   C47   S    
C53   O10   A    
C5    N2    S    
C44   C46   A    
C25   C26   A    
C34   N1    S    
C4    O15   A    
C50   O6    A    
C10   H22   S    
C43   C44   A    
C20   C49   S    
C3    C9    A    
C54   F7    S    
C49   O23   A    
Cr4   O23   S    
C52   O17   A    
C35   C50   S    
Cr5   O11   S    
C4    O14   A    
C34   C45   A    
Cr6   O2    S    
Cr1   O22   S    
C39   C46   A    
Cr5   O25   S    
C12   C57   A    
H17   N3    S    
C36   F4    S    
Cr6   O11   S    
C55   C57   A    
C9    C34   A    
C43   H6    S    
Cr5   O8    S    
C22   C24   A    
C42   C43   A    
C11   F1    S    
Cr2   O14   S    
C60   N3    S    
C25   N4    S    
C15   C17   A    
C54   C55   A    
Cr4   O5    S    
C40   O12   A    
Cr3   O20   S    
H15   N2    S    
C12   C45   S    
C1    O4    A    
C18   H24   S    
Cr3   O15   S    
C19   H25   S    
C6    H1    S    
C6    C7    A    
C28   O18   A    
C51   O8    A    
C47   O24   A    
C32   C33   A    
C19   C20   A    
C2    C3    A    
C16   O16   A    
C55   F8    S    
C26   H27   S    
C11   C13   A    
C58   F6    S    
C5    C6    A    
C15   F2    S    
C33   C35   A    
C56   C58   A    
C12   C59   A    
C1    O13   A    
C10   C11   A    
C32   H3    S    
Cr2   O19   S    
C20   C21   A    
C1    C24   S    
Cr6   O10   S    
H14   N2    S    
C2    C23   A    
C39   F5    S    
C14   C15   A    
Cr1   O17   S    
C4    C9    S    
C21   C22   A    
Cr1   O4    S    
Cr2   O13   S    
H18   N4    S    
