data_mof_unit_30927.cif
_audit_creation_date              2012-12-10T20:52:11-0500
_audit_creation_method            fapswitch 2.2
_symmetry_space_group_name_H-M    P1
_symmetry_Int_Tables_number       1
_space_group_crystal_system       triclinic
_cell_length_a                    10.808511
_cell_length_b                    8.911964
_cell_length_c                    8.210922
_cell_angle_alpha                 90.010544
_cell_angle_beta                  90.697692
_cell_angle_gamma                 89.842446
_cell_volume                      790.85592501

loop_
_atom_site_label
_atom_site_type_symbol
_atom_type_description
_atom_site_fract_x
_atom_site_fract_y
_atom_site_fract_z
_atom_type_partial_charge
C1    C     C_R   0.500115 0.218455 0.499971 0.939841
C2    C     C_R   0.739675 0.503077 0.501103 0.863058
C3    C     C_R   0.200421 0.745800 0.055962 -0.163269
C4    C     C_R   0.811747 0.719527 0.036648 -0.136705
C5    C     C_R   0.124110 0.695422 0.178972 -0.127780
C6    C     C_R   0.871569 0.629907 0.921634 -0.117928
C7    C     C_R   0.104982 0.540667 0.200085 0.134908
C8    C     C_R   0.872899 0.673353 0.757633 0.138361
C9    C     C_R   0.153530 0.437197 0.091498 -0.175088
C10   C     C_R   0.813199 0.806892 0.709882 -0.142580
C11   C     C_R   0.230564 0.487609 0.969983 -0.094028
C12   C     C_R   0.500072 0.781523 0.500037 0.925785
C13   C     C_R   0.753079 0.895668 0.825030 -0.115494
C14   C     C_R   0.257240 0.641750 0.955209 -0.108389
C15   C     C_R   0.752442 0.852034 0.988410 -0.112465
C16   C     C_R   0.932372 0.468518 0.363063 -0.286092
C17   C     C_R   0.063061 0.575043 0.632847 -0.261153
C18   C     C_R   0.870955 0.512811 0.502938 -0.080492
C19   C     C_R   0.124907 0.519674 0.497396 -0.085358
C20   C     C_R   0.935273 0.579628 0.634021 0.004903
C21   C     C_R   0.057279 0.490008 0.354741 0.012822
C22   C     C_1   0.500214 0.065300 0.499980 -0.220342
C23   C     C_1   0.500189 0.934629 0.500025 -0.215466
C24   C     C_R   0.259075 0.508091 0.499244 0.860509
H1    H     H_    0.318876 0.682351 0.862732 0.172428
H2    H     H_    0.706983 0.998205 0.787576 0.138385
H3    H     H_    0.882213 0.434184 0.254120 0.162294
H4    H     H_    0.112929 0.630267 0.727870 0.171222
H5    H     H_    0.705934 0.920768 0.077639 0.134449
H6    H     H_    0.218755 0.864429 0.042184 0.133949
H7    H     H_    0.811035 0.686720 0.163236 0.149672
H8    H     H_    0.086093 0.775646 0.264159 0.121133
H9    H     H_    0.915230 0.526071 0.959326 0.128704
H10   H     H_    0.140081 0.317884 0.109032 0.123124
H11   H     H_    0.813018 0.841773 0.583486 0.104107
H12   H     H_    0.273189 0.404336 0.893681 0.170870
N1    N     N_1   0.500020 0.500030 0.073640 -0.036072
N2    N     N_1   0.499980 0.499970 0.926360 -0.064417
O1    O     O_R   0.499990 0.285340 0.636850 -0.621733
O2    O     O_R   0.500010 0.714660 0.363150 -0.614476
O3    O     O_R   0.500010 0.285350 0.363100 -0.614301
O4    O     O_R   0.499990 0.714650 0.636900 -0.624408
O5    O     O_R   0.316750 0.500000 0.636870 -0.661575
O6    O     O_R   0.683250 0.500000 0.363130 -0.638355
O7    O     O_R   0.316770 0.500020 0.363120 -0.595855
O8    O     O_R   0.683230 0.499980 0.636880 -0.606045
Zn1   Zn    Zn3+2 0.499990 0.499990 0.682780 0.952651
Zn2   Zn    Zn3+2 0.500010 0.500010 0.317220 0.976691

loop_
_geom_bond_atom_site_label_1
_geom_bond_atom_site_label_2
_ccdc_geom_bond_type
C12   O2    A    
C3    H6    S    
C12   O4    A    
C16   C21   A    
C2    C18   S    
C5    C7    A    
C6    H9    S    
C5    H8    S    
C4    C15   A    
C19   C24   S    
C1    C22   S    
C7    C21   S    
C2    O8    A    
N1    Zn2   S    
C9    C11   A    
C12   C23   S    
N2    Zn1   S    
C8    C20   S    
C3    C14   A    
C16   H3    S    
C24   O7    A    
O1    Zn1   S    
C11   H12   S    
C19   C21   A    
N1    N2    T    
C15   H5    S    
C18   C20   A    
O4    Zn1   S    
C13   C15   A    
C14   H1    S    
C9    H10   S    
C10   H11   S    
C13   H2    S    
C4    H7    S    
C1    O1    A    
C17   C20   A    
C16   C18   A    
C4    C6    A    
O7    Zn2   S    
C1    O3    A    
C11   C14   A    
C7    C9    A    
C24   O5    A    
O2    Zn2   S    
O8    Zn1   S    
C6    C8    A    
C17   C19   A    
C22   C23   T    
C17   H4    S    
O5    Zn1   S    
O3    Zn2   S    
C8    C10   A    
O6    Zn2   S    
C2    O6    A    
C3    C5    A    
C10   C13   A    
