data_mof_unit_34593.cif
_audit_creation_date              2012-12-10T17:27:08-0500
_audit_creation_method            fapswitch 2.2
_symmetry_space_group_name_H-M    P1
_symmetry_Int_Tables_number       1
_space_group_crystal_system       triclinic
_cell_length_a                    17.787773
_cell_length_b                    18.212398
_cell_length_c                    12.137426
_cell_angle_alpha                 89.838399
_cell_angle_beta                  81.372462
_cell_angle_gamma                 90.231299
_cell_volume                      3887.46811162

loop_
_atom_site_label
_atom_site_type_symbol
_atom_type_description
_atom_site_fract_x
_atom_site_fract_y
_atom_site_fract_z
_atom_type_partial_charge
C1    C     C_R   0.403708 0.104324 0.523506 0.830453
C2    C     C_R   0.536239 0.996042 0.015846 0.024462
C3    C     C_R   0.963761 0.503958 0.984153 0.024462
C4    C     C_R   0.036239 0.496042 0.015846 0.024459
C5    C     C_R   0.590036 0.989599 0.820388 0.077734
C6    C     C_R   0.409963 0.010400 0.179612 0.077735
C7    C     C_R   0.090036 0.489599 0.820388 0.077734
C8    C     C_R   0.909964 0.510401 0.179612 0.077734
C9    C     C_R   0.598016 0.983962 0.932551 -0.168206
C10   C     C_R   0.401984 0.016037 0.067449 -0.168199
C11   C     C_R   0.098016 0.483962 0.932551 -0.168203
C12   C     C_R   0.596292 0.895676 0.476493 0.830455
C13   C     C_R   0.901984 0.516038 0.067449 -0.168207
C14   C     C_R   0.455583 0.000920 0.869496 0.128529
C15   C     C_R   0.544417 0.999080 0.130504 0.128530
C16   C     C_R   0.955583 0.500920 0.869496 0.128530
C17   C     C_R   0.044417 0.499080 0.130504 0.128530
C18   C     C_R   0.641504 0.172411 0.459342 -0.170246
C19   C     C_R   0.358496 0.827589 0.540658 -0.170246
C20   C     C_R   0.354732 0.168710 0.542531 -0.168998
C21   C     C_R   0.645268 0.831290 0.457469 -0.168999
C22   C     C_R   0.141504 0.672411 0.459342 -0.170246
C23   C     C_R   0.594926 0.105597 0.476946 0.837969
C24   C     C_R   0.858496 0.327589 0.540658 -0.170246
C25   C     C_R   0.854732 0.668710 0.542531 -0.168999
C26   C     C_R   0.145268 0.331290 0.457469 -0.168998
C27   C     C_R   0.249954 0.769335 0.649591 -0.205056
C28   C     C_R   0.750046 0.230665 0.350408 -0.205058
C29   C     C_R   0.757554 0.778451 0.352066 -0.168245
C30   C     C_R   0.242446 0.221549 0.647934 -0.168250
C31   C     C_R   0.749954 0.269335 0.649592 -0.205058
C32   C     C_R   0.250046 0.730665 0.350408 -0.205054
C33   C     C_R   0.257554 0.278451 0.352066 -0.168255
C34   C     C_R   0.405074 0.894402 0.523054 0.837968
C35   C     C_R   0.742446 0.721549 0.647934 -0.168247
C36   C     C_R   0.316941 0.809090 0.646010 -0.050035
C37   C     C_R   0.683059 0.190910 0.353990 -0.050034
C38   C     C_R   0.691849 0.819259 0.353929 -0.024474
C39   C     C_R   0.308151 0.180741 0.646071 -0.024470
C40   C     C_R   0.816941 0.309090 0.646010 -0.050033
C41   C     C_R   0.183059 0.690910 0.353990 -0.050035
C42   C     C_R   0.191849 0.319258 0.353929 -0.024470
C43   C     C_R   0.808151 0.680741 0.646071 -0.024474
C44   C     C_R   0.346328 0.786912 0.446685 -0.115701
C45   C     C_R   0.903708 0.604324 0.523506 0.830456
C46   C     C_R   0.653672 0.213088 0.553315 -0.115702
C47   C     C_R   0.652935 0.785757 0.548656 -0.102285
C48   C     C_R   0.347065 0.214243 0.451344 -0.102292
C49   C     C_R   0.846328 0.286912 0.446686 -0.115703
C50   C     C_R   0.153672 0.713088 0.553314 -0.115701
C51   C     C_R   0.152935 0.285757 0.548656 -0.102287
C52   C     C_R   0.847065 0.714243 0.451343 -0.102283
C53   C     C_R   0.275063 0.753033 0.448872 0.143385
C54   C     C_R   0.724937 0.246967 0.551128 0.143385
C55   C     C_R   0.722921 0.750591 0.549315 0.138110
C56   C     C_R   0.096292 0.395676 0.476493 0.830454
C57   C     C_R   0.277079 0.249409 0.450685 0.138110
C58   C     C_R   0.775063 0.253033 0.448872 0.143385
C59   C     C_R   0.224937 0.746967 0.551128 0.143385
C60   C     C_R   0.222921 0.250591 0.549315 0.138111
C61   C     C_R   0.777079 0.749409 0.450685 0.138111
C62   C     C_2   0.340073 0.018394 0.262331 0.456990
C63   C     C_2   0.659926 0.981602 0.737669 0.457004
C64   C     C_2   0.840074 0.518399 0.262331 0.457008
C65   C     C_2   0.159926 0.481603 0.737669 0.456998
C66   C     C_2   0.620271 0.008231 0.166267 0.427102
C67   C     C_R   0.094926 0.605597 0.476946 0.837967
C68   C     C_2   0.379729 0.991769 0.833733 0.427102
C69   C     C_2   0.120271 0.508230 0.166267 0.427101
C70   C     C_2   0.879729 0.491770 0.833733 0.427101
C71   C     C_2   0.588558 0.225506 0.645068 0.448233
C72   C     C_2   0.411441 0.774494 0.354932 0.448236
C73   C     C_2   0.415440 0.230048 0.366451 0.462086
C74   C     C_2   0.584560 0.769952 0.633548 0.462095
C75   C     C_2   0.088559 0.725506 0.645067 0.448235
C76   C     C_2   0.911441 0.274494 0.354933 0.448234
C77   C     C_2   0.915440 0.730048 0.366451 0.462095
C78   C     C_R   0.905073 0.394403 0.523054 0.837968
C79   C     C_2   0.084560 0.269952 0.633549 0.462090
C80   C     C_2   0.657717 0.175582 0.245694 0.496246
C81   C     C_2   0.342283 0.824418 0.754306 0.496249
C82   C     C_2   0.326724 0.156035 0.754918 0.421896
C83   C     C_2   0.673276 0.843965 0.245082 0.421900
C84   C     C_2   0.157718 0.675581 0.245694 0.496248
C85   C     C_2   0.842282 0.324419 0.754306 0.496245
C86   C     C_2   0.826725 0.656035 0.754918 0.421900
C87   C     C_2   0.173275 0.343965 0.245082 0.421897
C88   C     C_R   0.463761 0.003958 0.984153 0.024455
H1    H     H_    0.718891 0.254029 0.730042 0.186397
H2    H     H_    0.346958 0.030325 0.046732 0.234428
H3    H     H_    0.153042 0.469673 0.953268 0.234425
H4    H     H_    0.846958 0.530327 0.046733 0.234423
H5    H     H_    0.334430 0.993665 0.343482 0.128622
H6    H     H_    0.665573 0.006339 0.656523 0.128608
H7    H     H_    0.834427 0.493660 0.343477 0.128605
H8    H     H_    0.165571 0.506337 0.656520 0.128613
H9    H     H_    0.629693 0.992879 0.248136 0.129335
H10   H     H_    0.370307 0.007121 0.751864 0.129334
H11   H     H_    0.129693 0.492879 0.248136 0.129335
H12   H     H_    0.281109 0.745971 0.269958 0.186398
H13   H     H_    0.870307 0.507121 0.751864 0.129335
H14   H     H_    0.536170 0.194516 0.648162 0.132637
H15   H     H_    0.463829 0.805485 0.351838 0.132636
H16   H     H_    0.466152 0.197232 0.363679 0.136065
H17   H     H_    0.533848 0.802768 0.636320 0.136063
H18   H     H_    0.036171 0.694515 0.648162 0.132636
H19   H     H_    0.963829 0.305484 0.351838 0.132636
H20   H     H_    0.966152 0.697232 0.363679 0.136063
H21   H     H_    0.033848 0.302768 0.636321 0.136064
H22   H     H_    0.699737 0.169804 0.171605 0.118620
H23   H     H_    0.292008 0.267921 0.272397 0.196316
H24   H     H_    0.300263 0.830195 0.828395 0.118620
H25   H     H_    0.281890 0.135735 0.818427 0.085250
H26   H     H_    0.718110 0.864266 0.181573 0.085250
H27   H     H_    0.199737 0.669803 0.171605 0.118620
H28   H     H_    0.800263 0.330197 0.828395 0.118619
H29   H     H_    0.781890 0.635735 0.818427 0.085250
H30   H     H_    0.218110 0.364265 0.181573 0.085250
H31   H     H_    0.707992 0.732079 0.727603 0.196319
H32   H     H_    0.218891 0.754029 0.730041 0.186397
H33   H     H_    0.781109 0.245971 0.269958 0.186397
H34   H     H_    0.792008 0.767921 0.272397 0.196320
H35   H     H_    0.207992 0.232079 0.727603 0.196318
H36   H     H_    0.653042 0.969674 0.953267 0.234423
N1    N     N_R   0.480750 1.000000 0.209750 -0.178000
N2    N     N_R   0.519250 0.000000 0.790250 -0.177998
N3    N     N_R   0.980750 0.500000 0.209750 -0.177998
N4    N     N_R   0.019250 0.500000 0.790250 -0.177999
O1    O     O_R   0.418020 0.076820 0.422210 -0.646900
O2    O     O_R   0.569630 0.923170 0.391410 -0.609228
O3    O     O_R   0.569630 0.076830 0.391410 -0.596715
O4    O     O_R   0.430370 0.923170 0.608590 -0.596715
O5    O     O_R   0.930370 0.576830 0.608590 -0.609228
O6    O     O_R   0.069630 0.423170 0.391410 -0.609227
O7    O     O_R   0.069630 0.576830 0.391410 -0.596715
O8    O     O_R   0.930370 0.423170 0.608590 -0.596715
O9    O     O_2   0.285766 0.053087 0.239563 -0.562591
O10   O     O_2   0.714226 0.946895 0.760430 -0.562594
O11   O     O_2   0.785776 0.553108 0.239571 -0.562596
O12   O     O_R   0.581980 0.923180 0.577790 -0.646890
O13   O     O_2   0.214229 0.446901 0.760433 -0.562592
O14   O     O_2   0.673185 0.037582 0.106366 -0.611369
O15   O     O_2   0.326816 0.962417 0.893634 -0.611365
O16   O     O_2   0.173185 0.537582 0.106366 -0.611367
O17   O     O_2   0.826815 0.462418 0.893634 -0.611369
O18   O     O_2   0.589652 0.274623 0.713025 -0.527966
O19   O     O_2   0.410348 0.725377 0.286975 -0.527967
O20   O     O_2   0.418831 0.283584 0.305154 -0.530003
O21   O     O_2   0.581169 0.716416 0.694847 -0.530004
O22   O     O_2   0.089652 0.774623 0.713025 -0.527965
O23   O     O_R   0.581980 0.076820 0.577790 -0.663416
O24   O     O_2   0.910348 0.225377 0.286975 -0.527966
O25   O     O_2   0.918832 0.783584 0.305153 -0.530003
O26   O     O_2   0.081169 0.216416 0.694847 -0.530003
O27   O     O_2   0.590514 0.175647 0.235660 -0.545924
O28   O     O_2   0.409487 0.824353 0.764340 -0.545922
O29   O     O_2   0.390808 0.163631 0.777891 -0.548777
O30   O     O_2   0.609192 0.836369 0.222109 -0.548776
O31   O     O_2   0.090514 0.675647 0.235660 -0.545922
O32   O     O_2   0.909486 0.324353 0.764340 -0.545923
O33   O     O_2   0.890808 0.663631 0.777891 -0.548777
O34   O     O_R   0.418020 0.923180 0.422210 -0.663417
O35   O     O_2   0.109192 0.336369 0.222109 -0.548777
O36   O     O_R   0.918020 0.576820 0.422210 -0.646889
O37   O     O_R   0.081980 0.423180 0.577790 -0.646894
O38   O     O_R   0.081980 0.576820 0.577790 -0.663416
O39   O     O_R   0.918020 0.423180 0.422210 -0.663416
O40   O     O_R   0.430370 0.076830 0.608590 -0.609226
Zn1   Zn    Zn3+2 0.491750 0.000000 0.375560 0.953254
Zn2   Zn    Zn3+2 0.508250 1.000000 0.624440 0.953258
Zn3   Zn    Zn3+2 0.991750 0.500000 0.375560 0.953258
Zn4   Zn    Zn3+2 0.008250 0.500000 0.624440 0.953256

loop_
_geom_bond_atom_site_label_1
_geom_bond_atom_site_label_2
_ccdc_geom_bond_type
C87   O35   D    
C17   C69   S    
C8    C13   A    
C38   C83   S    
C35   H31   S    
C25   C43   A    
C53   C59   A    
C70   H13   S    
C48   C57   A    
C27   H32   S    
C69   O16   D    
O38   Zn4   S    
C83   O30   D    
C63   H6    S    
C10   C88   A    
C78   O39   A    
C81   O28   D    
C12   O2    A    
C50   C59   A    
C66   H9    S    
O1    Zn1   S    
C45   O36   A    
C1    O1    A    
C52   C61   A    
C64   H7    S    
C22   C41   A    
C76   O24   D    
C75   O22   D    
N3    Zn3   S    
C9    H36   S    
C31   C40   A    
C5    C63   S    
C68   O15   D    
C77   O25   D    
C44   C53   A    
C73   H16   S    
C21   C38   A    
O8    Zn4   S    
C31   H1    S    
C30   C60   A    
C5    N2    A    
C33   C57   A    
C32   C41   A    
C12   O12   A    
C74   O21   D    
C2    C88   A    
C33   H23   S    
C85   O32   D    
O7    Zn3   S    
C7    N4    A    
N1    Zn1   S    
C3    C13   A    
C22   C50   A    
O37   Zn4   S    
O40   Zn2   S    
C34   O4    A    
C62   O9    D    
C83   H26   S    
O4    Zn2   S    
C18   C46   A    
C84   O31   D    
C51   C79   S    
C65   H8    S    
C37   C80   S    
C29   C61   A    
C79   H21   S    
C73   O20   D    
C35   C55   A    
C18   C23   S    
C16   C70   S    
C82   H25   S    
C87   H30   S    
C86   O33   D    
C20   C39   A    
C28   H33   S    
C17   N3    A    
C57   C60   A    
O39   Zn3   S    
C1    O40   A    
C15   C66   S    
C12   C21   S    
C49   C58   A    
C32   H12   S    
C40   C85   S    
C29   C38   A    
C7    C11   A    
C5    C9    A    
C67   O7    A    
N2    Zn2   S    
C7    C65   S    
C65   O13   D    
C8    N3    A    
C81   H24   S    
C36   C81   S    
C29   H34   S    
C46   C54   A    
C49   C76   S    
C23   O3    A    
C70   O17   D    
C4    C11   A    
C2    C15   A    
C16   N4    A    
C46   C71   S    
C20   C48   A    
C85   H28   S    
C8    C64   S    
C4    C17   A    
C69   H11   S    
C67   O38   A    
C24   C78   S    
C71   H14   S    
N4    Zn4   S    
C76   H19   S    
O6    Zn3   S    
C13   H4    S    
C63   O10   D    
C51   C60   A    
C33   C42   A    
C80   H22   S    
C3    C4    A    
C25   C45   S    
C32   C53   A    
C56   O37   A    
C35   C43   A    
C19   C44   A    
C26   C42   A    
C80   O27   D    
C47   C55   A    
C54   C58   A    
C24   C49   A    
C82   O29   D    
C23   O23   A    
O3    Zn1   S    
C1    C20   S    
O12   Zn2   S    
C43   C86   S    
C48   C73   S    
O5    Zn4   S    
C77   H20   S    
C39   C82   S    
C18   C37   A    
C34   O34   A    
C19   C34   S    
C26   C56   S    
C6    C10   A    
C56   O6    A    
C66   O14   D    
C72   H15   S    
C28   C58   A    
C27   C36   A    
C84   H27   S    
C72   O19   D    
C45   O5    A    
C14   N2    A    
C19   C36   A    
C6    C62   S    
C25   C52   A    
C14   C88   A    
C27   C59   A    
C50   C75   S    
C79   O26   D    
C41   C84   S    
O34   Zn1   S    
C28   C37   A    
C55   C61   A    
C24   C40   A    
C30   C39   A    
C44   C72   S    
C86   H29   S    
C31   C54   A    
C47   C74   S    
C68   H10   S    
C22   C67   S    
C11   H3    S    
C71   O18   D    
C30   H35   S    
C10   H2    S    
C75   H18   S    
C15   N1    A    
C62   H5    S    
O23   Zn2   S    
C14   C68   S    
O36   Zn3   S    
C42   C87   S    
O2    Zn1   S    
C21   C47   A    
C26   C51   A    
C2    C9    A    
C78   O8    A    
C6    N1    A    
C3    C16   A    
C52   C77   S    
C74   H17   S    
C64   O11   D    
