data_mof_unit_45675.cif
_audit_creation_date              2012-12-10T19:50:44-0500
_audit_creation_method            fapswitch 2.2
_symmetry_space_group_name_H-M    P1
_symmetry_Int_Tables_number       1
_space_group_crystal_system       triclinic
_cell_length_a                    18.195056
_cell_length_b                    18.266808
_cell_length_c                    18.372803
_cell_angle_alpha                 119.858055
_cell_angle_beta                  90.658585
_cell_angle_gamma                 119.619436
_cell_volume                      4326.92725575

loop_
_atom_site_label
_atom_site_type_symbol
_atom_type_description
_atom_site_fract_x
_atom_site_fract_y
_atom_site_fract_z
_atom_type_partial_charge
C1    C     C_R   0.640248 0.780139 0.637275 0.500289
C2    C     C_R   0.210316 0.945712 0.156365 -0.171048
C3    C     C_R   0.189564 0.891186 0.195145 0.016101
C4    C     C_R   0.359687 0.220162 0.360041 0.500394
C5    C     C_R   0.214845 0.947156 0.287871 0.000075
C6    C     C_3   0.252485 0.943783 0.358687 0.158980
C7    C     C_3   0.309479 0.062126 0.417650 -0.231956
C8    C     C_R   0.787590 0.563271 0.338764 -0.054496
C9    C     C_R   0.694531 0.499090 0.303911 -0.021332
C10   C     C_R   0.653943 0.432089 0.210132 -0.149340
C11   C     C_R   0.706657 0.429783 0.154616 0.231868
C12   C     C_3   0.816267 0.597356 0.815474 0.208404
C13   C     C_R   0.802106 0.498121 0.193424 0.008659
C14   C     C_R   0.838758 0.563530 0.286071 -0.049232
C15   C     C_3   0.924785 0.647411 0.364955 0.158823
C16   C     C_R   0.360045 0.500114 0.639967 0.494652
C17   C     C_3   0.865397 0.646259 0.424275 -0.213770
C18   C     C_R   0.789361 0.947385 0.718456 -0.014077
C19   C     C_R   0.696646 0.890994 0.679077 -0.068286
C20   C     C_R   0.661103 0.944585 0.678388 0.250565
C21   C     C_R   0.714448 0.053698 0.735800 0.240104
C22   C     C_R   0.803550 0.108033 0.791490 -0.061368
C23   C     C_3   0.715106 0.552108 0.800078 -0.174759
C24   C     C_R   0.840763 0.053007 0.774776 -0.001407
C25   C     C_3   0.900543 0.057231 0.835237 0.201231
C26   C     C_3   0.846257 0.939281 0.769134 0.205405
C27   C     C_R   0.217811 0.476487 0.310248 -0.025868
C28   C     C_R   0.639971 0.500190 0.360283 0.502990
C29   C     C_R   0.301221 0.496769 0.302562 0.022177
C30   C     C_R   0.322638 0.497759 0.229371 0.232805
C31   C     C_R   0.266651 0.494556 0.174104 -0.143465
C32   C     C_R   0.191716 0.492364 0.192746 -0.039121
C33   C     C_R   0.163260 0.472884 0.254734 -0.047695
C34   C     C_3   0.699486 0.453641 0.785022 0.216767
C35   C     C_3   0.125834 0.516060 0.322939 0.202287
C36   C     C_3   0.187971 0.522812 0.387139 0.535006
C37   C     C_R   0.248350 0.531445 0.697195 -0.011945
C38   C     C_R   0.302353 0.497104 0.693915 -0.014496
C39   C     C_R   0.297604 0.454797 0.741215 -0.154840
C40   C     C_R   0.358132 0.499457 0.359041 0.508727
C41   C     C_R   0.250534 0.461913 0.802202 0.245851
C42   C     C_R   0.197608 0.499457 0.805568 0.043311
C43   C     C_R   0.195665 0.530768 0.750483 -0.024514
C44   C     C_3   0.213186 0.630380 0.774269 -0.263609
C45   C     C_3   0.681112 0.400545 0.683576 -0.176313
C46   C     C_3   0.271025 0.630596 0.715457 -0.262908
C47   C     C_R   0.859547 0.499784 0.139433 0.498995
C48   C     C_R   0.141900 0.501414 0.861856 0.526074
C49   C     C_R   0.139354 0.779658 0.139821 0.500859
C50   C     C_R   0.859491 0.219531 0.858453 0.502025
C51   C     C_R   0.140119 0.498596 0.140535 0.490650
C52   C     C_R   0.641894 0.499999 0.641284 0.513021
C53   C     C_R   0.858040 0.500042 0.858848 0.571454
C54   C     C_3   0.800699 0.547345 0.715529 0.269390
C55   C     C_3   0.782831 0.449223 0.701592 0.193710
C56   C     C_3   0.699442 0.500539 0.698568 -0.033655
C57   C     C_3   0.800219 0.499837 0.802115 0.079813
C58   C     C_3   0.786285 0.346689 0.563960 -0.011712
C59   C     C_3   0.840573 0.307818 0.517786 -0.375225
C60   C     C_3   0.356917 0.918849 0.288867 0.017311
C61   C     C_3   0.435849 0.916421 0.312057 -0.387022
C62   C     C_3   0.636808 0.265424 0.030962 -0.005310
C63   C     C_3   0.599131 0.197857 0.929435 -0.324016
C64   C     C_3   0.933671 0.767019 0.338858 0.019747
C65   C     C_3   0.996671 0.878319 0.369176 -0.372422
C66   C     C_3   0.568445 0.852799 0.536406 0.010661
C67   C     C_R   0.266042 0.053082 0.341081 -0.035953
C68   C     C_3   0.484523 0.829333 0.485467 -0.358742
C69   C     C_3   0.941393 0.637172 0.707620 0.012743
C70   C     C_3   0.982619 0.635300 0.635660 -0.392622
C71   C     C_3   0.699287 0.141027 0.688672 0.013734
C72   C     C_3   0.647747 0.185314 0.687197 -0.347573
C73   C     C_3   0.050845 0.169229 0.922703 0.004604
C74   C     C_3   0.146265 0.225970 0.922867 -0.343949
C75   C     C_3   0.935499 0.879894 0.756115 0.016614
C76   C     C_3   0.015388 0.889613 0.726034 -0.349356
C77   C     C_3   0.470679 0.604542 0.254234 -0.010561
C78   C     C_R   0.297778 0.108533 0.303903 0.024599
C79   C     C_3   0.553638 0.608331 0.236950 -0.362716
C80   C     C_3   0.977893 0.430609 0.239746 -0.003637
C81   C     C_3   0.880862 0.365315 0.232542 -0.376820
C82   C     C_3   0.224926 0.676092 0.519177 -0.014720
C83   C     C_3   0.262030 0.779731 0.534599 -0.395838
C84   C     C_3   0.875994 0.771206 0.900810 -0.011762
C85   C     C_3   0.963961 0.878091 0.959877 -0.380938
C86   C     C_3   0.189342 0.438744 0.450137 0.014646
C87   C     C_3   0.130989 0.369838 0.478125 -0.380802
C88   C     C_3   0.346549 0.472127 0.897273 -0.022780
C89   C     C_R   0.264464 0.053743 0.210397 -0.165679
C90   C     C_3   0.361934 0.493613 0.989124 -0.364737
C91   C     C_3   0.561597 0.372725 0.799941 -0.004185
C92   C     C_3   0.508970 0.314038 0.838207 -0.368362
H1    H     H_    0.581391 0.381430 0.179194 0.156077
H2    H     H_    0.911708 0.373904 0.542612 0.162178
H3    H     H_    0.200169 0.910453 0.384800 0.151179
H4    H     H_    0.384478 0.994445 0.299928 0.119234
H5    H     H_    0.317149 0.856386 0.216978 0.142409
H6    H     H_    0.410970 0.840429 0.299027 0.157167
H7    H     H_    0.478134 0.928693 0.270667 0.085459
H8    H     H_    0.477561 0.978450 0.383688 0.145427
H9    H     H_    0.288954 0.094077 0.476153 0.112071
H10   H     H_    0.383299 0.101099 0.433757 0.142161
H11   H     H_    0.583321 0.231178 0.055826 0.112537
H12   H     H_    0.694682 0.265308 0.051386 0.124077
H13   H     H_    0.335623 0.422802 0.735487 0.128879
H14   H     H_    0.650435 0.231568 0.902749 0.222217
H15   H     H_    0.580179 0.119140 0.903014 0.111630
H16   H     H_    0.538540 0.192113 0.906688 0.137205
H17   H     H_    0.964801 0.619244 0.371020 0.125375
H18   H     H_    0.874355 0.758008 0.359762 0.125019
H19   H     H_    0.911747 0.716332 0.264817 0.152162
H20   H     H_    0.054920 0.889099 0.345989 0.152690
H21   H     H_    0.960446 0.897417 0.340615 0.093997
H22   H     H_    0.021353 0.931493 0.443179 0.163378
H23   H     H_    0.871538 0.616873 0.462742 0.114890
H24   H     H_    0.685367 0.592979 0.838498 0.089597
H25   H     H_    0.867233 0.717455 0.463234 0.166121
H26   H     H_    0.563889 0.779935 0.504212 0.136633
H27   H     H_    0.627564 0.907883 0.529663 0.085688
H28   H     H_    0.484971 0.899715 0.518526 0.157581
H29   H     H_    0.482273 0.803384 0.416001 0.068302
H30   H     H_    0.423748 0.767088 0.483344 0.214751
H31   H     H_    0.954189 0.595320 0.728202 0.179256
H32   H     H_    0.975969 0.718582 0.766320 0.153007
H33   H     H_    0.971134 0.675572 0.612402 0.152800
H34   H     H_    0.056135 0.674372 0.662711 0.088186
H35   H     H_    0.624330 0.320606 0.629026 0.097996
H36   H     H_    0.951532 0.554195 0.577926 0.157526
H37   H     H_    0.681923 0.078160 0.618643 0.110999
H38   H     H_    0.772528 0.203110 0.715863 0.142044
H39   H     H_    0.663176 0.248156 0.756254 0.220008
H40   H     H_    0.667508 0.216647 0.646875 0.111411
H41   H     H_    0.574273 0.124025 0.657215 0.142528
H42   H     H_    0.043319 0.119491 0.944333 0.099715
H43   H     H_    0.040189 0.227946 0.971291 0.155838
H44   H     H_    0.155132 0.276100 0.901448 0.208027
H45   H     H_    0.194777 0.274692 0.991221 0.105259
H46   H     H_    0.188286 0.905535 0.084553 0.146992
H47   H     H_    0.160032 0.169724 0.876416 0.142497
H48   H     H_    0.890395 0.083249 0.901294 0.010354
H49   H     H_    0.886548 0.798545 0.732797 0.164235
H50   H     H_    0.960812 0.931318 0.830495 0.102307
H51   H     H_    0.064916 0.970449 0.748420 0.174017
H52   H     H_    0.048626 0.868705 0.755512 0.075569
H53   H     H_    0.992629 0.837536 0.652071 0.159075
H54   H     H_    0.807969 0.894538 0.796059 0.035505
H55   H     H_    0.485411 0.648839 0.327756 0.115549
H56   H     H_    0.457334 0.641888 0.228107 0.112783
H57   H     H_    0.788472 0.398391 0.547220 0.168672
H58   H     H_    0.541757 0.565704 0.164099 0.158086
H59   H     H_    0.612117 0.689848 0.270744 0.080874
H60   H     H_    0.569228 0.572685 0.263364 0.171301
H61   H     H_    0.284353 0.499675 0.120226 0.128989
H62   H     H_    0.142159 0.592016 0.342193 0.099154
H63   H     H_    0.983690 0.390409 0.173040 0.132902
H64   H     H_    0.994385 0.506712 0.259905 0.155813
H65   H     H_    0.871706 0.405921 0.297055 0.148200
H66   H     H_    0.835116 0.351368 0.179551 0.079306
H67   H     H_    0.863037 0.289647 0.215215 0.161391
H68   H     H_    0.715503 0.279003 0.537665 0.116494
H69   H     H_    0.249294 0.691407 0.583895 0.146464
H70   H     H_    0.150061 0.631284 0.497909 0.150664
H71   H     H_    0.242766 0.768610 0.470526 0.163928
H72   H     H_    0.234547 0.818488 0.580806 0.104355
H73   H     H_    0.336483 0.830244 0.564879 0.170268
H74   H     H_    0.826504 0.768321 0.936201 0.130864
H75   H     H_    0.850860 0.759148 0.837612 0.128268
H76   H     H_    0.014463 0.883742 0.925683 0.140661
H77   H     H_    0.952655 0.937621 0.974020 0.077788
H78   H     H_    0.990344 0.892923 0.024039 0.170186
H79   H     H_    0.838200 0.254018 0.531420 0.152628
H80   H     H_    0.248119 0.512126 0.509540 0.194110
H81   H     H_    0.211966 0.396894 0.399371 0.120092
H82   H     H_    0.106974 0.408682 0.529456 0.158958
H83   H     H_    0.071845 0.295725 0.419413 0.160085
H84   H     H_    0.170283 0.352985 0.505898 0.106244
H85   H     H_    0.397707 0.545792 0.905981 0.112329
H86   H     H_    0.357840 0.412085 0.853896 0.128759
H87   H     H_    0.314940 0.421991 0.984301 0.159309
H88   H     H_    0.431925 0.521690 0.017926 0.098961
H89   H     H_    0.351622 0.554033 0.033731 0.145047
H90   H     H_    0.812199 0.266393 0.444566 0.096840
H91   H     H_    0.151239 0.620234 0.747494 0.143339
H92   H     H_    0.252209 0.694238 0.846239 0.141760
H93   H     H_    0.241521 0.619306 0.654733 0.131700
H94   H     H_    0.343635 0.694521 0.752907 0.152613
H95   H     H_    0.528959 0.319939 0.725966 0.133828
H96   H     H_    0.558153 0.440195 0.826653 0.129017
H97   H     H_    0.540020 0.364087 0.912101 0.186272
H98   H     H_    0.438435 0.289702 0.820359 0.087182
H99   H     H_    0.508847 0.244288 0.810408 0.151059
H100  H     H_    0.282941 0.093779 0.178693 0.144449
O1    O     O_3   0.500000 0.500000 0.500000 -0.449190
O2    O     O_R   0.945260 0.268310 0.884540 -0.526611
O3    O     O_R   0.117230 0.560570 0.177940 -0.554719
O4    O     O_R   0.676910 0.731570 0.616180 -0.532807
O5    O     O_R   0.821960 0.439250 0.882690 -0.520925
O6    O     O_R   0.117230 0.439140 0.056500 -0.558560
O7    O     O_R   0.943400 0.560680 0.882690 -0.518836
O8    O     O_R   0.115380 0.731510 0.054650 -0.552801
O9    O     O_R   0.823040 0.268340 0.883770 -0.528024
O10   O     O_R   0.945260 0.560610 0.176860 -0.559026
O11   O     O_R   0.116150 0.439180 0.884540 -0.487284
O12   O     O_R   0.384580 0.439270 0.616180 -0.552461
O13   O     O_R   0.384580 0.268400 0.445300 -0.545381
O14   O     O_R   0.383810 0.560730 0.615410 -0.555299
O15   O     O_R   0.554700 0.439300 0.323100 -0.550509
O16   O     O_R   0.382730 0.560770 0.443450 -0.548716
O17   O     O_R   0.678000 0.560660 0.617260 -0.508412
O18   O     O_R   0.382730 0.439340 0.322020 -0.504093
O19   O     O_R   0.556550 0.439230 0.617260 -0.559501
O20   O     O_3   0.823218 0.398956 0.656716 -0.573497
O21   O     O_3   0.302677 0.900238 0.340703 -0.540289
O22   O     O_3   0.664094 0.366242 0.063114 -0.527813
O23   O     O_R   0.676910 0.560700 0.445300 -0.532627
O24   O     O_3   0.980278 0.744485 0.377266 -0.543003
O25   O     O_3   0.573552 0.892711 0.626502 -0.500501
O26   O     O_3   0.849168 0.593521 0.674032 -0.559516
O27   O     O_3   0.675476 0.104352 0.742454 -0.523376
O28   O     O_3   0.989829 0.108964 0.835932 -0.489880
O29   O     O_3   0.894202 0.906216 0.717401 -0.492724
O30   O     O_3   0.397130 0.500551 0.210953 -0.535959
O31   O     O_3   0.034348 0.441592 0.303034 -0.537470
O32   O     O_3   0.258304 0.625576 0.458386 -0.587634
O33   O     O_3   0.891105 0.696813 0.885032 -0.553271
O34   O     O_R   0.554700 0.731600 0.615410 -0.503923
O35   O     O_3   0.137478 0.457683 0.414179 -0.526010
O36   O     O_3   0.256957 0.435834 0.860431 -0.534271
O37   O     O_3   0.651515 0.405597 0.825417 -0.538844
O38   O     O_R   0.383810 0.268430 0.323100 -0.552436
O39   O     O_3   0.999960 0.499910 0.999960 -0.459456
O40   O     O_R   0.823040 0.439210 0.054650 -0.497088
O41   O     O_R   0.115380 0.560640 0.883770 -0.559709
O42   O     O_R   0.116150 0.731480 0.176860 -0.514278
Zn1   Zn    Zn3+2 0.457170 0.413230 0.543930 0.901858
Zn2   Zn    Zn3+2 0.456070 0.586770 0.542830 0.927705
Zn3   Zn    Zn3+2 0.456070 0.413270 0.369320 0.930658
Zn4   Zn    Zn3+2 0.630690 0.586730 0.543930 0.945931
Zn5   Zn    Zn3+2 0.042790 0.586680 0.956030 0.940200
Zn6   Zn    Zn3+2 0.043880 0.586640 0.130630 0.928863
Zn7   Zn    Zn3+2 0.043880 0.413140 0.957130 0.940495
Zn8   Zn    Zn3+2 0.869270 0.413190 0.956030 0.953058

loop_
_geom_bond_atom_site_label_1
_geom_bond_atom_site_label_2
_ccdc_geom_bond_type
C1    O34   A    
C25   O28   S    
C66   C68   S    
C83   H72   S    
C40   O16   A    
C41   C42   A    
C81   H67   S    
O2    Zn7   S    
C27   C29   A    
C50   O2    A    
C73   C74   S    
C15   H17   S    
C61   H6    S    
C18   C26   S    
C35   H62   S    
C5    C67   A    
C3    C49   S    
O34   Zn2   S    
C23   C56   S    
C39   C41   A    
O4    Zn4   S    
C27   C33   A    
C87   H84   S    
C83   H73   S    
C12   C23   S    
C37   C38   A    
C72   H39   S    
C91   O37   S    
C20   O25   S    
C86   H80   S    
C44   H92   S    
O14   Zn2   S    
C75   O29   S    
C75   H50   S    
C7    H9    S    
C66   O25   S    
C16   O14   A    
O10   Zn6   S    
C30   C31   A    
C82   O32   S    
C69   H31   S    
C54   C55   S    
C40   O18   A    
C71   O27   S    
C29   C40   S    
O39   Zn5   S    
C18   C19   A    
C65   H22   S    
C26   H54   S    
C75   C76   S    
C73   H42   S    
C75   H49   S    
C23   H24   S    
C59   H90   S    
C84   C85   S    
C60   O21   S    
C72   H40   S    
C62   C63   S    
C35   C36   S    
C45   C56   S    
C44   C46   S    
C8    C9    A    
C7    H10   S    
C74   H44   S    
C34   C57   S    
C54   O26   S    
C59   H2    S    
C29   C30   A    
C9    C10   A    
C36   O32   S    
O1    Zn2   S    
C48   O41   A    
C58   H57   S    
C17   H25   S    
C22   C50   S    
C70   H34   S    
C28   O23   A    
C55   O20   S    
C41   O36   S    
C78   C89   A    
C13   C14   A    
C86   O35   S    
C62   O22   S    
C61   H7    S    
C67   C78   A    
C59   H79   S    
C84   O33   S    
C31   H61   S    
C92   H98   S    
C21   C22   A    
C80   H64   S    
C62   H12   S    
C77   C79   S    
O6    Zn7   S    
C77   H55   S    
C49   O8    A    
C74   H45   S    
C90   H88   S    
O5    Zn8   S    
C1    C19   S    
C81   H65   S    
C69   O26   S    
C2    H46   S    
O18   Zn3   S    
C73   H43   S    
O3    Zn6   S    
C88   H85   S    
C25   H48   S    
C38   C39   A    
C24   C25   S    
C30   O30   S    
C60   H5    S    
C68   H30   S    
C91   C92   S    
C13   C47   S    
C53   C57   S    
C86   C87   S    
C15   O24   S    
C64   H19   S    
C42   C48   S    
C47   O40   A    
C82   H70   S    
C69   H32   S    
C16   C38   S    
C25   C26   S    
C71   H37   S    
C85   H77   S    
O9    Zn8   S    
C73   O28   S    
O39   Zn6   S    
C53   O7    A    
C37   C43   A    
C2    C89   A    
C43   C44   S    
C32   C51   S    
C4    C78   S    
C49   O42   A    
C51   O6    A    
C35   O31   S    
C52   O19   A    
C83   H71   S    
C64   H18   S    
C31   C32   A    
C48   O11   A    
C90   H89   S    
O13   Zn1   S    
O40   Zn8   S    
C23   C34   S    
O39   Zn8   S    
C26   O29   S    
C63   H16   S    
O23   Zn4   S    
O42   Zn6   S    
O17   Zn4   S    
C63   H14   S    
C88   O36   S    
C44   H91   S    
O1    Zn3   S    
C34   C45   S    
C79   H58   S    
C12   C57   S    
C60   H4    S    
C70   H33   S    
C91   H96   S    
C88   C90   S    
C76   H53   S    
C82   C83   S    
C36   O35   S    
C66   H27   S    
C55   C57   S    
C21   O27   S    
C52   O17   A    
C85   H78   S    
C18   C24   A    
C34   O37   S    
C42   C43   A    
C65   H20   S    
C77   H56   S    
C76   H52   S    
C92   H97   S    
C17   H23   S    
C80   H63   S    
C79   H59   S    
C62   H11   S    
C50   O9    A    
C70   H36   S    
C15   C17   S    
C87   H82   S    
C91   H95   S    
C90   H87   S    
C8    C14   A    
C81   H66   S    
O39   Zn7   S    
C85   H76   S    
C65   H21   S    
C64   O24   S    
C39   H13   S    
C80   C81   S    
C3    C5    A    
O7    Zn5   S    
C68   H29   S    
C92   H99   S    
C54   C56   S    
C88   H86   S    
C6    C7    S    
O11   Zn7   S    
C82   H69   S    
C58   O20   S    
C27   C36   S    
O12   Zn1   S    
C87   H83   S    
C74   H47   S    
C8    C17   S    
C10   H1    S    
C4    O13   A    
C86   H81   S    
C53   O5    A    
C32   C33   A    
C19   C20   A    
C2    C3    A    
C58   C59   S    
O8    Zn5   S    
C71   C72   S    
C84   H75   S    
C58   H68   S    
C1    O4    A    
C64   C65   S    
C71   H38   S    
C11   C13   A    
C72   H41   S    
C5    C6    S    
C6    O21   S    
C45   H35   S    
C46   H94   S    
C33   C35   S    
C89   H100  S    
O19   Zn1   S    
C22   C24   A    
C46   H93   S    
O41   Zn5   S    
C69   C70   S    
C12   C54   S    
O1    Zn4   S    
C84   H74   S    
C10   C11   A    
O15   Zn3   S    
C11   O22   S    
C7    C67   S    
C61   H8    S    
C76   H51   S    
C77   O30   S    
C20   C21   A    
C45   C55   S    
C6    H3    S    
C66   H26   S    
C12   O33   S    
O16   Zn2   S    
C28   O15   A    
C14   C15   S    
C60   C61   S    
O38   Zn3   S    
C51   O3    A    
C37   C46   S    
C16   O12   A    
C63   H15   S    
O1    Zn1   S    
C68   H28   S    
C52   C56   S    
C9    C28   S    
C4    O38   A    
C79   H60   S    
C80   O31   S    
C47   O10   A    
