data_mof_unit_26198.cif
_audit_creation_date              2012-12-11T14:29:49-0500
_audit_creation_method            fapswitch 2.2
_symmetry_space_group_name_H-M    P1
_symmetry_Int_Tables_number       1
_space_group_crystal_system       triclinic
_cell_length_a                    6.949692
_cell_length_b                    14.712443
_cell_length_c                    16.281008
_cell_angle_alpha                 90.592795
_cell_angle_beta                  90.136664
_cell_angle_gamma                 89.746663
_cell_volume                      1664.57344474

loop_
_atom_site_label
_atom_site_type_symbol
_atom_type_description
_atom_site_fract_x
_atom_site_fract_y
_atom_site_fract_z
_atom_type_partial_charge
O1    O     O_R   0.494400 0.416610 0.413880 -0.541932
O2    O     O_R   0.823920 0.406790 0.585520 -0.540248
O3    O     O_R   0.994250 0.583390 0.586120 -0.535407
C1    C     C_R   0.655024 0.386434 0.614457 0.718473
O4    O     O_R   0.824110 0.405730 0.414490 -0.541766
O5    O     O_R   0.994440 0.582310 0.413870 -0.539507
C2    C     C_R   0.654954 0.383562 0.386465 0.741430
O6    O     O_R   0.494210 0.417690 0.586130 -0.544199
O7    O     O_3   0.660810 0.557940 0.500000 -0.368147
V1    V     V_3+5 0.935650 0.489250 0.500000 1.410232
O8    O     O_R   0.324160 0.593210 0.414480 -0.541464
C3    C     C_R   0.154470 0.615965 0.387763 0.715596
O9    O     O_R   0.323970 0.594270 0.585510 -0.539485
C4    C     C_R   0.154882 0.616525 0.613507 0.694378
V2    V     V_3+5 0.435660 0.510750 0.500000 1.415002
O10   O     O_3   0.160630 0.442060 0.500000 -0.374085
H1    H     H_    0.898447 0.902947 0.511414 0.123001
C5    C     C_R   0.279163 0.572804 0.778160 -0.143392
C6    C     C_R   0.336579 0.548766 0.857047 -0.117496
C7    C     C_R   0.320963 0.611051 0.921417 -0.125645
C8    C     C_R   0.248949 0.698076 0.907290 -0.137083
C9    C     C_R   0.192049 0.725007 0.827677 0.072670
C10   C     C_R   0.206182 0.660802 0.761797 0.065590
C11   C     C_R   0.118684 0.813651 0.813526 -0.168008
C12   C     C_R   0.056828 0.837554 0.733302 0.026756
C13   C     C_R   0.068271 0.772847 0.667795 0.067729
C14   C     C_R   0.143976 0.684564 0.681816 -0.167978
C15   C     C_R   0.988578 0.926277 0.716325 -0.244461
C16   C     C_R   0.935930 0.952192 0.636586 0.347891
C17   C     C_R   0.941345 0.886636 0.573410 -0.155566
C18   C     C_R   0.007213 0.798868 0.588601 -0.204642
H2    H     H_    0.291442 0.521317 0.730530 0.106291
H3    H     H_    0.391968 0.481139 0.868389 0.114387
H4    H     H_    0.363841 0.591560 0.982718 0.108700
H5    H     H_    0.236321 0.743610 0.959513 0.099177
H6    H     H_    0.980758 0.977423 0.764452 0.103587
H7    H     H_    0.012995 0.752207 0.536871 0.121222
C19   C     C_2   0.994377 0.700536 0.275480 -0.117611
C20   C     C_2   0.145033 0.689134 0.326927 -0.276398
H8    H     H_    0.870225 0.656479 0.281199 0.128670
H9    H     H_    0.265866 0.735136 0.326879 0.172413
C21   C     C_2   0.982218 0.772267 0.211278 -0.173333
C22   C     C_2   0.134938 0.809728 0.173009 0.139125
H10   H     H_    0.838104 0.792047 0.192456 0.107127
C23   C     C_2   0.767309 0.222698 0.793581 -0.218885
C24   C     C_2   0.614891 0.168079 0.807954 0.260971
H11   H     H_    0.888996 0.221163 0.835543 0.112747
C25   C     C_2   0.787897 0.282054 0.720396 -0.115231
C26   C     C_2   0.637905 0.323999 0.684509 -0.281754
H12   H     H_    0.932816 0.295735 0.699175 0.137720
H13   H     H_    0.494539 0.316076 0.709502 0.181391
C27   C     C_2   0.778851 0.208198 0.214443 -0.132771
C28   C     C_2   0.613913 0.181686 0.177562 -0.315642
H14   H     H_    0.914408 0.179039 0.193780 0.136288
H15   H     H_    0.476641 0.210107 0.196101 0.127081
C29   C     C_2   0.791542 0.276678 0.282412 -0.139653
C30   C     C_2   0.638464 0.315126 0.319813 -0.312155
H16   H     H_    0.935330 0.295417 0.302420 0.134460
H17   H     H_    0.493561 0.296925 0.301768 0.129052
O11   O     O_R   0.770210 0.079270 0.910680 -0.553319
O12   O     O_R   0.440150 0.091160 0.082270 -0.545064
O13   O     O_R   0.269970 0.914530 0.082860 -0.538171
C31   C     C_R   0.608715 0.113175 0.110534 0.742694
O14   O     O_R   0.440480 0.090100 0.911240 -0.531814
O15   O     O_R   0.270310 0.913460 0.910610 -0.539808
C32   C     C_R   0.608906 0.110255 0.882201 0.627624
O16   O     O_R   0.769870 0.080340 0.082930 -0.537159
O17   O     O_3   0.603660 0.938980 0.996790 -0.367536
V3    V     V_3+5 0.328750 0.007610 0.996740 1.408335
O18   O     O_R   0.940600 0.902510 0.911180 -0.535938
C33   C     C_R   0.109238 0.881472 0.882176 0.695778
O19   O     O_R   0.940270 0.903570 0.082200 -0.549868
C34   C     C_R   0.110955 0.881048 0.109613 0.661781
V4    V     V_3+5 0.828770 0.986010 0.996670 1.401984
O20   O     O_3   0.103730 0.054750 0.996710 -0.369973
N1    N     N_2   0.325978 0.780185 0.191696 -0.515504
H18   H     H_    0.425380 0.831802 0.196793 0.255033
C35   C     C_3   0.395203 0.704539 0.142596 -0.546507
H19   H     H_    0.530331 0.677857 0.169941 0.187955
H20   H     H_    0.426415 0.727318 0.079302 0.187795
H21   H     H_    0.287854 0.648776 0.140958 0.207286
O21   O     O_3   0.466382 0.162544 0.751031 -0.575307
C36   C     C_3   0.450839 0.072604 0.719932 0.104187
H22   H     H_    0.334904 0.036955 0.753490 0.118935
H23   H     H_    0.585955 0.031936 0.726326 0.119099
C37   C     C_3   0.398628 0.076547 0.628911 -0.273759
H24   H     H_    0.252761 0.106329 0.622788 0.195263
H25   H     H_    0.500232 0.121939 0.596680 0.216923
C38   C     C_3   0.404776 0.982459 0.588305 -0.810473
H26   H     H_    0.554624 0.958011 0.582289 0.251667
H27   H     H_    0.340048 0.985418 0.526019 0.218885
H28   H     H_    0.326354 0.932310 0.625446 0.240853
N2    N     N_2   0.878956 0.044332 0.622174 -0.529898
H29   H     H_    0.913419 0.090342 0.668046 0.258730
C39   C     C_3   0.887541 0.080450 0.539754 -0.586259
H30   H     H_    0.854299 0.154376 0.541529 0.197467
H31   H     H_    0.778688 0.047272 0.499695 0.204162
H32   H     H_    0.033153 0.070662 0.513271 0.198703

loop_
_geom_bond_atom_site_label_1
_geom_bond_atom_site_label_2
_ccdc_geom_bond_type
C22   C34   S    
C16   N2    S    
N2    H29   S    
C39   H30   S    
C1    O6    A    
C39   H32   S    
C20   H9    S    
C23   C24   D    
C12   C15   A    
C13   C14   A    
C15   C16   A    
N1    C35   S    
C24   C32   S    
O5    C3    A    
C19   C20   D    
C35   H20   S    
C30   H17   S    
O17   V4    S    
V2    O10   S    
C29   C30   D    
C5    C6    A    
C23   H11   S    
O12   C31   A    
C24   O21   S    
O8    V2    S    
C6    C7    A    
O17   V3    S    
C26   H13   S    
O18   V4    S    
O13   C34   A    
O18   C33   A    
O1    V2    S    
C10   C14   A    
C4    C14   S    
C38   H27   S    
O7    V1    S    
C7    H4    S    
C25   H12   S    
O11   C32   A    
C13   C18   A    
N2    C39   S    
O1    C2    A    
O9    C4    A    
H1    C17   S    
C21   H10   S    
C27   H14   S    
C28   H15   S    
C31   O16   A    
V4    O20   S    
C5    C10   A    
C11   C12   A    
O19   V4    S    
C6    H3    S    
O4    C2    A    
C37   H24   S    
C12   C13   A    
O15   C33   A    
C18   H7    S    
O13   V3    S    
O14   C32   A    
O2    C1    A    
C16   C17   A    
C36   H22   S    
O16   V4    S    
O14   V3    S    
N1    H18   S    
C38   H28   S    
O3    C4    A    
C25   C26   D    
C36   H23   S    
O6    V2    S    
O9    V2    S    
C9    C11   A    
C5    H2    S    
C21   C22   D    
O2    V1    S    
C27   C28   D    
C23   C25   S    
O12   V3    S    
C22   N1    S    
C35   H19   S    
O19   C34   A    
C37   C38   S    
O5    V1    S    
O8    C3    A    
C39   H31   S    
C19   C21   S    
C8    H5    S    
C1    C26   S    
C3    C20   S    
O7    V2    S    
O4    V1    S    
O3    V1    S    
V1    O10   S    
C19   H8    S    
C28   C31   S    
C35   H21   S    
C17   C18   A    
O15   V3    S    
O11   V4    S    
C29   H16   S    
V3    O20   S    
C37   H25   S    
C36   C37   S    
C7    C8    A    
C15   H6    S    
O21   C36   S    
C9    C10   A    
C38   H26   S    
C8    C9    A    
C2    C30   S    
C27   C29   S    
C11   C33   S    
