data_mof_unit_14383.cif
_audit_creation_date              2012-12-10T18:59:17-0500
_audit_creation_method            fapswitch 2.2
_symmetry_space_group_name_H-M    P1
_symmetry_Int_Tables_number       1
_space_group_crystal_system       triclinic
_cell_length_a                    10.74789
_cell_length_b                    10.838089
_cell_length_c                    9.538833
_cell_angle_alpha                 89.627651
_cell_angle_beta                  89.31397
_cell_angle_gamma                 90.652838
_cell_volume                      1110.96988001

loop_
_atom_site_label
_atom_site_type_symbol
_atom_type_description
_atom_site_fract_x
_atom_site_fract_y
_atom_site_fract_z
_atom_type_partial_charge
C1    C     C_R   0.501434 0.262350 0.500333 0.765435
C2    C     C_R   0.062628 0.411950 0.624301 0.106773
C3    C     C_R   0.128213 0.456668 0.503390 -0.160180
C4    C     C_R   0.065936 0.459960 0.375479 -0.248890
C5    C     C_R   0.937954 0.441808 0.370073 0.147701
C6    C     C_R   0.868973 0.444647 0.497396 -0.155117
C7    C     C_R   0.508996 0.062857 0.626306 0.132771
C8    C     C_R   0.511670 0.129415 0.500470 -0.088618
C9    C     C_R   0.527892 0.065700 0.373842 -0.225488
C10   C     C_R   0.525885 0.937250 0.373395 -0.215054
C11   C     C_R   0.509348 0.871155 0.499469 -0.100709
C12   C     C_R   0.262275 0.486267 0.501340 0.810851
C13   C     C_R   0.507478 0.935615 0.625703 0.117979
C14   C     C_3   0.414919 0.928250 0.743752 -0.458085
C15   C     C_3   0.417700 0.068106 0.745388 -0.489308
C16   C     C_R   0.527984 0.605628 0.072026 0.261507
C17   C     C_R   0.457761 0.400690 0.075693 -0.084234
C18   C     C_R   0.457284 0.400963 0.926973 -0.105973
C19   C     C_R   0.529923 0.604620 0.924779 0.267806
C20   C     C_3   0.649210 0.675410 0.915903 -0.497788
C21   C     C_3   0.645347 0.680964 0.074789 -0.517758
C22   C     C_R   0.500577 0.737746 0.499685 0.819324
C23   C     C_R   0.736232 0.480499 0.499229 0.794913
C24   C     C_R   0.123575 0.362898 0.742997 -0.163202
C25   C     C_R   0.056224 0.314910 0.856678 -0.163883
C26   C     C_R   0.927416 0.309615 0.852797 -0.155544
C27   C     C_R   0.864834 0.353665 0.736388 -0.161696
C28   C     C_R   0.930493 0.407507 0.621445 0.073179
Cu1   Cu    Cu3+1 0.499990 0.499980 0.640670 0.927864
Cu2   Cu    Cu3+1 0.500010 0.500020 0.359330 0.934432
H1    H     H_    0.117587 0.472633 0.278084 0.164403
H2    H     H_    0.454059 0.886545 0.840048 0.190248
H3    H     H_    0.327904 0.110325 0.715403 0.195286
H4    H     H_    0.460375 0.105760 0.841860 0.185573
H5    H     H_    0.425066 0.319452 0.131799 0.139119
H6    H     H_    0.423801 0.320387 0.872787 0.132192
H7    H     H_    0.727173 0.619268 0.874259 0.221844
H8    H     H_    0.638850 0.767006 0.864869 0.194319
H9    H     H_    0.724008 0.634389 0.124891 0.206347
H10   H     H_    0.629672 0.775816 0.113101 0.185341
H11   H     H_    0.222718 0.351559 0.747247 0.154773
H12   H     H_    0.104502 0.276454 0.945563 0.130734
H13   H     H_    0.875892 0.265661 0.937388 0.140755
H14   H     H_    0.765968 0.335400 0.734199 0.163356
H15   H     H_    0.536128 0.114451 0.274599 0.159111
H16   H     H_    0.531220 0.890531 0.274053 0.154086
H17   H     H_    0.323797 0.888793 0.711308 0.200786
N1    N     N_R   0.500790 0.500930 0.147930 -0.181497
N2    N     N_R   0.500790 0.500890 0.852020 -0.184677
O1    O     O_R   0.500000 0.319640 0.618810 -0.600571
O2    O     O_R   0.500010 0.319680 0.381230 -0.597442
O3    O     O_R   0.319640 0.499980 0.618820 -0.587096
O4    O     O_R   0.319650 0.500020 0.381230 -0.577187
O5    O     O_R   0.499990 0.680320 0.618770 -0.573322
O6    O     O_R   0.500000 0.680360 0.381190 -0.578776
O7    O     O_R   0.680350 0.499980 0.618770 -0.587484
O8    O     O_R   0.680360 0.500020 0.381180 -0.570959
C29   C     C_3   0.882610 0.403092 0.231111 -0.370537
C30   C     C_3   0.821726 0.274848 0.242137 -0.795513
H18   H     H_    0.755359 0.268416 0.331848 0.252046
H19   H     H_    0.768706 0.254814 0.145746 0.222168
H20   H     H_    0.894220 0.203656 0.255625 0.239875
H21   H     H_    0.815510 0.470450 0.192695 0.217751
H22   H     H_    0.955777 0.399179 0.147985 0.185943

loop_
_geom_bond_atom_site_label_1
_geom_bond_atom_site_label_2
_ccdc_geom_bond_type
C25   H12   S    
C10   H16   S    
Cu2   O2    S    
C15   H4    S    
C9    H15   S    
C16   C21   S    
C20   H7    S    
Cu1   O7    S    
C1    C8    S    
C20   H8    S    
C9    C10   A    
C19   N2    A    
C11   C22   S    
C12   O4    A    
C21   H9    S    
C17   N1    A    
C7    C13   A    
C10   C11   A    
C16   N1    A    
C7    C15   S    
C2    C3    A    
C25   C26   A    
C22   O6    A    
C30   H18   S    
C22   O5    A    
Cu1   N2    S    
C13   C14   S    
C20   C21   S    
C29   H22   S    
C24   H11   S    
C1    O2    A    
C26   C27   A    
C14   H17   S    
C21   H10   S    
C5    C29   S    
C16   C19   A    
C6    C23   S    
C27   H14   S    
Cu2   N1    S    
C12   O3    A    
C26   H13   S    
C17   C18   A    
Cu1   O1    S    
C2    C24   A    
C5    C6    A    
Cu2   O4    S    
C30   H19   S    
C11   C13   A    
C7    C8    A    
Cu1   O5    S    
Cu1   Cu2   S    
C3    C4    A    
C4    H1    S    
Cu2   O8    S    
C23   O7    A    
C24   C25   A    
C1    O1    A    
C29   H21   S    
C23   O8    A    
C14   C15   S    
C4    C5    A    
C30   H20   S    
C2    C28   A    
C3    C12   S    
C17   H5    S    
C29   C30   S    
C18   H6    S    
Cu2   O6    S    
C15   H3    S    
C6    C28   A    
C19   C20   S    
C18   N2    A    
C14   H2    S    
C8    C9    A    
C27   C28   A    
Cu1   O3    S    
