data_mof_unit_34531.cif
_audit_creation_date              2012-12-10T17:17:30-0500
_audit_creation_method            fapswitch 2.2
_symmetry_space_group_name_H-M    P1
_symmetry_Int_Tables_number       1
_space_group_crystal_system       triclinic
_cell_length_a                    10.277935
_cell_length_b                    10.66582
_cell_length_c                    12.753995
_cell_angle_alpha                 93.095402
_cell_angle_beta                  110.054654
_cell_angle_gamma                 93.073994
_cell_volume                      1307.55134866

loop_
_atom_site_label
_atom_site_type_symbol
_atom_type_description
_atom_site_fract_x
_atom_site_fract_y
_atom_site_fract_z
_atom_type_partial_charge
C1    C     C_R   0.050842 0.732970 0.496744 0.943120
C2    C     C_R   0.212840 0.521043 0.832828 -0.235112
C3    C     C_2   0.078839 0.867149 0.502039 -0.385815
C4    C     C_R   0.134390 0.507963 0.712646 0.982052
C5    C     C_2   0.057132 0.942758 0.580879 0.257269
C6    C     C_2   0.947478 0.136496 0.537408 -0.511819
C7    C     C_2   0.063883 0.075093 0.567943 0.632270
C8    C     C_2   0.430620 0.515781 0.503510 0.016013
C9    C     C_2   0.572897 0.480487 0.502876 0.210396
C10   C     C_R   0.954806 0.267265 0.512058 1.005583
C11   C     C_R   0.864725 0.484131 0.286388 0.926790
C12   C     C_R   0.440727 0.526959 0.976063 0.013030
C13   C     C_R   0.768354 0.407293 0.970683 -0.092592
C14   C     C_R   0.789853 0.465790 0.163982 -0.306623
C15   C     C_R   0.169671 0.603479 0.902635 0.652944
C16   C     C_R   0.264459 0.653998 0.005569 0.379187
C17   C     C_R   0.400085 0.617842 0.040575 -0.190467
C18   C     C_R   0.346944 0.476408 0.872358 -0.224112
C19   C     C_R   0.574940 0.484962 0.013326 -0.081595
C20   C     C_R   0.627413 0.426084 0.936988 -0.208837
C21   C     C_R   0.534133 0.372435 0.835167 0.581278
C22   C     C_R   0.392902 0.384772 0.810603 0.617538
C23   C     C_R   0.644832 0.472815 0.125957 0.315508
C24   C     C_R   0.853957 0.436258 0.082531 0.397312
F1    F     F_    0.673450 0.666205 0.590135 -0.513310
F2    F     F_    0.577002 0.295679 0.766985 -0.587476
F3    F     F_    0.039358 0.643273 0.866580 -0.541459
F4    F     F_    0.302371 0.302964 0.730818 -0.552596
F5    F     F_    0.190293 0.129430 0.577274 -0.519556
H1    H     H_    0.848578 0.090154 0.532643 0.168028
H2    H     H_    0.422914 0.261386 0.068080 0.380056
H3    H     H_    0.283648 0.838671 0.260111 0.388877
H4    H     H_    0.104601 0.905875 0.433775 0.149051
H5    H     H_    0.582832 0.392225 0.462107 0.176859
H6    H     H_    0.425535 0.605322 0.545883 0.169731
H7    H     H_    0.810373 0.367146 0.910407 0.235832
H8    H     H_    0.475143 0.662569 0.117270 0.222316
H9    H     H_    0.231280 0.502165 0.213693 0.419885
H10   H     H_    0.985594 0.059858 0.775531 0.362618
H11   H     H_    0.193376 0.117860 0.352344 0.377955
N1    N     N_2   0.313640 0.446500 0.454900 0.035076
N2    N     N_2   0.686360 0.553430 0.545150 0.144186
O1    O     O_R   0.936910 0.692950 0.509080 -0.551092
O2    O     O_2   0.064871 0.394584 0.008126 -0.287558
O3    O     O_3   0.136081 0.529241 0.196736 -0.486204
O4    O     O_2   0.917934 0.821605 0.694893 -0.156475
O5    O     O_2   0.170532 0.811566 0.756753 -0.279654
O6    O     O_3   0.074852 0.019931 0.801448 -0.435371
O7    O     O_2   0.381236 0.282187 0.321131 -0.199016
O8    O     O_2   0.421238 0.228967 0.513025 -0.198066
O9    O     O_3   0.171743 0.204646 0.368517 -0.438752
O10   O     O_2   0.621417 0.306360 0.271849 -0.281831
O11   O     O_2   0.508054 0.504388 0.268228 -0.302831
O12   O     O_R   0.138320 0.658600 0.480130 -0.625511
O13   O     O_3   0.393853 0.330939 0.107674 -0.446232
O14   O     O_2   0.243769 0.898553 0.043018 -0.185253
O15   O     O_2   0.068967 0.753607 0.073021 -0.191069
O16   O     O_3   0.319225 0.773668 0.220787 -0.536566
O17   O     O_R   0.002900 0.525670 0.675280 -0.539609
O18   O     O_R   0.204310 0.491320 0.646330 -0.611376
O19   O     O_R   0.861680 0.341400 0.519870 -0.637544
O20   O     O_R   0.063090 0.307050 0.490920 -0.481120
O21   O     O_R   0.795690 0.508680 0.353670 -0.574824
O22   O     O_R   0.997100 0.474330 0.324720 -0.547649
O23   O     O_2   0.057998 0.289797 0.171072 -0.203108
S1    S     S_3+6 0.031755 0.409719 0.113865 0.114370
S2    S     S_3+6 0.053436 0.893948 0.710241 0.135280
S3    S     S_3+6 0.325395 0.289447 0.414925 0.212110
S4    S     S_3+6 0.542923 0.402870 0.198325 0.057938
S5    S     S_3+6 0.219486 0.773647 0.085069 0.137250
Zn1   Zn    Zn3+2 0.865520 0.522940 0.519330 1.173790
Zn2   Zn    Zn3+2 0.134480 0.477060 0.480670 1.156584

loop_
_geom_bond_atom_site_label_1
_geom_bond_atom_site_label_2
_ccdc_geom_bond_type
C12   C17   A    
C6    C10   S    
C2    C4    S    
C1    O12   A    
C6    C7    D    
C7    F5    S    
O7    S3    D    
C24   S1    S    
O15   S5    D    
C2    C18   A    
H11   O9    S    
C23   S4    S    
O2    S1    D    
C19   C20   A    
C13   C20   A    
H3    O16   S    
C5    S2    S    
O11   S4    D    
O19   Zn1   S    
O1    Zn1   S    
O20   Zn2   S    
O4    S2    D    
C17   H8    S    
C21   C22   A    
C8    N1    D    
C2    C15   A    
C4    O18   A    
C9    N2    D    
C10   O20   A    
F1    N2    S    
O8    S3    D    
O13   S4    S    
N1    Zn2   S    
C12   C19   A    
O5    S2    D    
N2    Zn1   S    
C6    H1    S    
C21   F2    S    
O21   Zn1   S    
O23   S1    D    
N1    S3    S    
C11   O21   A    
O9    S3    S    
O22   Zn2   S    
O6    S2    S    
C9    H5    S    
C11   C14   S    
C10   O19   A    
C16   C17   A    
O18   Zn2   S    
C14   C24   A    
C15   C16   A    
C3    C5    D    
O14   S5    D    
C16   S5    S    
C20   C21   A    
C4    O17   A    
C13   H7    S    
C11   O22   A    
C12   C18   A    
O3    S1    S    
C5    C7    S    
C3    H4    S    
C19   C23   A    
C8    C9    S    
H9    O3    S    
C22   F4    S    
O10   S4    D    
C14   C23   A    
O12   Zn2   S    
H2    O13   S    
C18   C22   A    
C15   F3    S    
C1    O1    A    
O16   S5    S    
C13   C24   A    
O17   Zn1   S    
H10   O6    S    
C1    C3    S    
C8    H6    S    
