data_mof_unit_49305.cif
_audit_creation_date              2012-12-10T16:51:28-0500
_audit_creation_method            fapswitch 2.2
_symmetry_space_group_name_H-M    P1
_symmetry_Int_Tables_number       1
_space_group_crystal_system       triclinic
_cell_length_a                    7.830402
_cell_length_b                    8.560857
_cell_length_c                    12.526149
_cell_angle_alpha                 92.164893
_cell_angle_beta                  103.318498
_cell_angle_gamma                 93.814907
_cell_volume                      814.075164876

loop_
_atom_site_label
_atom_site_type_symbol
_atom_type_description
_atom_site_fract_x
_atom_site_fract_y
_atom_site_fract_z
_atom_type_partial_charge
C1    C     C_R   0.044376 0.794489 0.497506 0.947270
C2    C     C_R   0.187642 0.558890 0.822651 -0.124208
C3    C     C_2   0.067770 0.958141 0.496609 -0.377183
C4    C     C_R   0.111663 0.509830 0.708864 0.843856
C5    C     C_2   0.932439 0.041864 0.503837 -0.389098
C6    C     C_R   0.955725 0.205530 0.502667 0.969049
C7    C     C_R   0.895194 0.509388 0.293044 0.889008
C8    C     C_R   0.893609 0.460081 0.001735 -0.276194
C9    C     C_R   0.849407 0.540245 0.177702 -0.205506
C10   C     C_R   0.120266 0.690186 0.864259 -0.185088
C11   C     C_R   0.225032 0.785581 0.949489 -0.130762
C12   C     C_R   0.453048 0.603835 0.967427 0.137035
C13   C     C_R   0.390635 0.743119 0.001029 -0.172859
C14   C     C_3   0.210762 0.689656 0.208356 0.134831
C15   C     C_3   0.093899 0.829988 0.186504 -0.444917
C16   C     C_3   0.202158 0.986823 0.218932 -0.917212
C17   C     C_R   0.356890 0.514901 0.873852 0.082523
C18   C     C_R   0.618398 0.559449 0.018824 0.074876
C19   C     C_R   0.712445 0.467998 0.959566 0.075015
C20   C     C_R   0.620741 0.382385 0.864647 -0.200901
C21   C     C_R   0.439471 0.393007 0.829613 -0.206636
C22   C     C_R   0.683481 0.585576 0.131252 -0.345141
C23   C     C_R   0.967593 0.519065 0.109376 0.537409
H1    H     H_    0.804519 0.990834 0.510396 0.177236
H2    H     H_    0.368188 0.311354 0.763985 0.165757
H3    H     H_    0.195798 0.009213 0.490392 0.177057
H4    H     H_    0.340541 0.725588 0.193929 0.147422
H5    H     H_    0.246034 0.671662 0.297218 0.180457
H6    H     H_    0.022822 0.828923 0.099044 0.231385
H7    H     H_    0.994357 0.822727 0.236825 0.207762
H8    H     H_    0.274115 0.990271 0.306533 0.258219
H9    H     H_    0.113443 0.083899 0.207365 0.278066
H10   H     H_    0.298531 0.005018 0.167143 0.257078
H11   H     H_    0.469184 0.377399 0.417120 0.200427
H12   H     H_    0.530749 0.622578 0.582870 0.194569
H13   H     H_    0.685955 0.300634 0.822439 0.150819
H14   H     H_    0.975187 0.409988 0.952429 0.161986
H15   H     H_    0.600367 0.625851 0.182961 0.179520
H16   H     H_    0.994695 0.729737 0.822674 0.155763
H17   H     H_    0.473009 0.822524 0.064401 0.119152
H18   H     H_    0.180327 0.895841 0.972732 0.142969
N1    N     N_2   0.434800 0.456690 0.470850 -0.186135
N2    N     N_2   0.565200 0.543310 0.529150 -0.181862
O1    O     O_R   0.893060 0.738880 0.507150 -0.615699
O2    O     O_R   0.172250 0.711130 0.488470 -0.649283
O3    O     O_R   0.944700 0.520730 0.667600 -0.613792
O4    O     O_R   0.223890 0.492980 0.648920 -0.617822
O5    O     O_R   0.827750 0.288870 0.511530 -0.625093
O6    O     O_R   0.106940 0.261120 0.492850 -0.610301
O7    O     O_R   0.776110 0.507020 0.351080 -0.620218
O8    O     O_R   0.055300 0.479270 0.332400 -0.606682
O9    O     O_3   0.149915 0.544619 0.145023 -0.634351
Zn1   Zn    Zn3+2 0.813580 0.518530 0.512470 0.930458
Zn2   Zn    Zn3+2 0.186420 0.481470 0.487530 0.929969

loop_
_geom_bond_atom_site_label_1
_geom_bond_atom_site_label_2
_ccdc_geom_bond_type
C12   C17   A    
C2    C10   A    
C2    C4    S    
C11   H18   S    
C16   H10   S    
C16   H9    S    
H12   N2    S    
N1    N2    D    
C1    O1    A    
C19   C20   A    
H11   N1    S    
O8    Zn2   S    
C14   H5    S    
C7    O8    A    
C4    O3    A    
C20   C21   A    
C16   H8    S    
C2    C17   A    
C11   C13   A    
C1    O2    A    
C23   O9    S    
C5    C6    S    
C5    H1    S    
C6    O5    A    
O4    Zn2   S    
O3    Zn1   S    
O2    Zn2   S    
C15   H6    S    
C6    O6    A    
O5    Zn1   S    
C14   H4    S    
C14   O9    S    
C9    C22   A    
C8    C19   A    
C10   C11   A    
C13   H17   S    
O6    Zn2   S    
O7    Zn1   S    
N1    Zn2   S    
C8    C23   A    
C12   C13   A    
C15   H7    S    
C18   C19   A    
C8    H14   S    
C12   C18   A    
C7    C9    S    
C21   H2    S    
C14   C15   S    
C9    C23   A    
C20   H13   S    
C3    C5    D    
C18   C22   A    
O1    Zn1   S    
N2    Zn1   S    
C3    H3    S    
C17   C21   A    
C15   C16   S    
C7    O7    A    
C10   H16   S    
C1    C3    S    
C4    O4    A    
C22   H15   S    
