data_mof_unit_49314.cif
_audit_creation_date              2012-12-11T16:08:34-0500
_audit_creation_method            fapswitch 2.2
_symmetry_space_group_name_H-M    P1
_symmetry_Int_Tables_number       1
_space_group_crystal_system       triclinic
_cell_length_a                    12.962452
_cell_length_b                    13.270035
_cell_length_c                    27.751396
_cell_angle_alpha                 94.364461
_cell_angle_beta                  90.286234
_cell_angle_gamma                 119.287338
_cell_volume                      4146.43809233

loop_
_atom_site_label
_atom_site_type_symbol
_atom_type_description
_atom_site_fract_x
_atom_site_fract_y
_atom_site_fract_z
_atom_type_partial_charge
C1    C     C_R   0.627311 0.897184 0.426786 0.575726
C2    C     C_R   0.732790 0.445263 0.239865 -0.080461
C3    C     C_R   0.722780 0.427955 0.289068 -0.075606
C4    C     C_R   0.666611 0.315103 0.303406 0.065767
C5    C     C_R   0.687468 0.349920 0.204851 0.080797
C6    C     C_1   0.695342 0.369645 0.154428 0.002289
C7    C     C_1   0.651602 0.295168 0.353738 -0.004358
C8    C     C_1   0.703722 0.395349 0.113360 0.021739
C9    C     C_R   0.134436 0.743479 0.357511 0.224508
C10   C     C_R   0.112614 0.730573 0.307234 -0.019047
C11   C     C_R   0.090406 0.709335 0.205960 -0.009783
C12   C     C_R   0.601073 0.222192 0.440558 0.548423
C13   C     C_R   0.054835 0.610143 0.231237 0.211530
C14   C     C_R   0.063689 0.621095 0.281389 -0.055625
C15   C     C_R   0.079227 0.699778 0.156022 -0.142363
C16   C     C_R   0.106472 0.796318 0.130431 0.002837
C17   C     C_R   0.224372 0.953107 0.356465 -0.163729
C18   C     C_R   0.199108 0.941232 0.307107 0.006091
C19   C     C_R   0.148016 0.830384 0.281869 0.015069
C20   C     C_R   0.232458 0.039674 0.282253 -0.124481
C21   C     C_R   0.217644 0.029232 0.232137 -0.082362
C22   C     C_R   0.170188 0.919925 0.205813 0.033832
C23   C     C_R   0.266749 0.875898 0.426583 0.571211
C24   C     C_R   0.135444 0.819817 0.231180 -0.008051
C25   C     C_R   0.155049 0.907697 0.154965 0.213272
C26   C     C_R   0.200863 0.855847 0.380855 0.016572
C27   C     C_R   0.717649 0.965724 0.350840 -0.142437
C28   C     C_R   0.719292 0.954998 0.300811 -0.047030
C29   C     C_R   0.720742 0.929814 0.199775 -0.026250
C30   C     C_R   0.784556 0.040952 0.224656 0.252119
C31   C     C_R   0.784923 0.053571 0.275177 0.251127
C32   C     C_R   0.729830 0.913191 0.150048 -0.092206
C33   C     C_R   0.676093 0.801501 0.126581 -0.013982
C34   C     C_R   0.627306 0.898215 0.564872 0.555432
C35   C     C_R   0.582937 0.758528 0.352556 0.217368
C36   C     C_R   0.584584 0.745013 0.301776 0.038753
C37   C     C_R   0.651547 0.844049 0.276026 -0.023150
C38   C     C_R   0.519512 0.635331 0.275916 -0.084451
C39   C     C_R   0.521739 0.623205 0.225823 -0.130161
C40   C     C_R   0.588701 0.720174 0.200527 0.021660
C41   C     C_R   0.652562 0.831668 0.225438 0.014946
C42   C     C_R   0.599344 0.706090 0.151009 -0.123347
C43   C     C_R   0.646915 0.870326 0.376689 0.006472
C44   C     C_R   0.740415 0.294887 0.651313 -0.123288
C45   C     C_R   0.603517 0.227457 0.578238 0.559802
C46   C     C_R   0.755728 0.321647 0.701442 0.016247
C47   C     C_R   0.770675 0.354000 0.803098 0.011041
C48   C     C_R   0.855270 0.336372 0.778216 -0.119101
C49   C     C_R   0.847094 0.319023 0.727693 -0.121944
C50   C     C_R   0.777504 0.371541 0.853703 -0.128183
C51   C     C_R   0.691619 0.388844 0.877749 -0.002207
C52   C     C_R   0.570705 0.326351 0.650258 -0.101959
C53   C     C_R   0.582408 0.349520 0.700180 0.039942
C54   C     C_R   0.673314 0.344191 0.726101 0.081298
C55   C     C_R   0.499224 0.369512 0.724773 -0.095677
C56   C     C_R   0.271703 0.879122 0.563387 0.554541
C57   C     C_R   0.503020 0.379478 0.775026 -0.109803
C58   C     C_R   0.591692 0.372261 0.801058 0.017444
C59   C     C_R   0.678901 0.357190 0.776772 0.072363
C60   C     C_R   0.596251 0.383530 0.851123 -0.123728
C61   C     C_R   0.643650 0.290546 0.626191 0.006576
C62   C     C_1   0.222730 0.862326 0.610193 0.027201
C63   C     C_R   0.069601 0.760749 0.718617 -0.140225
C64   C     C_R   0.053188 0.750636 0.768113 -0.088814
C65   C     C_R   0.246135 0.919988 0.786376 -0.045202
C66   C     C_R   0.263157 0.930481 0.736829 0.261542
C67   C     C_1   0.632822 0.268967 0.394678 0.027248
C68   C     C_R   0.174715 0.849987 0.702715 0.048560
C69   C     C_R   0.141794 0.829577 0.802056 0.025840
C70   C     C_1   0.124144 0.816309 0.852823 -0.018818
C71   C     C_1   0.195267 0.854532 0.651736 0.004522
C72   C     C_1   0.100471 0.798467 0.894345 0.013415
C73   C     C_1   0.648600 0.858005 0.608512 0.006006
C74   C     C_R   0.790961 0.874688 0.720786 -0.068243
C75   C     C_R   0.804557 0.860734 0.769516 0.253582
C76   C     C_R   0.600919 0.704112 0.766725 -0.147486
C77   C     C_R   0.587804 0.718511 0.718035 -0.112809
C78   C     C_R   0.621530 0.219770 0.268398 -0.069793
C79   C     C_R   0.682292 0.804936 0.695130 -0.001064
C80   C     C_R   0.708396 0.776368 0.792939 0.046369
C81   C     C_1   0.718202 0.766208 0.843998 0.002425
C82   C     C_1   0.664554 0.830540 0.647180 -0.039623
C83   C     C_1   0.729886 0.760271 0.886702 0.016318
C84   C     C_R   0.062309 0.770600 0.079919 0.582226
C85   C     C_R   0.716900 0.441073 0.067277 0.551791
C86   C     C_R   0.719321 0.782055 0.080514 0.550517
C87   C     C_R   0.056565 0.766578 0.941244 0.542577
C88   C     C_R   0.711011 0.436499 0.928413 0.540113
C89   C     C_R   0.632097 0.237095 0.219205 -0.046148
C90   C     C_R   0.749853 0.754250 0.937128 0.554146
Cr1   Cr    Cr6+3 0.416430 0.829200 0.492370 1.134211
Cr2   Cr    Cr6+3 0.674630 0.087020 0.504170 1.058464
Cr3   Cr    Cr6+3 0.408920 0.083740 0.503490 1.052548
Cr4   Cr    Cr6+3 0.914010 0.832750 0.013970 1.114060
Cr5   Cr    Cr6+3 0.922310 0.578600 0.003000 1.050264
Cr6   Cr    Cr6+3 0.656280 0.574630 0.003870 1.042580
H1    H     H_    0.577748 0.132037 0.279161 0.113314
H2    H     H_    0.245051 0.107687 0.214427 0.190225
H3    H     H_    0.272145 0.125293 0.301553 0.134645
H4    H     H_    0.786490 0.985398 0.129813 0.200623
H5    H     H_    0.766213 0.051022 0.369961 0.208614
H6    H     H_    0.472801 0.537325 0.206902 0.134500
H7    H     H_    0.466989 0.557796 0.293957 0.189849
H8    H     H_    0.926564 0.334251 0.797833 0.131993
H9    H     H_    0.911234 0.302128 0.709201 0.122223
H10   H     H_    0.529352 0.397020 0.869116 0.144997
H11   H     H_    0.436723 0.392917 0.793537 0.114304
H12   H     H_    0.429100 0.373733 0.705177 0.115333
H13   H     H_    0.497425 0.325511 0.630839 0.139081
H14   H     H_    0.775442 0.532972 0.229083 0.117018
H15   H     H_    0.971791 0.680605 0.779931 0.127014
H16   H     H_    0.314591 0.981445 0.812519 0.150101
H17   H     H_    0.526370 0.638491 0.784234 0.115232
H18   H     H_    0.757735 0.502204 0.315773 0.139669
H19   H     H_    0.040993 0.614390 0.136850 0.208460
O1    O     O_R   0.296680 0.802170 0.437540 -0.430844
O2    O     O_R   0.662610 0.183990 0.557860 -0.501678
O3    O     O_R   0.500730 0.201280 0.562180 -0.505100
O4    O     O_R   0.312500 0.978850 0.548170 -0.486401
O5    O     O_3   0.499990 0.999990 0.500010 -0.275689
O6    O     O_R   0.820790 0.857990 0.068830 -0.487147
O7    O     O_R   0.016700 0.827330 0.062850 -0.437627
O8    O     O_R   0.041970 0.673520 0.060040 -0.523103
O9    O     O_R   0.817980 0.483660 0.048840 -0.483388
O10   O     O_R   0.637200 0.461990 0.052510 -0.501675
O11   O     O_R   0.664790 0.681920 0.057970 -0.501336
O12   O     O_R   0.525380 0.838530 0.443500 -0.439574
O13   O     O_R   0.815840 0.852920 0.961840 -0.476639
O14   O     O_R   0.012100 0.822630 0.963670 -0.494475
O15   O     O_R   0.037010 0.668460 0.953040 -0.508907
O16   O     O_R   0.813390 0.478970 0.949660 -0.501563
O17   O     O_R   0.632250 0.456930 0.945520 -0.521958
O18   O     O_R   0.660200 0.677230 0.958780 -0.498036
O19   O     O_3   0.830870 0.661990 0.006950 -0.295651
O20   O     O_R   0.702130 0.995190 0.446810 -0.526247
O21   O     O_R   0.661770 0.181390 0.458760 -0.486685
O22   O     O_R   0.499820 0.198480 0.455280 -0.507776
O23   O     O_R   0.311660 0.976250 0.449080 -0.524023
O24   O     O_R   0.297580 0.804960 0.544440 -0.497491
O25   O     O_R   0.526220 0.841130 0.542590 -0.487007
O26   O     O_R   0.703030 0.997990 0.553710 -0.506395
H20   H     H_    0.272459 0.039700 0.374884 0.148765
Cl1   Cl    Cl    0.867286 0.165455 0.193189 -0.457307
Cl2   Cl    Cl    0.870001 0.194190 0.305601 -0.500762
H21   H     H_    0.556649 0.619372 0.132577 0.143413
H22   H     H_    0.596452 0.162833 0.192496 0.135181
Cl3   Cl    Cl    0.503109 0.636888 0.386038 -0.570416
H23   H     H_    0.851476 0.376145 0.874091 0.136366
H24   H     H_    0.798146 0.268985 0.632630 0.133736
H25   H     H_    0.001208 0.697944 0.692793 0.118811
Cl4   Cl    Cl    0.397309 0.043756 0.718653 -0.615109
H26   H     H_    0.864108 0.942192 0.703365 0.147778
Cl5   Cl    Cl    0.941784 0.952925 0.800638 -0.609643
H27   H     H_    0.503048 0.664564 0.698693 0.126666
Cl6   Cl    Cl    0.081907 0.620458 0.391171 -0.542623
Cl7   Cl    Cl    0.001477 0.469826 0.201894 -0.505010
H28   H     H_    0.036423 0.543255 0.299561 0.234572
Cl8   Cl    Cl    0.197657 0.030112 0.121903 -0.575521

loop_
_geom_bond_atom_site_label_1
_geom_bond_atom_site_label_2
_ccdc_geom_bond_type
Cr5   O9    S    
C45   O3    A    
C66   C68   A    
C34   O26   A    
C17   C26   A    
C86   O11   A    
C23   O23   A    
C85   O10   A    
C35   C36   A    
Cr2   O2    S    
C63   H25   S    
C53   C54   A    
C84   O8    A    
C46   C49   A    
C29   C30   A    
Cr1   O12   S    
C5    C6    S    
C33   C42   A    
C28   C37   A    
C87   O15   A    
C45   O2    A    
C36   C37   A    
C8    C85   S    
C29   C32   A    
C52   C61   A    
C38   C39   A    
C58   C60   A    
C15   C16   A    
C48   H8    S    
C11   C24   A    
C16   C84   S    
C15   H19   S    
Cr1   O1    S    
C85   O9    A    
C18   C19   A    
C23   C26   S    
C45   C61   S    
C31   Cl2   S    
Cr3   O23   S    
C23   O1    A    
C11   C15   A    
C1    C43   S    
C22   C25   A    
C62   C71   T    
Cr5   O15   S    
Cr3   O5    S    
C35   C43   A    
C75   C80   A    
C13   Cl7   S    
C18   C20   A    
Cr6   O17   S    
C40   C42   A    
C21   C22   A    
Cr5   O16   S    
C74   H26   S    
Cr2   O21   S    
C86   O6    A    
C4    C7    S    
C81   C83   T    
C44   C46   A    
C9    C26   A    
C50   C51   A    
C47   C50   A    
C54   C59   A    
C53   C55   A    
C78   C89   A    
C89   H22   S    
C12   C67   S    
Cr4   O14   S    
C70   C72   T    
C74   C75   A    
C14   H28   S    
C76   C80   A    
C76   C77   A    
C10   C14   A    
C39   C40   A    
C56   O24   A    
C64   H15   S    
Cr6   O19   S    
C58   C59   A    
C63   C64   A    
C47   C59   A    
C27   H5    S    
Cr5   O19   S    
C30   Cl1   S    
C32   H4    S    
C17   H20   S    
C33   C86   S    
C65   H16   S    
C4    C78   A    
C38   H7    S    
C77   H27   S    
C75   Cl5   S    
C47   C48   A    
C10   C19   A    
C46   C54   A    
C78   H1    S    
C17   C18   A    
C77   C79   A    
Cr6   O11   S    
C35   Cl3   S    
C64   C69   A    
Cr2   O26   S    
Cr1   O24   S    
Cr4   O7    S    
C48   C49   A    
C57   H11   S    
C74   C79   A    
C55   C57   A    
C56   O4    A    
C22   C24   A    
C2    C5    A    
Cr3   O3    S    
C88   O17   A    
C3    C4    A    
C73   C82   T    
C25   Cl8   S    
C72   C87   S    
C60   H10   S    
C52   C53   A    
C39   H6    S    
C9    C10   A    
C50   H23   S    
C16   C25   A    
C90   O18   A    
C83   C90   S    
C63   C68   A    
C2    H14   S    
C29   C41   A    
Cr1   O5    S    
C28   C31   A    
C49   H9    S    
C1    O12   A    
C80   C81   S    
C3    H18   S    
C51   C88   S    
C79   C82   S    
C6    C8    T    
Cr6   O18   S    
Cr4   O13   S    
C44   C61   A    
C44   H24   S    
C55   H12   S    
C32   C33   A    
C87   O14   A    
C76   H17   S    
C19   C24   A    
Cr2   O5    S    
C66   Cl4   S    
C1    O20   A    
C36   C38   A    
C21   H2    S    
C11   C13   A    
C57   C58   A    
C30   C31   A    
C20   H3    S    
C52   H13   S    
C68   C71   S    
C65   C69   A    
C34   O25   A    
Cr4   O19   S    
Cr6   O10   S    
C2    C3    A    
C56   C62   S    
C37   C41   A    
C69   C70   S    
Cr3   O22   S    
C34   C73   S    
C7    C67   T    
Cr1   O25   S    
Cr2   O20   S    
Cr4   O6    S    
C27   C43   A    
C20   C21   A    
C9    Cl6   S    
C65   C66   A    
C12   O21   A    
C27   C28   A    
C90   O13   A    
C12   O22   A    
C40   C41   A    
C51   C60   A    
Cr3   O4    S    
C88   O16   A    
C13   C14   A    
C42   H21   S    
C84   O7    A    
C5    C89   A    
Cr5   O8    S    
