data_mof_unit_67804.cif
_audit_creation_date              2012-12-10T16:53:56-0500
_audit_creation_method            fapswitch 2.2
_symmetry_space_group_name_H-M    P1
_symmetry_Int_Tables_number       1
_space_group_crystal_system       triclinic
_cell_length_a                    8.386509
_cell_length_b                    8.503033
_cell_length_c                    10.794249
_cell_angle_alpha                 92.488713
_cell_angle_beta                  84.918653
_cell_angle_gamma                 92.892735
_cell_volume                      765.156755417

loop_
_atom_site_label
_atom_site_type_symbol
_atom_type_description
_atom_site_fract_x
_atom_site_fract_y
_atom_site_fract_z
_atom_type_partial_charge
C1    C     C_R   0.543099 0.791524 0.497003 0.937149
C2    C     C_3   0.511708 0.518548 0.118396 -0.251531
C3    C     C_3   0.474757 0.357573 0.052407 -0.399378
C4    C     C_3   0.689884 0.571305 0.064988 0.100535
C5    C     C_2   0.564364 0.956563 0.495307 -0.336573
C6    C     C_2   0.435540 0.043417 0.503950 -0.276634
C7    C     C_R   0.507132 0.538479 0.735292 0.855632
C8    C     C_R   0.456880 0.208497 0.502933 0.910183
C9    C     C_R   0.501260 0.501405 0.258607 0.860464
C10   C     C_3   0.414556 0.702525 0.947050 -0.065041
C11   C     C_3   0.381159 0.635260 0.083821 0.218024
C12   C     C_3   0.478558 0.384280 0.912618 -0.279075
C13   C     C_3   0.685307 0.601377 0.921232 0.178872
C14   C     C_3   0.517422 0.561622 0.873773 -0.259996
H1    H     H_    0.573320 0.309372 0.866422 0.276950
H2    H     H_    0.556598 0.266486 0.073192 0.232961
H3    H     H_    0.686844 0.005852 0.487081 0.205106
H4    H     H_    0.313060 0.994081 0.512313 0.210916
H5    H     H_    0.020572 0.657940 0.542726 0.241137
H6    H     H_    0.373692 0.735027 0.152559 0.207268
H7    H     H_    0.370175 0.329918 0.874036 0.240237
H8    H     H_    0.362292 0.295823 0.085910 0.271551
H9    H     H_    0.703578 0.723652 0.916014 0.227954
N1    N     N_2   0.950330 0.457950 0.465890 -0.110877
N2    N     N_2   0.049670 0.542050 0.534110 -0.157381
O1    O     O_R   0.389250 0.738570 0.508370 -0.608621
O2    O     O_R   0.678390 0.711620 0.486510 -0.570661
O3    O     O_R   0.355430 0.513500 0.696140 -0.566561
O4    O     O_R   0.644580 0.486550 0.674270 -0.520425
O5    O     O_R   0.321610 0.288380 0.513490 -0.593096
O6    O     O_R   0.610750 0.261430 0.491630 -0.625888
O7    O     O_R   0.355420 0.513450 0.325730 -0.557822
O8    O     O_R   0.644570 0.486500 0.303860 -0.556304
Zn1   Zn    Zn3+2 0.306940 0.517990 0.514600 1.059551
Zn2   Zn    Zn3+2 0.693060 0.482010 0.485400 1.117365
C15   C     C_2   0.265267 0.754100 0.891870 1.231621
O9    O     O_2   0.173117 0.835527 0.958397 -0.455622
O10   O     O_R   0.256281 0.760808 0.763690 -0.774024
H10   H     H_    0.163200 0.821982 0.740709 0.375375
C16   C     C_2   0.802193 0.433258 0.075612 1.063239
O11   O     O_2   0.867757 0.417201 0.169574 -0.465243
O12   O     O_R   0.815660 0.312688 0.983356 -0.758977
H11   H     H_    0.874039 0.219362 0.008916 0.385014
C17   C     C_2   0.981453 0.295041 0.453646 1.157753
O13   O     O_2   0.015301 0.224672 0.543435 -0.634779
O14   O     O_R   0.953572 0.211014 0.343044 -0.742983
H12   H     H_    0.973275 0.094689 0.346742 0.342469
S1    S     S_3+6 0.496262 0.916989 0.950766 -0.002915
O15   O     O_2   0.400093 0.001495 0.055025 -0.270673
O16   O     O_2   0.667379 0.965676 0.966188 -0.243996
O17   O     O_3   0.460593 0.000851 0.817933 -0.564097
H13   H     H_    0.542509 0.959441 0.754899 0.363150
S2    S     S_3+6 0.186168 0.534605 0.102708 0.050834
O18   O     O_2   0.157764 0.416920 0.202772 -0.267189
O19   O     O_2   0.077774 0.663456 0.136341 -0.160686
O20   O     O_3   0.144589 0.435157 0.970915 -0.567134
H14   H     H_    0.130377 0.322714 0.991378 0.382948
S3    S     S_3+6 0.861804 0.582018 0.821228 0.058485
O21   O     O_2   0.863330 0.701735 0.722815 -0.353897
O22   O     O_2   0.984471 0.630951 0.903076 -0.245289
O23   O     O_3   0.896020 0.399942 0.759994 -0.457919
H15   H     H_    0.013451 0.390460 0.757608 0.410098
S4    S     S_3+6 0.757433 0.753297 0.154227 0.092716
O24   O     O_2   0.834870 0.716476 0.268918 -0.216199
O25   O     O_2   0.877345 0.851797 0.076007 -0.161935
O26   O     O_3   0.606228 0.867594 0.205541 -0.580990
H16   H     H_    0.657898 0.970597 0.229180 0.394852

loop_
_geom_bond_atom_site_label_1
_geom_bond_atom_site_label_2
_ccdc_geom_bond_type
C17   O13   D    
C2    C4    S    
S4    O25   D    
C16   O11   D    
C7    O4    A    
C7    C14   S    
O4    Zn2   S    
C11   S2    S    
C12   H1    S    
N2    Zn1   S    
C8    O5    A    
C7    O3    A    
S3    O23   S    
C15   O10   S    
O26   H16   S    
S4    O26   S    
O3    Zn1   S    
C13   S3    S    
C13   C14   S    
O20   H14   S    
C9    O8    A    
C2    C9    S    
C4    S4    S    
O23   H15   S    
C5    C6    D    
C2    C11   S    
S1    O16   D    
S1    O15   D    
O8    Zn2   S    
C12   C14   S    
C2    C3    S    
S2    O19   D    
C10   S1    S    
C1    O1    A    
N1    C17   S    
C6    H4    S    
O6    Zn2   S    
C11   H6    S    
N1    Zn2   S    
C5    H3    S    
O12   H11   S    
O5    Zn1   S    
H5    N2    S    
S3    O22   D    
O17   H13   S    
C4    C16   S    
C1    C5    S    
O10   H10   S    
N1    N2    D    
C13   H9    S    
C10   C11   S    
S2    O20   S    
C4    C13   S    
C1    O2    A    
O14   H12   S    
C15   O9    D    
C3    H8    S    
C6    C8    S    
C3    C12   S    
C9    O7    A    
O2    Zn2   S    
S3    O21   D    
S2    O18   D    
C8    O6    A    
C12   H7    S    
O1    Zn1   S    
S1    O17   S    
C3    H2    S    
S4    O24   D    
C17   O14   S    
C16   O12   S    
C10   C15   S    
C10   C14   S    
O7    Zn1   S    
