data_mof_unit_6446.cif
_audit_creation_date              2012-12-11T14:17:31-0500
_audit_creation_method            fapswitch 2.2
_symmetry_space_group_name_H-M    P1
_symmetry_Int_Tables_number       1
_space_group_crystal_system       triclinic
_cell_length_a                    6.942614
_cell_length_b                    13.63471
_cell_length_c                    20.42217
_cell_angle_alpha                 102.055415
_cell_angle_beta                  89.823843
_cell_angle_gamma                 90.614348
_cell_volume                      1890.42994308

loop_
_atom_site_label
_atom_site_type_symbol
_atom_type_description
_atom_site_fract_x
_atom_site_fract_y
_atom_site_fract_z
_atom_type_partial_charge
O1    O     O_R   0.506860 0.599390 0.449240 -0.541806
O2    O     O_R   0.180220 0.594600 0.586780 -0.550306
O3    O     O_R   0.004500 0.400610 0.550760 -0.543444
C1    C     C_R   0.348899 0.615981 0.613499 0.715960
O4    O     O_R   0.177490 0.611290 0.451970 -0.536783
O5    O     O_R   0.001750 0.417420 0.414990 -0.521051
C2    C     C_R   0.346955 0.637860 0.435143 0.730618
O6    O     O_R   0.509610 0.582580 0.585010 -0.550985
O7    O     O_3   0.337420 0.436370 0.488020 -0.352030
V1    V     V_3+5 0.064680 0.511800 0.502220 1.485306
O8    O     O_R   0.671710 0.405400 0.413220 -0.508404
C3    C     C_R   0.840620 0.383598 0.386720 0.773034
O9    O     O_R   0.674440 0.388710 0.548030 -0.542436
C4    C     C_R   0.842465 0.362269 0.565011 0.690922
V2    V     V_3+5 0.564010 0.488200 0.497780 1.521672
O10   O     O_3   0.841140 0.563630 0.511980 -0.389349
C5    C     C_R   0.843659 0.111746 0.613750 -0.165892
H1    H     H_    0.835969 0.161262 0.520750 0.127669
H2    H     H_    0.846893 0.987021 0.697263 0.117941
H3    H     H_    0.839256 0.033276 0.588965 0.116692
C6    C     C_R   0.848401 0.285674 0.605463 -0.036460
C7    C     C_R   0.868737 0.318345 0.930179 0.094409
C8    C     C_R   0.867540 0.394301 0.893452 0.432225
C9    C     C_R   0.862635 0.370282 0.823658 -0.247570
C10   C     C_R   0.858719 0.269552 0.787888 0.017269
C11   C     C_R   0.858910 0.192214 0.825250 0.035490
C12   C     C_R   0.854736 0.243052 0.716261 0.108950
C13   C     C_R   0.849706 0.140001 0.683909 0.140963
C14   C     C_R   0.850264 0.065701 0.721632 -0.204158
C15   C     C_R   0.855064 0.091122 0.791020 -0.159933
C16   C     C_R   0.855112 0.315030 0.675300 -0.212642
C17   C     C_R   0.842112 0.184225 0.574804 -0.164433
C18   C     C_R   0.864081 0.217259 0.896266 -0.189528
H4    H     H_    0.859049 0.394531 0.695714 0.099028
H5    H     H_    0.862083 0.432784 0.799050 0.157675
H6    H     H_    0.855492 0.030238 0.817594 0.106532
C19   C     C_2   0.991903 0.302290 0.277763 0.328572
C20   C     C_2   0.848877 0.305792 0.324107 0.143805
C21   C     C_2   0.007091 0.222087 0.216392 -0.091389
C22   C     C_2   0.856106 0.191014 0.176276 -0.269935
H7    H     H_    0.150087 0.194769 0.200986 0.167591
H8    H     H_    0.715245 0.223269 0.189179 0.195629
C23   C     C_2   0.204718 0.790286 0.782648 -0.120077
C24   C     C_2   0.364044 0.815765 0.819918 -0.284586
H9    H     H_    0.066786 0.819989 0.802288 0.132994
H10   H     H_    0.502845 0.786442 0.801583 0.132075
C25   C     C_2   0.202814 0.721931 0.715137 -0.123744
C26   C     C_2   0.360828 0.684062 0.680263 -0.301410
H11   H     H_    0.061454 0.702898 0.693227 0.133197
H12   H     H_    0.504005 0.702584 0.700200 0.126399
C27   C     C_R   0.393108 0.887917 0.386917 -0.135172
H13   H     H_    0.389471 0.837788 0.479757 0.103498
H14   H     H_    0.412927 0.012743 0.303596 0.183697
H15   H     H_    0.410800 0.965883 0.411772 0.130887
C28   C     C_R   0.358173 0.714561 0.394896 -0.045056
C29   C     C_R   0.330955 0.684900 0.071387 -0.108014
C30   C     C_R   0.317230 0.609059 0.107245 -0.033734
C31   C     C_R   0.326622 0.631550 0.176943 -0.147037
C32   C     C_R   0.350259 0.731789 0.212910 0.066222
C33   C     C_R   0.364295 0.809242 0.175702 0.058457
C34   C     C_R   0.359948 0.757813 0.284393 0.070841
C35   C     C_R   0.382920 0.860277 0.316795 0.125669
C36   C     C_R   0.395791 0.934560 0.279171 -0.164088
C37   C     C_R   0.386856 0.909672 0.209816 -0.175993
C38   C     C_R   0.347872 0.685846 0.325127 -0.191459
C39   C     C_R   0.380972 0.815384 0.425719 -0.186813
C40   C     C_R   0.354621 0.784636 0.104852 -0.095114
H16   H     H_    0.331338 0.606859 0.304488 0.156531
H17   H     H_    0.322800 0.665802 0.017215 0.148977
H18   H     H_    0.314452 0.568582 0.200944 0.162357
H19   H     H_    0.298794 0.531991 0.080798 0.172172
H20   H     H_    0.397658 0.970278 0.183120 0.129723
O11   O     O_R   0.203230 0.917310 0.915020 -0.542170
O12   O     O_R   0.535500 0.888690 0.048040 -0.536328
O13   O     O_R   0.711080 0.082610 0.085000 -0.539639
C41   C     C_R   0.366031 0.861966 0.064759 0.695835
O14   O     O_R   0.532630 0.905370 0.913230 -0.548806
O15   O     O_R   0.708190 0.099410 0.949230 -0.539355
C42   C     C_R   0.364527 0.884191 0.886512 0.740772
O16   O     O_R   0.206120 0.900510 0.050790 -0.538803
O17   O     O_3   0.375360 0.063570 0.011990 -0.368888
V3    V     V_3+5 0.648170 0.988200 0.997780 1.484839
O18   O     O_R   0.038240 0.111390 0.951940 -0.538219
C43   C     C_R   0.870157 0.138238 0.935340 0.748160
O19   O     O_R   0.041120 0.094710 0.086750 -0.541145
C44   C     C_R   0.871928 0.116973 0.112750 0.767753
V4    V     V_3+5 0.148810 0.011930 0.002180 1.485793
O20   O     O_3   0.871750 0.936430 0.988010 -0.372308
Cl1   Cl    Cl    0.673106 0.209123 0.317437 -0.690066
I1    I     I_    0.877603 0.356927 0.037152 -0.323450
Cl2   Cl    Cl    0.873075 0.521983 0.933457 -0.629563
Cl3   Cl    Cl    0.177151 0.393931 0.286754 -0.665230

loop_
_geom_bond_atom_site_label_1
_geom_bond_atom_site_label_2
_ccdc_geom_bond_type
O18   V4    S    
V4    O20   S    
C2    C28   S    
C1    O6    A    
O17   V3    S    
C25   H11   S    
O19   C44   A    
C6    C16   A    
C20   Cl1   S    
C35   C36   A    
O12   C41   A    
C4    C6    S    
C13   C14   A    
C19   C20   D    
O16   V4    S    
O5    C3    A    
V2    O10   S    
C5    H3    S    
C29   C30   A    
C22   C44   S    
O11   V4    S    
O13   C44   A    
O8    V2    S    
O18   C43   A    
C33   C40   A    
C8    C9    A    
O1    V2    S    
O7    V1    S    
C26   H12   S    
C32   C33   A    
O9    C4    A    
C27   C35   A    
O12   V3    S    
C28   C38   A    
C24   H10   S    
O14   C42   A    
O11   C42   A    
C6    C17   A    
C32   C34   A    
C9    H5    S    
O19   V4    S    
C12   C16   A    
C9    C10   A    
C21   H7    S    
C21   C22   D    
O4    C2    A    
C31   H18   S    
C10   C11   A    
C27   C39   A    
O2    C1    A    
C23   C24   D    
C14   C15   A    
O15   C43   A    
O15   V3    S    
C11   C18   A    
C25   C26   D    
C38   H16   S    
C7    I1    S    
C16   H4    S    
C30   H19   S    
C23   H9    S    
O17   V4    S    
O3    C4    A    
C11   C15   A    
O6    V2    S    
O9    V2    S    
C8    Cl2   S    
H1    C17   S    
O2    V1    S    
C28   C39   A    
H13   C39   S    
C1    C26   S    
C7    C18   A    
C19   Cl3   S    
O1    C2    A    
C5    C13   A    
C24   C42   S    
C41   O16   A    
O5    V1    S    
O8    C3    A    
O13   V3    S    
C10   C12   A    
C29   C40   A    
C15   H6    S    
C33   C37   A    
C27   H15   S    
C31   C32   A    
O4    V1    S    
C19   C21   S    
O3    V1    S    
V1    O10   S    
H14   C36   S    
C30   C31   A    
O14   V3    S    
V3    O20   S    
C22   H8    S    
C37   H20   S    
C3    C20   S    
C34   C35   A    
C18   C43   S    
C36   C37   A    
C34   C38   A    
C29   H17   S    
C12   C13   A    
C5    C17   A    
C7    C8    A    
C40   C41   S    
C23   C25   S    
O7    V2    S    
H2    C14   S    
