data_mof_unit_20232.cif
_audit_creation_date              2013-03-05T15:45:10-0500
_audit_creation_method            fapswitch 2.2
_symmetry_space_group_name_H-M    P1
_symmetry_Int_Tables_number       1
_space_group_crystal_system       triclinic
_cell_length_a                    10.853179
_cell_length_b                    10.88134
_cell_length_c                    9.927531
_cell_angle_alpha                 109.369807
_cell_angle_beta                  98.842268
_cell_angle_gamma                 93.722802
_cell_volume                      1084.42457791

loop_
_atom_site_label
_atom_site_type_symbol
_atom_site_description
_atom_site_fract_x
_atom_site_fract_y
_atom_site_fract_z
_atom_type_partial_charge
O1    O     O_R   0.511700 0.332330 0.577400 -0.618272
O2    O     O_R   0.474680 0.295500 0.332650 -0.518103
C1    C     C_R   0.488606 0.253672 0.442485 0.813409
O3    O     O_R   0.338160 0.518420 0.622400 -0.629972
O4    O     O_R   0.301140 0.481590 0.377650 -0.493090
C2    C     C_R   0.263063 0.500402 0.500200 0.828093
Cu1   Cu    Cu3+1 0.521920 0.521810 0.644910 1.092758
Cu2   Cu    Cu3+1 0.478080 0.478190 0.355090 1.194021
O5    O     O_R   0.525320 0.704500 0.667350 -0.513640
O6    O     O_R   0.488300 0.667670 0.422600 -0.537305
O7    O     O_R   0.698860 0.518410 0.622350 -0.567156
O8    O     O_R   0.661840 0.481580 0.377600 -0.536299
C3    C     C_R   0.496544 0.744718 0.556512 0.840189
C4    C     C_R   0.737931 0.510233 0.502217 0.895346
C5    C     C_R   0.180119 0.725102 0.696235 -0.102638
H1    H     H_    0.279694 0.727607 0.698350 0.171154
C6    C     C_R   0.143588 0.834096 0.792526 -0.192986
H2    H     H_    0.214384 0.911911 0.866270 0.209853
C7    C     C_R   0.017243 0.848071 0.787916 0.130077
C8    C     C_R   0.925420 0.749469 0.686472 0.383255
C9    C     C_R   0.961002 0.628895 0.597071 -0.094658
C10   C     C_R   0.091124 0.619624 0.599920 0.027013
C11   C     C_R   0.130107 0.508037 0.502286 -0.152610
C12   C     C_R   0.042210 0.405366 0.402401 0.305336
C13   C     C_R   0.914343 0.409218 0.405729 0.050098
C14   C     C_R   0.873221 0.518715 0.502409 -0.082188
C15   C     C_2   0.485760 0.112657 0.416067 0.233744
C16   C     C_2   0.412857 0.055468 0.483743 0.016461
C17   C     C_2   0.480238 0.883490 0.579071 0.080214
C18   C     C_2   0.415165 0.916820 0.469723 0.211978
N1    N     N_2   0.445130 0.445430 0.137370 -0.122614
C19   C     C_2   0.519781 0.504130 0.079482 0.457334
N2    N     N_2   0.554930 0.554500 0.862630 -0.093938
C20   C     C_2   0.499805 0.478109 0.919581 0.209968
N3    N     N_R   0.082630 0.293436 0.301770 0.137078
O9    O     O_R   0.165247 0.228115 0.347871 -0.369018
O10   O     O_R   0.035605 0.255323 0.163674 -0.294066
N4    N     N_R   0.567966 0.040849 0.326171 0.132785
O11   O     O_R   0.588200 0.068937 0.213249 -0.248556
O12   O     O_R   0.638778 0.964610 0.370235 -0.236934
N5    N     N_3   0.433815 0.352990 0.829894 -0.561976
H3    H     H_    0.498970 0.290765 0.789900 0.282440
H4    H     H_    0.366758 0.363416 0.748661 0.289597
N6    N     N_R   0.638746 0.571995 0.163402 0.117242
O13   O     O_R   0.741299 0.525659 0.127816 -0.315430
O14   O     O_R   0.645533 0.692802 0.249126 -0.212246
N7    N     N_R   0.591399 0.684652 0.951552 0.278126
O15   O     O_R   0.707603 0.735333 0.973137 -0.199847
O16   O     O_R   0.507025 0.760560 0.995648 -0.238604
N8    N     N_R   0.321580 0.401606 0.064556 0.242303
O17   O     O_R   0.266777 0.292830 0.067154 -0.253462
O18   O     O_R   0.253994 0.479185 0.018152 -0.288508
N9    N     N_3   0.982215 0.967903 0.879391 -0.428774
H5    H     H_    0.025158 0.045962 0.856976 0.265291
H6    H     H_    0.017760 0.979152 0.987424 0.286030
N10   N     N_R   0.801628 0.783365 0.659401 0.092064
O19   O     O_R   0.761153 0.793184 0.533731 -0.306591
O20   O     O_R   0.750151 0.844515 0.768691 -0.222652
N11   N     N_3   0.824693 0.297759 0.316707 -0.509504
H7    H     H_    0.853330 0.213348 0.333836 0.278484
H8    H     H_    0.820582 0.287097 0.207550 0.312562
N12   N     N_R   0.334844 0.821161 0.344750 0.146511
O21   O     O_R   0.252960 0.737989 0.362776 -0.354855
O22   O     O_R   0.323054 0.836878 0.219262 -0.249436
N13   N     N_3   0.320529 0.123961 0.557632 -0.581796
H9    H     H_    0.232100 0.075361 0.500039 0.285161
H10   H     H_    0.330009 0.113099 0.659297 0.245472
N14   N     N_R   0.538826 0.982676 0.714922 0.132634
O23   O     O_R   0.522227 0.970119 0.836938 -0.245387
O24   O     O_R   0.617971 0.078797 0.717320 -0.300967

loop_
_geom_bond_atom_site_label_1
_geom_bond_atom_site_label_2
_geom_bond_distance
_ccdc_geom_bond_type
O4    Cu2   1.968570 S    
N8    O18   1.302836 A    
C9    C14   1.434303 A    
C5    C6    1.379540 A    
C17   C18   1.366556 D    
N10   O20   1.299157 A    
C17   N14   1.438667 S    
N5    H4    1.041081 S    
N5    H3    1.042270 S    
N8    O17   1.299603 A    
N1    C19   1.309234 D    
N7    O15   1.299553 A    
C11   C12   1.406208 A    
Cu2   O8    1.968964 S    
C8    N10   1.425647 S    
C13   N11   1.438779 S    
C7    N9    1.433352 S    
C7    C8    1.412231 A    
C16   C18   1.470642 S    
C6    H2    1.083834 S    
C19   N6    1.429642 S    
Cu1   Cu2   2.715489 S    
N7    O16   1.301555 A    
O1    Cu1   1.934768 S    
N9    H5    1.045961 S    
C8    C9    1.434208 A    
N13   H9    1.045218 S    
Cu1   O7    1.968570 S    
Cu1   N2    2.040104 S    
C19   C20   1.495053 S    
N12   O21   1.301057 A    
C20   N5    1.425668 S    
C4    C14   1.464905 S    
O3    Cu1   1.968964 S    
C2    C11   1.453681 S    
N14   O24   1.301115 A    
N4    O12   1.300138 A    
N6    O14   1.297604 A    
C16   N13   1.434568 S    
O2    C1    1.306300 A    
C1    C15   1.465821 S    
N9    H6    1.045783 S    
C18   N12   1.440733 S    
O4    C2    1.301231 A    
N2    N7    1.390019 S    
O7    C4    1.303869 A    
N11   H8    1.044425 S    
C12   N3    1.439059 S    
N13   H10   1.044979 S    
N10   O19   1.298810 A    
N1    N8    1.392225 S    
C5    H1    1.076068 S    
N11   H7    1.045758 S    
N2    C20   1.311367 D    
C12   C13   1.396228 A    
N3    O10   1.300859 A    
Cu2   O6    1.934768 S    
O3    C2    1.300746 A    
C3    C17   1.477910 S    
C15   C16   1.357013 D    
Cu1   O5    1.922751 S    
O5    C3    1.315800 A    
C10   C11   1.415945 A    
N12   O22   1.301064 A    
C15   N4    1.440752 S    
C6    C7    1.384893 A    
C13   C14   1.407904 A    
C9    C10   1.418987 A    
Cu2   N1    2.039960 S    
C5    C10   1.417270 A    
O2    Cu2   1.922751 S    
N6    O13   1.301317 A    
N3    O9    1.300407 A    
O8    C4    1.306261 A    
N14   O23   1.300802 A    
O1    C1    1.303008 A    
O6    C3    1.301004 A    
N4    O11   1.301001 A    
