data_mof_unit_66228.cif
_audit_creation_date              2012-12-10T18:24:13-0500
_audit_creation_method            fapswitch 2.2
_symmetry_space_group_name_H-M    P1
_symmetry_Int_Tables_number       1
_space_group_crystal_system       triclinic
_cell_length_a                    16.097575
_cell_length_b                    16.092072
_cell_length_c                    16.089156
_cell_angle_alpha                 95.870746
_cell_angle_beta                  84.402473
_cell_angle_gamma                 90.123085
_cell_volume                      4126.03089409

loop_
_atom_site_label
_atom_site_type_symbol
_atom_type_description
_atom_site_fract_x
_atom_site_fract_y
_atom_site_fract_z
_atom_type_partial_charge
C1    C     C_R   0.510690 0.724308 0.510744 0.510227
C2    C     C_1   0.484916 0.186346 0.484991 -0.003910
C3    C     C_1   0.515049 0.483450 0.184668 0.017011
C4    C     C_R   0.489304 0.275701 0.489268 0.507915
C5    C     C_2   0.523140 0.474533 0.018861 -0.118353
C6    C     C_2   0.476922 0.525489 0.981141 -0.119190
C7    C     C_1   0.481355 0.520580 0.890859 -0.040356
C8    C     C_1   0.518695 0.479437 0.109144 -0.041720
C9    C     C_1   0.484981 0.516564 0.815337 0.018857
C10   C     C_R   0.510730 0.488187 0.274547 0.506901
C11   C     C_R   0.489263 0.511827 0.725460 0.507912
C12   C     C_1   0.111285 0.521622 0.521422 -0.064409
C13   C     C_R   0.724294 0.488094 0.488132 0.506749
C14   C     C_R   0.275708 0.511888 0.511846 0.512599
C15   C     C_1   0.813644 0.483706 0.483768 0.031760
C16   C     C_2   0.978588 0.476470 0.476628 -0.050421
C17   C     C_2   0.021023 0.528015 0.527707 0.248561
C18   C     C_3   0.377044 0.022388 0.378805 -0.011849
C19   C     C_3   0.322912 0.965639 0.325433 -0.358604
C20   C     C_3   0.623425 0.977613 0.621469 -0.013276
C21   C     C_3   0.677617 0.034357 0.674779 -0.354430
C22   C     C_1   0.888724 0.480267 0.480367 0.021132
C23   C     C_1   0.186362 0.516862 0.516744 -0.005831
C24   C     C_1   0.515266 0.813671 0.515326 -0.001405
C25   C     C_2   0.524129 0.979788 0.523987 0.293172
C26   C     C_2   0.476135 0.020238 0.476506 0.291895
C27   C     C_1   0.481006 0.111239 0.481209 -0.017875
C28   C     C_1   0.519254 0.888783 0.519250 -0.015765
H1    H     H_    0.011437 0.430440 0.431046 0.076465
H2    H     H_    0.665212 0.933863 0.578362 0.138898
H3    H     H_    0.581705 0.942074 0.664237 0.136524
H4    H     H_    0.637744 0.078517 0.719062 0.167562
H5    H     H_    0.715220 0.996226 0.711313 0.101519
H6    H     H_    0.720494 0.070435 0.633905 0.168835
H7    H     H_    0.435299 0.571391 0.017950 0.137853
H8    H     H_    0.564763 0.428630 0.982053 0.139852
H9    H     H_    0.020389 0.618249 0.617087 0.330749
H10   H     H_    0.418930 0.057796 0.336062 0.138573
H11   H     H_    0.335226 0.066258 0.421742 0.138739
H12   H     H_    0.279850 0.929714 0.366280 0.166754
H13   H     H_    0.285508 0.003751 0.288695 0.101071
H14   H     H_    0.362818 0.921344 0.281333 0.165465
O1    O     O_3   0.500000 0.500000 0.500000 -0.439739
O2    O     O_R   0.689040 0.536050 0.444000 -0.534512
O3    O     O_R   0.315570 0.560650 0.560630 -0.531940
O4    O     O_R   0.679800 0.444450 0.536560 -0.533470
O5    O     O_R   0.315590 0.458850 0.458810 -0.536644
O6    O     O_3   0.978676 0.586362 0.585484 -0.677538
O7    O     O_3   0.424174 0.973041 0.425116 -0.579958
O8    O     O_3   0.576071 0.026985 0.575394 -0.577070
O9    O     O_R   0.458170 0.444480 0.314880 -0.536566
O10   O     O_R   0.445130 0.560630 0.690220 -0.536179
O11   O     O_R   0.559450 0.679320 0.457680 -0.531914
O12   O     O_R   0.537250 0.315570 0.537220 -0.524745
O13   O     O_R   0.458120 0.689530 0.559970 -0.534016
O14   O     O_R   0.445170 0.315580 0.445130 -0.544203
O15   O     O_R   0.559480 0.536070 0.314410 -0.533217
O16   O     O_R   0.537220 0.458810 0.680490 -0.533136
Zn1   Zn    Zn3+2 0.430930 0.430930 0.430910 0.945814
Zn2   Zn    Zn3+2 0.575680 0.561790 0.430230 0.957579
Zn3   Zn    Zn3+2 0.562480 0.430910 0.562480 0.959985
Zn4   Zn    Zn3+2 0.430910 0.576380 0.576380 0.955314

loop_
_geom_bond_atom_site_label_1
_geom_bond_atom_site_label_2
_ccdc_geom_bond_type
C12   C17   S    
C14   C23   S    
C5    C8    S    
C2    C4    S    
C18   H11   S    
O14   Zn1   S    
O1    Zn4   S    
C2    C27   T    
C21   H6    S    
O12   Zn3   S    
C11   O16   A    
C19   H14   S    
O1    Zn1   S    
C17   O6    S    
O16   Zn3   S    
C18   H10   S    
C3    C10   S    
C20   H2    S    
C6    H7    S    
H9    O6    S    
C9    C11   S    
C12   C23   T    
C26   C27   S    
C6    C7    S    
O1    Zn2   S    
O2    Zn2   S    
C10   O9    A    
O13   Zn4   S    
C25   C26   D    
O11   Zn2   S    
C3    C8    T    
C14   O3    A    
C13   C15   S    
C13   O2    A    
C1    O13   A    
C5    C6    D    
C21   H4    S    
C21   H5    S    
C19   H12   S    
O4    Zn3   S    
O5    Zn1   S    
C5    H8    S    
C19   H13   S    
O3    Zn4   S    
C10   O15   A    
O9    Zn1   S    
C20   C21   S    
O1    Zn3   S    
C1    C24   S    
C18   C19   S    
C26   O7    S    
C7    C9    T    
C1    O11   A    
C13   O4    A    
O15   Zn2   S    
C20   O8    S    
C11   O10   A    
C4    O12   A    
C16   H1    S    
C25   O8    S    
C14   O5    A    
O10   Zn4   S    
C15   C22   T    
C4    O14   A    
C24   C28   T    
C18   O7    S    
C16   C22   S    
C16   C17   D    
C25   C28   S    
C20   H3    S    
