data_mof_unit_28810.cif
_audit_creation_date              2012-12-11T14:46:11-0500
_audit_creation_method            fapswitch 2.2
_symmetry_space_group_name_H-M    P1
_symmetry_Int_Tables_number       1
_space_group_crystal_system       triclinic
_cell_length_a                    10.917606
_cell_length_b                    10.939096
_cell_length_c                    18.848115
_cell_angle_alpha                 89.892815
_cell_angle_beta                  90.16007
_cell_angle_gamma                 119.884045
_cell_volume                      1951.69480596

loop_
_atom_site_label
_atom_site_type_symbol
_atom_type_description
_atom_site_fract_x
_atom_site_fract_y
_atom_site_fract_z
_atom_type_partial_charge
C1    C     C_R   0.864436 0.637602 0.603528 0.559874
C2    C     C_R   0.956137 0.160282 0.708780 0.016283
C3    C     C_R   0.955803 0.171995 0.783766 0.000941
C4    C     C_R   0.268479 0.631474 0.604260 0.543414
C5    C     C_R   0.710171 0.101042 0.703748 0.007109
C6    C     C_R   0.713509 0.131277 0.776347 0.022361
C7    C     C_R   0.581378 0.044435 0.665842 -0.072362
C8    C     C_R   0.463215 0.039576 0.696260 -0.116899
C9    C     C_R   0.472034 0.091021 0.764429 -0.148053
C10   C     C_R   0.596747 0.140620 0.803275 -0.080228
C11   C     C_R   0.837823 0.142036 0.668734 -0.042616
C12   C     C_R   0.432770 0.639695 0.777067 -0.114979
C13   C     C_R   0.716381 0.539660 0.712664 0.079078
C14   C     C_R   0.712180 0.548234 0.786494 -0.149267
C15   C     C_R   0.807877 0.672751 0.820776 0.006489
C16   C     C_R   0.860101 0.220022 0.600882 0.529725
C17   C     C_R   0.904160 0.790259 0.780908 -0.142905
C18   C     C_R   0.909012 0.782253 0.708567 -0.177880
C19   C     C_R   0.821181 0.655390 0.673990 0.061853
C20   C     C_R   0.398622 0.611860 0.295778 -0.137419
C21   C     C_R   0.417853 0.619988 0.223461 -0.124514
C22   C     C_R   0.377068 0.700408 0.181726 0.033508
C23   C     C_R   0.408652 0.628551 0.704964 -0.134692
C24   C     C_R   0.326586 0.781524 0.213839 -0.152822
C25   C     C_R   0.305148 0.771764 0.286831 -0.137625
C26   C     C_R   0.335488 0.681672 0.327406 0.027017
C27   C     C_R   0.712557 0.107976 0.293905 -0.137690
C28   C     C_R   0.864759 0.638838 0.397784 0.545415
C29   C     C_R   0.701760 0.090043 0.221498 -0.124998
C30   C     C_R   0.822636 0.127675 0.180293 0.033702
C31   C     C_R   0.953465 0.174668 0.212995 -0.152543
C32   C     C_R   0.964867 0.194858 0.286062 -0.137604
C33   C     C_R   0.844931 0.166897 0.326199 0.027898
C34   C     C_R   0.315567 0.667684 0.676647 0.031907
C35   C     C_R   0.892260 0.788756 0.295982 -0.137655
C36   C     C_R   0.885521 0.799922 0.223559 -0.125493
C37   C     C_R   0.804153 0.679260 0.182026 0.033048
C38   C     C_R   0.721568 0.548250 0.214256 -0.153431
C39   C     C_R   0.729851 0.536512 0.287297 -0.138057
C40   C     C_R   0.273278 0.635939 0.397139 0.547437
C41   C     C_R   0.820312 0.656249 0.327830 0.027770
C42   C     C_R   0.805543 0.102692 0.893999 0.534905
C43   C     C_R   0.398015 0.701813 0.895867 0.544534
C44   C     C_R   0.795469 0.694909 0.895638 0.549127
C45   C     C_R   0.831962 0.150691 0.818566 -0.030190
C46   C     C_R   0.802376 0.098213 0.104971 0.547422
C47   C     C_R   0.404820 0.707878 0.106286 0.547971
C48   C     C_R   0.794968 0.699445 0.106773 0.548530
C49   C     C_R   0.862040 0.227615 0.396346 0.542641
C50   C     C_R   0.248390 0.720403 0.720784 -0.124691
C51   C     C_R   0.274987 0.734141 0.793236 -0.134199
C52   C     C_R   0.364761 0.690441 0.821373 0.045768
C53   C     C_R   0.081738 0.210239 0.821664 -0.088389
C54   C     C_R   0.200427 0.223310 0.787189 -0.128452
C55   C     C_R   0.195184 0.196385 0.714850 -0.134457
C56   C     C_R   0.074752 0.165691 0.675816 -0.078377
Cr1   Cr    Cr6+3 0.791660 0.390250 0.499930 1.030381
Cr2   Cr    Cr6+3 0.098520 0.708290 0.500540 1.000063
Cr3   Cr    Cr6+3 0.109770 0.401430 0.499480 1.012036
Cr4   Cr    Cr6+3 0.874790 0.925890 0.000070 1.008536
Cr5   Cr    Cr6+3 0.574120 0.948670 0.999300 1.012072
Cr6   Cr    Cr6+3 0.551420 0.625320 0.000920 1.005995
H1    H     H_    0.172554 0.747354 0.699577 0.137740
H2    H     H_    0.299797 0.848018 0.182483 0.119071
H3    H     H_    0.223464 0.774784 0.827099 0.114814
H4    H     H_    0.256457 0.827186 0.310537 0.137313
H5    H     H_    0.618568 0.083669 0.323930 0.128636
H6    H     H_    0.597873 0.046697 0.197792 0.141394
H7    H     H_    0.046373 0.198946 0.182074 0.119038
H8    H     H_    0.068534 0.240331 0.310251 0.136821
H9    H     H_    0.960720 0.882530 0.326371 0.128351
H10   H     H_    0.944933 0.903781 0.200079 0.141129
H11   H     H_    0.654323 0.455484 0.182990 0.119334
H12   H     H_    0.366742 0.001473 0.665864 0.114934
H13   H     H_    0.672820 0.432755 0.311140 0.137328
H14   H     H_    0.504538 0.608182 0.798625 0.138977
H15   H     H_    0.459174 0.585955 0.671696 0.133703
H16   H     H_    0.296088 0.252815 0.816952 0.102595
H17   H     H_    0.284665 0.199747 0.688591 0.103893
H18   H     H_    0.090941 0.234119 0.877728 0.131491
H19   H     H_    0.073676 0.141542 0.620118 0.126003
H20   H     H_    0.601339 0.191710 0.852968 0.139550
H21   H     H_    0.515763 0.386542 0.694448 0.208952
H22   H     H_    0.637632 0.333800 0.693764 0.260326
H23   H     H_    0.573939 0.008928 0.611553 0.122747
H24   H     H_    0.382733 0.093983 0.787051 0.104052
H25   H     H_    0.633064 0.459377 0.816507 0.109730
H26   H     H_    0.976033 0.890619 0.805275 0.159800
H27   H     H_    0.988593 0.873561 0.680304 0.135724
H28   H     H_    0.424926 0.543865 0.326198 0.129256
H29   H     H_    0.463844 0.561739 0.200139 0.142123
N1    N     N_3   0.616955 0.412793 0.677532 -0.601563
O1    O     O_R   0.766500 0.250040 0.579790 -0.509551
O2    O     O_R   0.413330 0.603360 0.920440 -0.527510
O3    O     O_R   0.676110 0.626250 0.926750 -0.508784
O4    O     O_R   0.798570 0.516780 0.574780 -0.456682
O5    O     O_R   0.895350 0.809870 0.080950 -0.524699
O6    O     O_R   0.872490 0.049760 0.073800 -0.509320
O7    O     O_R   0.691680 0.088070 0.079070 -0.526950
O8    O     O_R   0.451720 0.825250 0.074050 -0.509434
O9    O     O_R   0.413580 0.606370 0.080960 -0.525666
O10   O     O_R   0.676340 0.629040 0.075550 -0.508480
O11   O     O_3   0.666780 0.833290 0.000090 -0.249577
O12   O     O_R   0.218690 0.701900 0.425960 -0.506675
O13   O     O_R   0.984000 0.732950 0.581090 -0.547787
O14   O     O_R   0.218600 0.700890 0.574760 -0.515930
O15   O     O_R   0.249390 0.515350 0.579940 -0.510874
O16   O     O_R   0.982790 0.280900 0.573700 -0.505099
O17   O     O_R   0.766600 0.251130 0.419260 -0.528133
O18   O     O_R   0.798660 0.517790 0.425980 -0.507722
O19   O     O_R   0.984100 0.734040 0.420570 -0.525961
O20   O     O_R   0.249490 0.516440 0.419420 -0.524282
O21   O     O_R   0.982880 0.281910 0.424890 -0.510451
O22   O     O_3   0.999980 0.499990 0.499980 -0.242255
O23   O     O_R   0.895110 0.806860 0.920430 -0.523822
O24   O     O_R   0.872260 0.046970 0.925000 -0.504152
O25   O     O_R   0.691430 0.085060 0.918550 -0.525141
O26   O     O_R   0.451490 0.822460 0.925250 -0.494647

loop_
_geom_bond_atom_site_label_1
_geom_bond_atom_site_label_2
_ccdc_geom_bond_type
C49   O21   A    
C55   C56   A    
C47   O9    A    
C6    C45   A    
C27   C29   A    
C17   H26   S    
C35   C36   A    
C46   O7    A    
C7    C8    A    
C39   C41   A    
C7    H23   S    
C53   C54   A    
C27   C33   A    
H21   N1    S    
C12   C23   A    
C16   O1    A    
C29   C30   A    
C20   C26   A    
C21   C22   A    
C36   C37   A    
Cr5   O11   S    
C14   H25   S    
C5    C11   A    
Cr4   O6    S    
C1    O4    A    
C30   C31   A    
C43   C52   S    
C33   C49   S    
C28   C41   S    
C43   O2    A    
C18   C19   A    
C51   H3    S    
Cr3   O20   S    
Cr1   O17   S    
Cr1   O18   S    
C44   O23   A    
C8    C9    A    
Cr1   O4    S    
C39   H13   S    
Cr4   O11   S    
C9    C10   A    
Cr6   O9    S    
C22   C47   S    
C46   O6    A    
C35   H9    S    
C24   H2    S    
Cr1   O1    S    
C13   C14   A    
C50   H1    S    
Cr5   O7    S    
C2    C11   A    
C12   C52   A    
C50   C51   A    
C28   O19   A    
C38   C39   A    
C4    O15   A    
C4    C34   S    
C1    C19   S    
C34   C50   A    
C13   C19   A    
Cr5   O25   S    
C51   C52   A    
C56   H19   S    
C53   H18   S    
C24   C25   A    
C40   O20   A    
Cr4   O5    S    
C5    C7    A    
C32   H8    S    
C28   O18   A    
C25   C26   A    
C4    O14   A    
C3    C45   A    
Cr3   O15   S    
C47   O8    A    
Cr2   O19   S    
Cr2   O14   S    
C42   C45   S    
C6    C10   A    
C37   C38   A    
C48   O5    A    
C9    H24   S    
C40   O12   A    
C29   H6    S    
C55   H17   S    
C11   C16   S    
C31   C32   A    
Cr3   O21   S    
C23   C34   A    
C48   O10   A    
C8    H12   S    
C17   C18   A    
C23   H15   S    
C37   C48   S    
C42   O24   A    
Cr6   O2    S    
C13   N1    S    
C22   C24   A    
Cr4   O24   S    
Cr5   O8    S    
Cr2   O12   S    
C49   O17   A    
Cr6   O11   S    
C21   H29   S    
C15   C17   A    
C54   C55   A    
Cr5   O26   S    
C18   H27   S    
C30   C46   S    
C25   H4    S    
C15   C44   S    
C42   O25   A    
Cr1   O22   S    
Cr3   O16   S    
Cr2   O13   S    
C32   C33   A    
C12   H14   S    
C2    C3    A    
C44   O3    A    
C2    C56   A    
C3    C53   A    
C26   C40   S    
C5    C6    A    
C20   H28   S    
Cr3   O22   S    
C10   H20   S    
C35   C41   A    
C27   H5    S    
C16   O16   A    
C43   O26   A    
C31   H7    S    
C20   C21   A    
Cr2   O22   S    
C14   C15   A    
Cr4   O23   S    
H22   N1    S    
C54   H16   S    
Cr6   O3    S    
C36   H10   S    
C1    O13   A    
Cr6   O10   S    
C38   H11   S    
