data_mof_unit_23120.cif
_audit_creation_date              2012-12-10T19:14:55-0500
_audit_creation_method            fapswitch 2.2
_symmetry_space_group_name_H-M    P1
_symmetry_Int_Tables_number       1
_space_group_crystal_system       triclinic
_cell_length_a                    15.995056
_cell_length_b                    14.724071
_cell_length_c                    10.936226
_cell_angle_alpha                 90.001691
_cell_angle_beta                  89.998974
_cell_angle_gamma                 90.020427
_cell_volume                      2575.61601292

loop_
_atom_site_label
_atom_site_type_symbol
_atom_type_description
_atom_site_fract_x
_atom_site_fract_y
_atom_site_fract_z
_atom_type_partial_charge
C1    C     C_1   0.251917 0.499979 0.499820 -0.172929
C2    C     C_1   0.748083 0.500022 0.499763 -0.172900
C3    C     C_R   0.499986 0.500004 0.873038 -0.172633
C4    C     C_R   0.499978 0.499995 0.128375 -0.141816
C5    C     C_R   0.499985 0.902874 0.500121 0.048904
C6    C     C_R   0.500023 0.097126 0.500121 0.048829
C7    C     C_R   0.500907 0.952031 0.610517 -0.148083
C8    C     C_R   0.499170 0.047971 0.389714 -0.167741
C9    C     C_R   0.499060 0.952024 0.389715 -0.167719
C10   C     C_R   0.500886 0.047973 0.610518 -0.147995
C11   C     C_R   0.956183 0.582895 0.501673 0.345666
C12   C     C_R   0.043816 0.417124 0.502534 0.345710
C13   C     C_R   0.043907 0.582867 0.496013 0.344204
C14   C     C_R   0.956094 0.417120 0.496843 0.344204
C15   C     C_R   0.340860 0.499990 0.500043 0.824620
C16   C     C_R   0.659140 0.500010 0.499990 0.824660
C17   C     C_R   0.499987 0.499998 0.261807 0.912708
C18   C     C_R   0.500004 0.500002 0.738733 0.826127
C19   C     C_R   0.912625 0.500013 0.499298 -0.217695
C20   C     C_R   0.087375 0.499990 0.499328 -0.217695
C21   C     C_1   0.500015 0.802799 0.500115 0.128519
C22   C     C_1   0.499988 0.197201 0.500116 0.128448
C23   C     C_1   0.823033 0.500017 0.499531 0.123602
C24   C     C_1   0.176966 0.499986 0.499580 0.123588
C25   C     C_R   0.429224 0.652824 0.111985 0.546624
C26   C     C_R   0.478839 0.328821 0.893615 0.544975
C27   C     C_R   0.521082 0.671195 0.893649 0.544895
C28   C     C_R   0.570701 0.347146 0.111950 0.546664
C29   C     C_R   0.435498 0.738030 0.052053 -0.349047
C30   C     C_R   0.514089 0.252544 0.948985 -0.277458
C31   C     C_R   0.485808 0.747455 0.949037 -0.277289
C32   C     C_R   0.564402 0.261946 0.052000 -0.349187
C33   C     C_R   0.500673 0.583356 0.940130 -0.101013
C34   C     C_R   0.524688 0.421295 0.062370 -0.071757
C35   C     C_R   0.475255 0.578693 0.062386 -0.071769
C36   C     C_R   0.499274 0.416649 0.940114 -0.101047
Cu1   Cu    Cu3+1 0.500000 0.589220 0.500000 1.026221
Cu2   Cu    Cu3+1 0.500000 0.410780 0.500000 1.026216
H1    H     H_    0.595443 0.201614 0.085167 0.155705
H2    H     H_    0.496764 0.814329 0.911025 0.167728
H3    H     H_    0.503114 0.185678 0.910959 0.167776
H4    H     H_    0.404442 0.798350 0.085238 0.155592
H5    H     H_    0.501558 0.083827 0.697009 0.133083
H6    H     H_    0.498273 0.916161 0.303219 0.122564
H7    H     H_    0.498565 0.083831 0.303216 0.123027
H8    H     H_    0.501636 0.916181 0.697007 0.133470
N1    N     N_1   0.500000 0.276710 0.500000 -0.136136
N2    N     N_1   0.500000 0.723290 0.500000 -0.136131
O1    O     O_R   0.380310 0.575320 0.500020 -0.570776
O2    O     O_R   0.619690 0.424680 0.499980 -0.570787
O3    O     O_R   0.619690 0.575320 0.499980 -0.562721
O4    O     O_R   0.380310 0.424680 0.500020 -0.562652
O5    O     O_R   0.499990 0.575350 0.319650 -0.559177
O6    O     O_R   0.500010 0.424650 0.680350 -0.535664
O7    O     O_R   0.500010 0.575350 0.680350 -0.535643
O8    O     O_R   0.499990 0.424650 0.319650 -0.559211
O9    O     O_3   0.087145 0.664225 0.495735 -0.548765
C37   C     C_3   0.097337 0.692419 0.373437 -0.266043
H9    H     H_    0.035937 0.705664 0.329006 0.185634
H10   H     H_    0.133651 0.641835 0.319528 0.146278
H11   H     H_    0.133141 0.756954 0.372756 0.173575
O10   O     O_3   0.912855 0.335764 0.497380 -0.548740
C38   C     C_3   0.902674 0.306885 0.375368 -0.265952
H12   H     H_    0.964079 0.293346 0.331107 0.185652
H13   H     H_    0.866405 0.357186 0.320924 0.146065
H14   H     H_    0.866830 0.242374 0.375328 0.173664
O11   O     O_3   0.913038 0.664272 0.501282 -0.545641
C39   C     C_3   0.902847 0.692999 0.623355 -0.251385
H15   H     H_    0.964255 0.706255 0.667794 0.181034
H16   H     H_    0.866337 0.642739 0.677570 0.130302
H17   H     H_    0.867248 0.757639 0.623499 0.182061
O12   O     O_3   0.086960 0.335747 0.502992 -0.545578
C40   C     C_3   0.097143 0.307726 0.625360 -0.251618
H18   H     H_    0.035732 0.294718 0.669924 0.181060
H19   H     H_    0.133640 0.358302 0.679060 0.130252
H20   H     H_    0.132751 0.243095 0.626181 0.182036
O13   O     O_3   0.373088 0.634469 0.207095 -0.580075
C41   C     C_3   0.336186 0.712286 0.259412 -0.285622
H21   H     H_    0.299477 0.691024 0.340522 0.198548
H22   H     H_    0.291677 0.744420 0.194468 0.143628
H23   H     H_    0.384346 0.761218 0.291683 0.154598
O14   O     O_3   0.421070 0.313696 0.801333 -0.556012
C42   C     C_3   0.342504 0.348751 0.836263 -0.300479
H24   H     H_    0.342435 0.424197 0.835345 0.151020
H25   H     H_    0.322877 0.322924 0.927610 0.150904
H26   H     H_    0.295184 0.325890 0.768776 0.181768
O15   O     O_3   0.578854 0.686350 0.801378 -0.556206
C43   C     C_3   0.657430 0.651333 0.836318 -0.300595
H27   H     H_    0.657527 0.575887 0.835413 0.151139
H28   H     H_    0.677042 0.677181 0.927663 0.151005
H29   H     H_    0.704746 0.674205 0.768831 0.181673
O16   O     O_3   0.626846 0.365475 0.207054 -0.579995
C44   C     C_3   0.663720 0.287640 0.259359 -0.285591
H30   H     H_    0.700433 0.308882 0.340474 0.198299
H31   H     H_    0.708222 0.255493 0.194410 0.143716
H32   H     H_    0.615542 0.238722 0.291616 0.154727

loop_
_geom_bond_atom_site_label_1
_geom_bond_atom_site_label_2
_ccdc_geom_bond_type
C7    C10   A    
O15   C43   S    
C38   H13   S    
C44   H30   S    
C29   H4    S    
C40   H18   S    
C16   O3    A    
O13   C41   S    
C27   C33   A    
C11   C19   A    
Cu1   Cu2   S    
C25   O13   S    
C16   O2    A    
Cu1   O3    S    
C41   H22   S    
C13   O9    S    
C3    C33   A    
C37   H10   S    
C14   O10   S    
C31   H2    S    
C3    C18   S    
C32   H1    S    
C8    H7    S    
C20   C24   S    
C39   H15   S    
C30   H3    S    
C1    C15   S    
C2    C16   S    
C21   N2    T    
Cu1   O5    S    
C37   H11   S    
C22   N1    T    
C12   O12   S    
C38   H14   S    
C28   C34   A    
C44   H31   S    
C40   H19   S    
C11   O11   S    
C25   C29   A    
C4    C34   A    
C27   C31   A    
O11   C39   S    
C7    H8    S    
C28   C32   A    
C5    C7    A    
C41   H21   S    
C8    C9    A    
C6    C8    A    
C37   H9    S    
C19   C23   S    
C5    C9    A    
O10   C38   S    
Cu1   O1    S    
C42   H24   S    
Cu2   O6    S    
C43   H29   S    
C12   C20   A    
Cu2   O8    S    
C28   O16   S    
C15   O4    A    
Cu1   N2    S    
C27   O15   S    
C17   O8    A    
Cu2   N1    S    
C18   O7    A    
C25   C35   A    
C4    C17   S    
C26   C36   A    
C42   H25   S    
C12   C14   A    
C26   C30   A    
C44   H32   S    
C40   H20   S    
C17   O5    A    
C9    H6    S    
C13   C20   A    
C10   H5    S    
C14   C19   A    
C43   H28   S    
O12   C40   S    
C6    C10   A    
Cu2   O2    S    
C29   C31   A    
C30   C32   A    
C11   C13   A    
C41   H23   S    
O9    C37   S    
C3    C36   A    
C39   H17   S    
Cu2   O4    S    
O16   C44   S    
C33   C35   A    
C34   C36   A    
C15   O1    A    
C4    C35   A    
C18   O6    A    
C38   H12   S    
Cu1   O7    S    
C42   H26   S    
C5    C21   S    
C43   H27   S    
C1    C24   T    
C26   O14   S    
O14   C42   S    
C2    C23   T    
C39   H16   S    
C6    C22   S    
