data_mof_unit_20747.cif
_audit_creation_date              2013-03-05T16:33:20-0500
_audit_creation_method            fapswitch 2.2
_symmetry_space_group_name_H-M    P1
_symmetry_Int_Tables_number       1
_space_group_crystal_system       triclinic
_cell_length_a                    15.96931
_cell_length_b                    15.992501
_cell_length_c                    59.935684
_cell_angle_alpha                 90.152077
_cell_angle_beta                  90.581603
_cell_angle_gamma                 90.052551
_cell_volume                      15306.077408

loop_
_atom_site_label
_atom_site_type_symbol
_atom_site_description
_atom_site_fract_x
_atom_site_fract_y
_atom_site_fract_z
_atom_type_partial_charge
Zn1   Zn    Zn3+2 0.599000 0.000000 0.730930 0.992494
Zn2   Zn    Zn3+2 0.401000 0.000000 0.269070 0.987601
Zn3   Zn    Zn3+2 1.000000 0.599000 0.730930 0.993597
Zn4   Zn    Zn3+2 1.000000 0.401000 0.269070 0.992361
Zn5   Zn    Zn3+2 0.401000 0.000000 0.730930 0.984337
Zn6   Zn    Zn3+2 0.599000 0.000000 0.269070 0.974322
Zn7   Zn    Zn3+2 1.000000 0.401000 0.730930 0.991693
Zn8   Zn    Zn3+2 1.000000 0.599000 0.269070 0.968148
Zn9   Zn    Zn3+2 0.099000 0.500000 0.230930 0.977469
Zn10  Zn    Zn3+2 0.901000 0.500000 0.769070 0.987833
Zn11  Zn    Zn3+2 0.500000 0.099000 0.230930 0.987493
Zn12  Zn    Zn3+2 0.500000 0.901000 0.769070 0.990410
Zn13  Zn    Zn3+2 0.901000 0.500000 0.230930 0.990044
Zn14  Zn    Zn3+2 0.099000 0.500000 0.769070 0.972515
Zn15  Zn    Zn3+2 0.500000 0.901000 0.230930 0.991652
Zn16  Zn    Zn3+2 0.500000 0.099000 0.769070 0.966716
O1    O     O_3   0.500000 1.000000 0.750000 -0.491000
O2    O     O_3   0.500000 0.000000 0.250000 -0.492489
O3    O     O_3   1.000000 0.500000 0.750000 -0.493757
O4    O     O_3   1.000000 0.500000 0.250000 -0.489763
O5    O     O_R   0.500000 0.069020 0.799580 -0.635766
O6    O     O_R   0.500000 0.930980 0.200420 -0.614597
O7    O     O_R   0.930980 0.500000 0.799580 -0.614350
O8    O     O_R   0.069020 0.500000 0.200420 -0.627416
O9    O     O_R   0.500000 0.930980 0.799580 -0.614473
O10   O     O_R   0.500000 0.069020 0.200420 -0.618804
O11   O     O_R   0.069020 0.500000 0.799580 -0.631501
O12   O     O_R   0.930980 0.500000 0.200420 -0.619806
O13   O     O_R   1.000000 0.569020 0.299580 -0.635967
O14   O     O_R   1.000000 0.430980 0.700420 -0.613038
O15   O     O_R   0.430980 1.000000 0.299580 -0.616443
O16   O     O_R   0.569020 0.000000 0.700420 -0.615594
O17   O     O_R   1.000000 0.430980 0.299580 -0.614040
O18   O     O_R   1.000000 0.569020 0.700420 -0.610685
O19   O     O_R   0.569020 1.000000 0.299580 -0.630082
O20   O     O_R   0.430980 0.000000 0.700420 -0.626520
O21   O     O_R   0.597490 0.833170 0.762730 -0.634126
O22   O     O_R   0.402510 0.166830 0.237270 -0.644541
O23   O     O_R   0.166830 0.597490 0.762730 -0.649561
O24   O     O_R   0.833170 0.402510 0.237270 -0.643385
O25   O     O_R   0.402510 0.166830 0.762730 -0.655164
O26   O     O_R   0.597490 0.833170 0.237270 -0.640920
O27   O     O_R   0.833170 0.402510 0.762730 -0.633212
O28   O     O_R   0.166830 0.597490 0.237270 -0.641227
O29   O     O_R   0.597490 0.166830 0.237270 -0.630581
O30   O     O_R   0.402510 0.833170 0.762730 -0.641372
O31   O     O_R   0.166830 0.402510 0.237270 -0.648130
O32   O     O_R   0.833170 0.597490 0.762730 -0.642554
O33   O     O_R   0.402510 0.833170 0.237270 -0.634557
O34   O     O_R   0.597490 0.166830 0.762730 -0.645946
O35   O     O_R   0.833170 0.597490 0.237270 -0.632959
O36   O     O_R   0.166830 0.402510 0.762730 -0.644935
O37   O     O_R   0.097490 0.333170 0.262730 -0.630876
O38   O     O_R   0.902510 0.666830 0.737270 -0.641292
O39   O     O_R   0.666830 0.097490 0.262730 -0.650842
O40   O     O_R   0.333170 0.902510 0.737270 -0.645616
O41   O     O_R   0.902510 0.666830 0.262730 -0.653502
O42   O     O_R   0.097490 0.333170 0.737270 -0.640656
O43   O     O_R   0.333170 0.902510 0.262730 -0.634337
O44   O     O_R   0.666830 0.097490 0.737270 -0.639626
O45   O     O_R   0.097490 0.666830 0.737270 -0.629373
O46   O     O_R   0.902510 0.333170 0.262730 -0.641856
O47   O     O_R   0.666830 0.902510 0.737270 -0.633844
O48   O     O_R   0.333170 0.097490 0.262730 -0.641701
O49   O     O_R   0.902510 0.333170 0.737270 -0.634641
O50   O     O_R   0.097490 0.666830 0.262730 -0.645101
O51   O     O_R   0.333170 0.097490 0.737270 -0.633922
O52   O     O_R   0.666830 0.902510 0.262730 -0.644788
C1    C     C_R   0.501140 0.000252 0.810380 0.893203
C2    C     C_R   0.499766 0.999922 0.189620 0.888953
C3    C     C_R   0.000270 0.499342 0.810391 0.889452
C4    C     C_R   0.999503 0.500114 0.189597 0.896433
C5    C     C_R   0.002035 0.500130 0.310374 0.894318
C6    C     C_R   0.999878 0.499789 0.689578 0.886291
C7    C     C_R   0.500394 0.000392 0.310413 0.891997
C8    C     C_R   0.499073 0.000732 0.689577 0.894012
C9    C     C_R   0.660237 0.839687 0.750013 0.855627
C10   C     C_R   0.339766 0.160321 0.249989 0.846831
C11   C     C_R   0.160465 0.660248 0.750036 0.860090
C12   C     C_R   0.839532 0.339750 0.249968 0.852078
C13   C     C_R   0.339541 0.160326 0.749980 0.866645
C14   C     C_R   0.660469 0.839678 0.250022 0.854534
C15   C     C_R   0.839794 0.339629 0.749980 0.856482
C16   C     C_R   0.160208 0.660367 0.250023 0.852733
C17   C     C_R   0.660463 0.160249 0.250036 0.862811
C18   C     C_R   0.339532 0.839751 0.749968 0.852056
C19   C     C_R   0.160235 0.339686 0.250010 0.858702
C20   C     C_R   0.839767 0.660319 0.749990 0.845181
C21   C     C_R   0.339793 0.839630 0.249979 0.856664
C22   C     C_R   0.660207 0.160369 0.750024 0.850880
C23   C     C_R   0.839539 0.660325 0.249980 0.864804
C24   C     C_R   0.160469 0.339678 0.750022 0.853802
C25   C     C_1   0.723327 0.223526 0.750038 -0.155465
C26   C     C_1   0.276668 0.776476 0.249970 -0.152538
C27   C     C_1   0.776621 0.723481 0.749987 -0.154348
C28   C     C_1   0.223385 0.276534 0.250013 -0.157746
C29   C     C_1   0.276423 0.776685 0.749958 -0.157180
C30   C     C_1   0.723577 0.223303 0.250054 -0.158437
C31   C     C_1   0.223558 0.276638 0.750033 -0.159401
C32   C     C_1   0.776472 0.723379 0.249974 -0.159595
C33   C     C_1   0.723557 0.776638 0.250034 -0.158497
C34   C     C_1   0.276474 0.223379 0.749974 -0.160915
C35   C     C_1   0.776421 0.276685 0.249959 -0.156412
C36   C     C_1   0.223579 0.723302 0.750052 -0.158189
C37   C     C_1   0.276623 0.223488 0.249982 -0.156153
C38   C     C_1   0.723383 0.776527 0.750020 -0.152215
C39   C     C_1   0.223329 0.723522 0.250035 -0.155884
C40   C     C_1   0.776667 0.276479 0.749972 -0.152392
C41   C     C_R   0.464529 0.074835 0.582637 0.576421
C42   C     C_R   0.530799 0.942583 0.417785 0.546699
C43   C     C_R   0.949501 0.467478 0.580997 0.555278
C44   C     C_R   0.117064 0.507860 0.417129 0.575458
C45   C     C_R   0.462295 0.926399 0.582470 0.539361
C46   C     C_R   0.465942 0.076173 0.416987 0.553631
C47   C     C_R   0.092240 0.506989 0.583701 0.542342
C48   C     C_R   0.972777 0.473549 0.415975 0.552263
C49   C     C_R   0.987494 0.569167 0.081925 0.551233
C50   C     C_R   0.039404 0.427276 0.917903 0.549123
C51   C     C_R   0.436465 0.987590 0.081144 0.551563
C52   C     C_R   0.597303 0.029127 0.917565 0.548955
C53   C     C_R   0.986356 0.420719 0.082781 0.544429
C54   C     C_R   0.945915 0.542221 0.916413 0.553029
C55   C     C_R   0.583435 0.004024 0.084090 0.555819
C56   C     C_R   0.462775 0.967091 0.916280 0.549072
O53   O     O_2   0.469303 0.147025 0.594289 -0.529184
O54   O     O_2   0.576309 0.884426 0.406970 -0.549243
O55   O     O_2   0.874607 0.459348 0.590983 -0.542364
O56   O     O_2   0.187037 0.530716 0.406290 -0.541709
O57   O     O_2   0.448559 0.855297 0.593940 -0.551814
O58   O     O_2   0.432853 0.139147 0.404862 -0.560808
O59   O     O_2   0.160814 0.521944 0.596457 -0.538790
O60   O     O_2   0.906383 0.449085 0.403466 -0.544176
O61   O     O_2   0.998730 0.642080 0.092931 -0.540755
O62   O     O_2   0.095507 0.377933 0.907539 -0.556342
O63   O     O_2   0.361281 0.991609 0.091139 -0.548548
O64   O     O_2   0.661123 0.066991 0.906988 -0.545405
O65   O     O_2   0.975737 0.350180 0.094718 -0.554714
O66   O     O_2   0.893199 0.589771 0.904118 -0.561396
O67   O     O_2   0.653122 0.006219 0.097027 -0.528175
O68   O     O_2   0.403240 0.928586 0.903838 -0.550464
N1    N     N_R   0.466755 0.000477 0.593809 -0.332836
N2    N     N_R   0.500883 0.009701 0.406230 -0.327342
N3    N     N_R   0.018109 0.488067 0.593670 -0.328657
N4    N     N_R   0.044055 0.497516 0.405459 -0.335042
N5    N     N_R   0.988958 0.495945 0.093620 -0.328080
N6    N     N_R   0.995827 0.485445 0.905958 -0.328916
N7    N     N_R   0.507185 0.996544 0.093858 -0.331032
N8    N     N_R   0.528177 0.004376 0.905794 -0.332495
C57   C     C_R   0.545503 0.963452 0.628105 -0.245785
C58   C     C_R   0.566401 0.045203 0.370465 -0.221958
C59   C     C_R   0.037089 0.563728 0.629381 -0.234943
C60   C     C_R   0.997817 0.568277 0.371123 -0.241537
C61   C     C_R   0.415304 0.039162 0.630998 -0.223619
C62   C     C_R   0.436712 0.967472 0.370683 -0.261554
C63   C     C_R   0.979117 0.424333 0.629570 -0.244797
C64   C     C_R   0.074623 0.438556 0.368640 -0.237886
C65   C     C_R   0.058709 0.459869 0.129245 -0.227664
C66   C     C_R   0.065866 0.524660 0.871183 -0.235981
C67   C     C_R   0.533120 0.067672 0.129743 -0.225213
C68   C     C_R   0.484998 0.071300 0.870713 -0.244828
C69   C     C_R   0.929185 0.537769 0.129709 -0.237595
C70   C     C_R   0.934338 0.450137 0.869610 -0.241482
C71   C     C_R   0.467343 0.931611 0.129387 -0.242288
C72   C     C_R   0.561652 0.941161 0.869733 -0.237651
C73   C     C_R   0.556837 0.966779 0.651492 0.395438
C74   C     C_R   0.568054 0.040956 0.347030 0.376400
C75   C     C_R   0.031400 0.568496 0.652786 0.395005
C76   C     C_R   0.985756 0.568577 0.347883 0.389069
C77   C     C_R   0.422803 0.039591 0.654355 0.393398
C78   C     C_R   0.434148 0.966838 0.347211 0.402173
C79   C     C_R   0.974283 0.426080 0.653029 0.402025
C80   C     C_R   0.059458 0.435007 0.345464 0.394473
C81   C     C_R   0.063048 0.462302 0.152671 0.378491
C82   C     C_R   0.067890 0.527801 0.847765 0.376179
C83   C     C_R   0.530860 0.069719 0.153144 0.393300
C84   C     C_R   0.477371 0.070238 0.847363 0.386556
C85   C     C_R   0.929887 0.537526 0.153199 0.398379
C86   C     C_R   0.932376 0.456622 0.846238 0.395676
C87   C     C_R   0.467768 0.930049 0.152872 0.398154
C88   C     C_R   0.550832 0.936172 0.846429 0.398006
C89   C     C_R   0.475400 0.000228 0.617821 0.185991
C90   C     C_R   0.501533 0.007667 0.382255 0.207790
C91   C     C_R   0.011560 0.492031 0.617716 0.185128
C92   C     C_R   0.042267 0.503599 0.381512 0.200560
C93   C     C_R   0.992427 0.498018 0.117695 0.190390
C94   C     C_R   0.999675 0.485359 0.882045 0.194576
C95   C     C_R   0.501589 0.999069 0.117836 0.188406
C96   C     C_R   0.527534 0.007367 0.881853 0.206350
C97   C     C_R   0.466822 0.000702 0.547124 -0.200324
C98   C     C_R   0.485044 0.005352 0.452552 -0.185293
C99   C     C_R   0.031917 0.479436 0.546967 -0.190553
C100  C     C_R   0.044936 0.483014 0.452041 -0.199621
C101  C     C_R   0.983623 0.491747 0.046991 -0.190968
C102  C     C_R   0.987478 0.486033 0.952382 -0.193670
C103  C     C_R   0.520284 0.988655 0.047198 -0.188456
C104  C     C_R   0.532147 0.988753 0.952267 -0.189249
C105  C     C_R   0.459889 0.076279 0.559097 -0.159564
C106  C     C_R   0.515490 0.934976 0.440866 -0.194997
C107  C     C_R   0.956106 0.458118 0.557572 -0.194586
C108  C     C_R   0.119400 0.494965 0.440439 -0.143285
C109  C     C_R   0.470069 0.924562 0.558953 -0.193233
C110  C     C_R   0.463201 0.078170 0.440553 -0.193381
C111  C     C_R   0.098031 0.509171 0.560221 -0.171864
C112  C     C_R   0.969875 0.470968 0.439555 -0.206120
C113  C     C_R   0.975929 0.568428 0.058502 -0.185126
C114  C     C_R   0.026139 0.419463 0.941010 -0.188109
C115  C     C_R   0.442089 0.976695 0.057722 -0.196401
C116  C     C_R   0.603658 0.011603 0.940556 -0.153896
C117  C     C_R   0.992788 0.417044 0.059291 -0.191442
C118  C     C_R   0.949485 0.550514 0.939897 -0.184403
C119  C     C_R   0.589738 0.007981 0.060673 -0.173259
C120  C     C_R   0.459375 0.966342 0.939874 -0.200989
C121  C     C_R   0.452284 0.151669 0.547332 0.369750
C122  C     C_R   0.533472 0.860881 0.452740 0.404484
C123  C     C_R   0.886693 0.435861 0.544343 0.408259
C124  C     C_R   0.194900 0.481105 0.451696 0.356882
C125  C     C_R   0.478398 0.849029 0.546930 0.415427
C126  C     C_R   0.436085 0.149406 0.452374 0.416575
C127  C     C_R   0.167735 0.542918 0.549786 0.374656
C128  C     C_R   0.896729 0.447244 0.450770 0.408403
C129  C     C_R   0.960619 0.642259 0.046270 0.409581
C130  C     C_R   0.051311 0.348176 0.953042 0.426331
C131  C     C_R   0.370947 0.959699 0.044532 0.394460
C132  C     C_R   0.681247 0.002742 0.951182 0.397908
C133  C     C_R   0.003960 0.340856 0.047746 0.410889
C134  C     C_R   0.913331 0.618828 0.951168 0.411754
C135  C     C_R   0.663884 0.032162 0.050646 0.372069
C136  C     C_R   0.389379 0.935310 0.951265 0.392231
C137  C     C_R   0.494121 0.003365 0.664787 -0.214501
C138  C     C_R   0.501123 0.002361 0.335203 -0.217516
C139  C     C_R   0.001376 0.498513 0.664752 -0.211865
C140  C     C_R   0.014686 0.500647 0.334950 -0.211811
C141  C     C_R   0.997788 0.500318 0.164819 -0.216026
C142  C     C_R   0.000338 0.494557 0.835111 -0.217317
C143  C     C_R   0.499391 0.999878 0.164869 -0.216053
C144  C     C_R   0.508833 0.001573 0.835076 -0.214266
H1    H     H_    0.362259 0.069318 0.623025 0.161421
H2    H     H_    0.387674 0.937264 0.380048 0.144441
H3    H     H_    0.957252 0.370285 0.620330 0.160650
H4    H     H_    0.109422 0.389315 0.376881 0.146566
H5    H     H_    0.591530 0.932521 0.617839 0.147285
H6    H     H_    0.615612 0.077729 0.379530 0.151174
H7    H     H_    0.062251 0.615777 0.620114 0.162167
H8    H     H_    0.970753 0.617409 0.381206 0.149634
H9    H     H_    0.878993 0.568598 0.120688 0.152045
H10   H     H_    0.884009 0.419091 0.878267 0.152515
H11   H     H_    0.441322 0.879722 0.119985 0.154522
H12   H     H_    0.595163 0.892585 0.878616 0.135621
H13   H     H_    0.106877 0.427769 0.119962 0.151836
H14   H     H_    0.115070 0.554147 0.880974 0.155469
H15   H     H_    0.560604 0.119279 0.120733 0.155781
H16   H     H_    0.456679 0.121285 0.880235 0.151041
C145  C     C_R   0.952495 0.557495 0.987380 -0.089227
C146  C     C_R   0.999842 0.414261 0.011827 -0.084285
C147  C     C_R   0.461029 0.958924 0.987066 -0.092090
C148  C     C_R   0.608376 0.996808 0.012844 -0.036811
C149  C     C_R   0.014576 0.417001 0.988306 -0.098391
C150  C     C_R   0.964268 0.563393 0.011030 -0.089722
C151  C     C_R   0.612013 0.995123 0.988289 -0.026890
C152  C     C_R   0.455060 0.968059 0.010493 -0.084436
C153  C     C_R   0.452296 0.076209 0.487906 -0.078055
C154  C     C_R   0.481197 0.925756 0.511486 -0.094597
C155  C     C_R   0.971108 0.454806 0.486666 -0.098154
C156  C     C_R   0.118660 0.492995 0.512651 -0.034741
C157  C     C_R   0.498426 0.929681 0.488101 -0.103237
C158  C     C_R   0.461052 0.077997 0.511654 -0.054137
C159  C     C_R   0.123451 0.486713 0.488288 -0.014781
C160  C     C_R   0.966830 0.457894 0.510259 -0.102729
C161  C     C_R   0.985025 0.486934 0.976063 -0.050105
C162  C     C_R   0.982647 0.489840 0.023254 -0.049711
C163  C     C_R   0.535025 0.982663 0.976039 -0.064221
C164  C     C_R   0.528288 0.984163 0.023385 -0.060245
C165  C     C_R   0.478090 0.003563 0.476214 -0.051689
C166  C     C_R   0.469522 0.001426 0.523382 -0.053273
C167  C     C_R   0.046430 0.476545 0.475833 -0.056812
C168  C     C_R   0.039732 0.475617 0.523154 -0.064556
C169  C     C_R   0.908470 0.618527 0.974555 0.396625
C170  C     C_R   0.997959 0.338747 0.024374 0.432552
C171  C     C_R   0.396093 0.920948 0.974175 0.462013
C172  C     C_R   0.677272 0.016210 0.027877 0.376062
C173  C     C_R   0.055642 0.351785 0.976430 0.416035
C174  C     C_R   0.961717 0.640508 0.022869 0.392280
C175  C     C_R   0.687106 0.000100 0.974881 0.364054
C176  C     C_R   0.376062 0.967041 0.021387 0.416521
C177  C     C_R   0.419704 0.144245 0.475201 0.414328
C178  C     C_R   0.473494 0.849278 0.523508 0.433180
C179  C     C_R   0.902640 0.426013 0.473248 0.428142
C180  C     C_R   0.184732 0.522824 0.527338 0.377412
C181  C     C_R   0.536307 0.862935 0.476129 0.425936
C182  C     C_R   0.464700 0.153399 0.524112 0.371906
C183  C     C_R   0.199767 0.484589 0.475399 0.359431
C184  C     C_R   0.889141 0.451138 0.521511 0.418923
O69   O     O_3   0.365313 0.083316 0.667079 -0.621366
C185  C     C_3   0.283270 0.050655 0.664321 0.123045
H17   H     H_    0.262560 0.026697 0.680758 0.178537
H18   H     H_    0.277891 0.997248 0.652332 0.112484
C186  C     C_3   0.224338 0.121006 0.657056 -0.339768
H19   H     H_    0.225866 0.171687 0.669787 0.238073
H20   H     H_    0.245732 0.147400 0.640954 0.222278
C187  C     C_3   0.134550 0.089856 0.654253 -0.990761
H21   H     H_    0.130875 0.041600 0.640928 0.272396
H22   H     H_    0.093696 0.142971 0.649438 0.266432
H23   H     H_    0.111502 0.063133 0.670141 0.271502
O70   O     O_3   0.370474 0.925076 0.335835 -0.623882
C188  C     C_3   0.290820 0.958119 0.341258 0.121846
H24   H     H_    0.260652 0.980325 0.325572 0.170828
H25   H     H_    0.292752 0.013182 0.352760 0.122643
C189  C     C_3   0.236342 0.889048 0.351160 -0.343574
H26   H     H_    0.223905 0.840531 0.338224 0.228092
H27   H     H_    0.269832 0.858957 0.365346 0.224106
C190  C     C_3   0.153256 0.923690 0.359438 -0.990909
H28   H     H_    0.164229 0.967597 0.373560 0.273808
H29   H     H_    0.113231 0.871520 0.365299 0.268914
H30   H     H_    0.119984 0.957112 0.345776 0.274309
O71   O     O_3   0.934096 0.362836 0.664761 -0.617400
C191  C     C_3   0.959093 0.281426 0.658228 0.112984
H31   H     H_    0.978942 0.247457 0.673538 0.174044
H32   H     H_    0.014012 0.279712 0.646890 0.108058
C192  C     C_3   0.884126 0.235208 0.647857 -0.338228
H33   H     H_    0.832769 0.232312 0.660216 0.237687
H34   H     H_    0.860600 0.269765 0.633022 0.226226
C193  C     C_3   0.907040 0.146421 0.640845 -0.993247
H35   H     H_    0.956056 0.147774 0.627836 0.269059
H36   H     H_    0.850736 0.114652 0.633852 0.269315
H37   H     H_    0.930086 0.110158 0.655446 0.273524
O72   O     O_3   0.095317 0.372706 0.332504 -0.624965
C194  C     C_3   0.072674 0.291715 0.339890 0.121552
H38   H     H_    0.042827 0.258293 0.325603 0.170640
H39   H     H_    0.025968 0.290939 0.353638 0.125669
C195  C     C_3   0.151558 0.243881 0.346891 -0.347531
H40   H     H_    0.193467 0.237253 0.332296 0.235946
H41   H     H_    0.185833 0.279442 0.360033 0.224726
C196  C     C_3   0.130286 0.157240 0.355788 -0.986774
H42   H     H_    0.089419 0.162406 0.370615 0.269807
H43   H     H_    0.188830 0.124752 0.360825 0.269306
H44   H     H_    0.097952 0.119585 0.342694 0.269628
O73   O     O_3   0.623521 0.926042 0.661736 -0.623347
C197  C     C_3   0.701594 0.956179 0.654047 0.112730
H45   H     H_    0.736257 0.982497 0.668627 0.172857
H46   H     H_    0.697185 0.007443 0.641466 0.114757
C198  C     C_3   0.752053 0.883295 0.644524 -0.337788
H47   H     H_    0.759917 0.834423 0.657533 0.237466
H48   H     H_    0.717551 0.855292 0.630146 0.217517
C199  C     C_3   0.838322 0.911576 0.636813 -0.985621
H49   H     H_    0.832037 0.958385 0.623245 0.268053
H50   H     H_    0.873408 0.856889 0.630345 0.267202
H51   H     H_    0.874385 0.939354 0.650946 0.271790
O74   O     O_3   0.630657 0.081751 0.335531 -0.624788
C200  C     C_3   0.706545 0.037453 0.338239 0.113860
H52   H     H_    0.698071 0.969941 0.333990 0.146146
H53   H     H_    0.730243 0.043287 0.355708 0.133566
C201  C     C_3   0.771732 0.074425 0.322592 -0.290791
H54   H     H_    0.748285 0.070292 0.305098 0.254820
H55   H     H_    0.781970 0.141426 0.326799 0.223359
C202  C     C_3   0.854821 0.027873 0.324452 -0.993103
H56   H     H_    0.880577 0.032686 0.341696 0.267395
H57   H     H_    0.900620 0.055555 0.312766 0.273139
H58   H     H_    0.845713 0.960957 0.320066 0.276186
O75   O     O_3   0.064271 0.636456 0.664480 -0.615541
C203  C     C_3   0.033879 0.714001 0.656333 0.111943
H59   H     H_    0.006046 0.748245 0.670603 0.171863
H60   H     H_    0.983086 0.708652 0.643471 0.111772
C204  C     C_3   0.106993 0.765737 0.647425 -0.333565
H61   H     H_    0.153307 0.776639 0.661099 0.237024
H62   H     H_    0.138866 0.730979 0.633880 0.227619
C205  C     C_3   0.077500 0.849930 0.638396 -0.996082
H63   H     H_    0.033103 0.840546 0.624225 0.265959
H64   H     H_    0.132251 0.885874 0.632350 0.269094
H65   H     H_    0.046385 0.886622 0.651711 0.274815
O76   O     O_3   0.938997 0.631294 0.337918 -0.622834
C206  C     C_3   0.985148 0.706776 0.338323 0.104659
H66   H     H_    0.052777 0.696354 0.334587 0.136222
H67   H     H_    0.979698 0.736985 0.354991 0.133667
C207  C     C_3   0.949202 0.765409 0.320551 -0.284345
H68   H     H_    0.953281 0.734880 0.303928 0.263912
H69   H     H_    0.882162 0.778055 0.324058 0.219403
C208  C     C_3   0.996852 0.848013 0.319912 -0.997445
H70   H     H_    0.988032 0.882674 0.335788 0.272597
H71   H     H_    0.972652 0.886805 0.305940 0.277347
H72   H     H_    0.064673 0.836809 0.317254 0.278230
O77   O     O_3   0.869844 0.581429 0.165043 -0.622660
C209  C     C_3   0.787549 0.554242 0.159651 0.116969
H73   H     H_    0.758151 0.531931 0.175274 0.174376
H74   H     H_    0.784140 0.500868 0.147614 0.113614
C210  C     C_3   0.736778 0.628214 0.150709 -0.335906
H75   H     H_    0.735390 0.678506 0.163542 0.237486
H76   H     H_    0.767068 0.653622 0.135559 0.221115
C211  C     C_3   0.647163 0.602688 0.144847 -0.993509
H77   H     H_    0.646887 0.554636 0.131435 0.267049
H78   H     H_    0.612164 0.658230 0.138797 0.268416
H79   H     H_    0.615179 0.577462 0.159767 0.272172
O78   O     O_3   0.867657 0.420179 0.833995 -0.623475
C212  C     C_3   0.789023 0.454400 0.839946 0.120864
H80   H     H_    0.759530 0.480688 0.824630 0.169484
H81   H     H_    0.792640 0.507049 0.852224 0.135086
C213  C     C_3   0.732399 0.385036 0.848827 -0.345385
H82   H     H_    0.717758 0.340154 0.835137 0.226651
H83   H     H_    0.765175 0.350368 0.862359 0.226757
C214  C     C_3   0.650970 0.420549 0.857951 -0.978804
H84   H     H_    0.664120 0.461046 0.872661 0.277806
H85   H     H_    0.609558 0.368528 0.863202 0.269852
H86   H     H_    0.618146 0.457830 0.844944 0.271545
O79   O     O_3   0.429521 0.865270 0.164381 -0.618829
C215  C     C_3   0.460014 0.785703 0.157859 0.116265
H87   H     H_    0.485019 0.754169 0.173019 0.171952
H88   H     H_    0.512756 0.787547 0.145785 0.113874
C216  C     C_3   0.387607 0.733206 0.148430 -0.340145
H89   H     H_    0.340180 0.723767 0.161641 0.233607
H90   H     H_    0.357077 0.766756 0.134331 0.225381
C217  C     C_3   0.417675 0.648124 0.140205 -0.994467
H91   H     H_    0.460662 0.656041 0.125914 0.269353
H92   H     H_    0.363089 0.610206 0.134580 0.270215
H93   H     H_    0.450691 0.614189 0.153827 0.277419
O80   O     O_3   0.588908 0.872983 0.834262 -0.626315
C218  C     C_3   0.563813 0.792540 0.841528 0.116409
H94   H     H_    0.535801 0.759277 0.826956 0.171476
H95   H     H_    0.514959 0.792749 0.854736 0.129417
C219  C     C_3   0.640720 0.743616 0.849550 -0.345647
H96   H     H_    0.686609 0.739227 0.835772 0.236947
H97   H     H_    0.671163 0.776980 0.863748 0.217799
C220  C     C_3   0.617211 0.655566 0.856986 -0.966640
H98   H     H_    0.572913 0.658371 0.871139 0.271396
H99   H     H_    0.674454 0.621840 0.862534 0.274473
H100  H     H_    0.587867 0.620347 0.842944 0.264277
O81   O     O_3   0.125967 0.419465 0.163835 -0.621977
C221  C     C_3   0.202853 0.461782 0.161086 0.106563
H101  H     H_    0.197064 0.529097 0.165782 0.145286
H102  H     H_    0.224145 0.456806 0.143504 0.124249
C222  C     C_3   0.268751 0.421377 0.176253 -0.284312
H103  H     H_    0.248152 0.425589 0.193882 0.252800
H104  H     H_    0.275284 0.354207 0.171779 0.220831
C223  C     C_3   0.353700 0.464159 0.174098 -1.001409
H105  H     H_    0.376285 0.459450 0.156671 0.269547
H106  H     H_    0.399923 0.433218 0.185300 0.271013
H107  H     H_    0.348968 0.531059 0.178951 0.278473
O82   O     O_3   0.130821 0.571842 0.837290 -0.627156
C224  C     C_3   0.206118 0.525874 0.838705 0.117377
H108  H     H_    0.196965 0.460902 0.832266 0.147894
H109  H     H_    0.229339 0.523377 0.856275 0.135568
C225  C     C_3   0.272145 0.569197 0.824514 -0.293686
H110  H     H_    0.248871 0.574164 0.807018 0.252748
H111  H     H_    0.283484 0.633384 0.831057 0.222360
C226  C     C_3   0.354371 0.520796 0.824738 -0.990216
H112  H     H_    0.379565 0.515900 0.842036 0.267515
H113  H     H_    0.401060 0.553741 0.814322 0.272474
H114  H     H_    0.344273 0.457051 0.817809 0.276960
O83   O     O_3   0.568772 0.134922 0.164775 -0.617195
C227  C     C_3   0.530961 0.212819 0.159642 0.117634
H115  H     H_    0.505090 0.238818 0.175343 0.174838
H116  H     H_    0.477615 0.209230 0.147470 0.111869
C228  C     C_3   0.597580 0.272968 0.150931 -0.337858
H117  H     H_    0.649356 0.278305 0.163394 0.240313
H118  H     H_    0.623888 0.248008 0.135170 0.217263
C229  C     C_3   0.561349 0.359758 0.146589 -0.986535
H119  H     H_    0.509814 0.356250 0.134032 0.266860
H120  H     H_    0.611176 0.401293 0.140099 0.267852
H121  H     H_    0.537127 0.387169 0.162297 0.272426
O84   O     O_3   0.432941 0.132740 0.836576 -0.623622
C230  C     C_3   0.479961 0.207687 0.837147 0.108861
H122  H     H_    0.547867 0.196215 0.834010 0.138631
H123  H     H_    0.472972 0.238728 0.853661 0.134625
C231  C     C_3   0.446849 0.265993 0.818922 -0.287968
H124  H     H_    0.451683 0.234381 0.802469 0.267305
H125  H     H_    0.379816 0.280330 0.821964 0.218202
C232  C     C_3   0.496440 0.347424 0.818207 -0.995676
H126  H     H_    0.487642 0.382942 0.833944 0.273349
H127  H     H_    0.473866 0.386162 0.804036 0.277587
H128  H     H_    0.564102 0.334519 0.815826 0.278115
O85   O     O_3   0.432551 0.224579 0.558483 -0.593750
C233  C     C_3   0.345805 0.239220 0.555792 0.091719
H129  H     H_    0.308075 0.180791 0.557692 0.118146
H130  H     H_    0.333629 0.266143 0.539022 0.148819
C234  C     C_3   0.317213 0.301335 0.573490 -0.299101
H131  H     H_    0.329082 0.274616 0.590330 0.253861
H132  H     H_    0.353765 0.360146 0.572056 0.218778
C235  C     C_3   0.223992 0.320437 0.570924 -0.978982
H133  H     H_    0.210627 0.348692 0.554354 0.255539
H134  H     H_    0.204955 0.364917 0.584143 0.302851
H135  H     H_    0.186477 0.262339 0.572658 0.260622
O86   O     O_3   0.555718 0.786745 0.442213 -0.598290
C236  C     C_3   0.486726 0.751966 0.430143 0.178224
H136  H     H_    0.510359 0.696667 0.420897 0.171167
H137  H     H_    0.460921 0.795248 0.417391 0.153026
C237  C     C_3   0.415203 0.723436 0.445186 -0.506293
H138  H     H_    0.440002 0.680698 0.458192 0.246979
H139  H     H_    0.386844 0.778858 0.453276 0.204471
C238  C     C_3   0.346582 0.679423 0.431645 -0.873635
H140  H     H_    0.324877 0.719703 0.417668 0.265091
H141  H     H_    0.292097 0.666620 0.442478 0.259508
H142  H     H_    0.370255 0.619376 0.424819 0.287607
O87   O     O_3   0.810920 0.413197 0.553577 -0.592312
C239  C     C_3   0.814737 0.328587 0.560556 0.140040
H143  H     H_    0.766365 0.319857 0.573532 0.185562
H144  H     H_    0.875626 0.311704 0.568648 0.121088
C240  C     C_3   0.796565 0.269229 0.541004 -0.405550
H145  H     H_    0.743033 0.293236 0.530970 0.241210
H146  H     H_    0.852395 0.266532 0.530190 0.216681
C241  C     C_3   0.776390 0.181088 0.549020 -0.986622
H147  H     H_    0.829999 0.155288 0.558732 0.270987
H148  H     H_    0.764039 0.139899 0.534408 0.272132
H149  H     H_    0.719728 0.181739 0.559621 0.270430
O88   O     O_3   0.262242 0.451340 0.439534 -0.619285
C242  C     C_3   0.253159 0.363940 0.436099 0.100018
H150  H     H_    0.187493 0.340761 0.437971 0.105589
H151  H     H_    0.293006 0.330745 0.448490 0.197676
C243  C     C_3   0.282764 0.340951 0.412680 -0.287529
H152  H     H_    0.252728 0.382645 0.400178 0.244364
H153  H     H_    0.351639 0.349693 0.411732 0.235729
C244  C     C_3   0.260437 0.250630 0.406772 -0.885038
H154  H     H_    0.283832 0.207142 0.419810 0.307818
H155  H     H_    0.289060 0.233547 0.390587 0.285368
H156  H     H_    0.191409 0.243572 0.405200 0.236148
O89   O     O_3   0.488890 0.772681 0.557559 -0.599493
C245  C     C_3   0.570672 0.766825 0.567103 0.158956
H157  H     H_    0.573263 0.708080 0.576922 0.168992
H158  H     H_    0.584961 0.818336 0.579001 0.148081
C246  C     C_3   0.639189 0.764257 0.549470 -0.435748
H159  H     H_    0.622902 0.715933 0.536910 0.266242
H160  H     H_    0.642588 0.826007 0.541119 0.200781
C247  C     C_3   0.724913 0.746100 0.559864 -0.969302
H161  H     H_    0.743790 0.797979 0.571211 0.268237
H162  H     H_    0.772169 0.740340 0.546483 0.261011
H163  H     H_    0.723672 0.686976 0.569510 0.275391
O90   O     O_3   0.425819 0.226467 0.442232 -0.615614
C248  C     C_3   0.505145 0.262318 0.437521 0.144566
H164  H     H_    0.493244 0.322193 0.428701 0.162470
H165  H     H_    0.542000 0.222867 0.425915 0.157618
C249  C     C_3   0.558045 0.280746 0.458574 -0.446830
H166  H     H_    0.520232 0.315533 0.470897 0.270650
H167  H     H_    0.578991 0.221317 0.466402 0.215369
C250  C     C_3   0.635530 0.331524 0.452775 -0.911827
H168  H     H_    0.676511 0.295242 0.441455 0.281050
H169  H     H_    0.671037 0.346726 0.468283 0.294017
H170  H     H_    0.617062 0.390475 0.444333 0.268310
O91   O     O_3   0.224527 0.591917 0.561687 -0.594079
C251  C     C_3   0.189582 0.672148 0.565103 0.098781
H171  H     H_    0.130048 0.668553 0.574565 0.136605
H172  H     H_    0.176485 0.702738 0.548846 0.132340
C252  C     C_3   0.251307 0.725928 0.578553 -0.276412
H173  H     H_    0.263226 0.696203 0.595025 0.248232
H174  H     H_    0.311707 0.730416 0.569628 0.249493
C253  C     C_3   0.217379 0.814017 0.582204 -0.971410
H175  H     H_    0.207414 0.845751 0.565927 0.258403
H176  H     H_    0.263084 0.851024 0.592238 0.294130
H177  H     H_    0.157212 0.811562 0.591315 0.263112
O92   O     O_3   0.822413 0.429295 0.439563 -0.585061
C254  C     C_3   0.781789 0.504272 0.432907 0.185480
H178  H     H_    0.736549 0.487480 0.419414 0.185587
H179  H     H_    0.825211 0.551566 0.425801 0.133237
C255  C     C_3   0.734256 0.544064 0.452164 -0.468189
H180  H     H_    0.700721 0.494891 0.461463 0.260351
H181  H     H_    0.779815 0.575007 0.463547 0.210264
C256  C     C_3   0.671539 0.609153 0.443879 -0.910178
H182  H     H_    0.704235 0.659484 0.434656 0.280903
H183  H     H_    0.638807 0.637268 0.458329 0.301687
H184  H     H_    0.624135 0.579559 0.432701 0.259264
O93   O     O_3   0.950631 0.719050 0.056701 -0.589757
C257  C     C_3   0.869666 0.724665 0.066170 0.161933
H185  H     H_    0.870531 0.778574 0.077890 0.183625
H186  H     H_    0.852847 0.668763 0.076213 0.125901
C258  C     C_3   0.802007 0.739406 0.048361 -0.418467
H187  H     H_    0.823483 0.788213 0.036680 0.244388
H188  H     H_    0.791876 0.680699 0.038826 0.216474
C259  C     C_3   0.719058 0.765698 0.058713 -0.979183
H189  H     H_    0.694665 0.714863 0.069444 0.270112
H190  H     H_    0.672435 0.778709 0.045300 0.274099
H191  H     H_    0.727246 0.823233 0.068924 0.279298
O94   O     O_3   0.069743 0.272485 0.942718 -0.611515
C260  C     C_3   0.000507 0.240289 0.930054 0.149734
H192  H     H_    0.016727 0.175432 0.925150 0.162538
H193  H     H_    0.991319 0.273877 0.914114 0.175417
C261  C     C_3   0.916859 0.237371 0.942597 -0.529177
H194  H     H_    0.925982 0.203611 0.958430 0.234033
H195  H     H_    0.894590 0.301589 0.946380 0.217660
C262  C     C_3   0.849217 0.193245 0.928750 -0.841329
H196  H     H_    0.839555 0.225955 0.912601 0.263918
H197  H     H_    0.789222 0.193777 0.937955 0.268826
H198  H     H_    0.867300 0.127297 0.925495 0.283783
O95   O     O_3   0.292636 0.947229 0.053792 -0.595097
C263  C     C_3   0.287872 0.866509 0.063502 0.175310
H199  H     H_    0.246069 0.870925 0.078166 0.193184
H200  H     H_    0.349210 0.842398 0.069844 0.109305
C264  C     C_3   0.249959 0.803985 0.047012 -0.403022
H201  H     H_    0.188082 0.827250 0.041228 0.249072
H202  H     H_    0.292090 0.798167 0.032534 0.220178
C265  C     C_3   0.238870 0.718083 0.057630 -0.950289
H203  H     H_    0.299935 0.694177 0.063938 0.258941
H204  H     H_    0.214036 0.673348 0.045012 0.257448
H205  H     H_    0.193999 0.721777 0.071642 0.294166
O96   O     O_3   0.752530 0.984646 0.938795 -0.630216
C266  C     C_3   0.745320 0.908110 0.926680 0.121621
H206  H     H_    0.806504 0.896880 0.918574 0.146532
H207  H     H_    0.699641 0.912665 0.912729 0.156173
C267  C     C_3   0.725676 0.831355 0.941172 -0.415133
H208  H     H_    0.780575 0.817240 0.952036 0.271407
H209  H     H_    0.670945 0.843100 0.951990 0.210598
C268  C     C_3   0.704237 0.755686 0.926552 -0.845236
H210  H     H_    0.644067 0.766457 0.917541 0.238891
H211  H     H_    0.697603 0.699145 0.937092 0.279371
H212  H     H_    0.753910 0.744310 0.914092 0.289850
O97   O     O_3   0.016594 0.265686 0.058803 -0.591720
C269  C     C_3   0.099303 0.261383 0.067797 0.173829
H213  H     H_    0.104406 0.201247 0.076947 0.181171
H214  H     H_    0.112286 0.311631 0.080173 0.146933
C270  C     C_3   0.166919 0.263832 0.049847 -0.459459
H215  H     H_    0.148592 0.221286 0.036109 0.269969
H216  H     H_    0.171766 0.328379 0.043165 0.199925
C271  C     C_3   0.252483 0.238452 0.059146 -0.954520
H217  H     H_    0.271665 0.281279 0.072898 0.268723
H218  H     H_    0.299729 0.242142 0.045718 0.255014
H219  H     H_    0.250773 0.173330 0.065515 0.287697
O98   O     O_3   0.876685 0.684796 0.939766 -0.601796
C272  C     C_3   0.938479 0.735296 0.929510 0.150311
H220  H     H_    0.905705 0.776751 0.917441 0.165912
H221  H     H_    0.984817 0.699087 0.919736 0.146653
C273  C     C_3   0.985774 0.788991 0.946458 -0.418816
H222  H     H_    0.940590 0.817497 0.958100 0.249193
H223  H     H_    0.029168 0.748525 0.956105 0.213222
C274  C     C_3   0.036604 0.856610 0.934832 -0.965820
H224  H     H_    0.081009 0.828034 0.922881 0.274454
H225  H     H_    0.073144 0.892143 0.947398 0.279342
H226  H     H_    0.994547 0.900533 0.925789 0.266759
O99   O     O_3   0.728428 0.067023 0.063266 -0.594311
C275  C     C_3   0.710001 0.152126 0.067310 0.095631
H227  H     H_    0.649762 0.159342 0.076326 0.134829
H228  H     H_    0.705526 0.186704 0.051335 0.134887
C276  C     C_3   0.779686 0.190573 0.081681 -0.274182
H229  H     H_    0.783830 0.156562 0.097804 0.250438
H230  H     H_    0.840652 0.184254 0.073063 0.241218
C277  C     C_3   0.763009 0.282948 0.086305 -0.944555
H231  H     H_    0.762473 0.318848 0.070462 0.257861
H232  H     H_    0.813005 0.308428 0.097371 0.307171
H233  H     H_    0.701930 0.290903 0.094761 0.249397
O100  O     O_3   0.317406 0.908347 0.940228 -0.597854
C278  C     C_3   0.271243 0.977646 0.931916 0.192771
H234  H     H_    0.226329 0.953438 0.919168 0.181805
H235  H     H_    0.310688 0.025162 0.923481 0.141397
C279  C     C_3   0.222367 0.020861 0.950295 -0.461832
H236  H     H_    0.184890 0.973719 0.959207 0.242670
H237  H     H_    0.266996 0.050721 0.962134 0.219745
C280  C     C_3   0.164589 0.087842 0.940777 -0.943460
H238  H     H_    0.201032 0.135012 0.931366 0.286510
H239  H     H_    0.132279 0.120056 0.954642 0.304926
H240  H     H_    0.116921 0.058923 0.929549 0.265149
O101  O     O_3   0.855063 0.675817 0.984295 -0.585680
C281  C     C_3   0.779561 0.634781 0.989820 0.110245
H241  H     H_    0.789196 0.597239 0.005229 0.127838
H242  H     H_    0.757218 0.592349 0.976164 0.121643
C282  C     C_3   0.711220 0.700001 0.993760 -0.315489
H243  H     H_    0.735286 0.750892 0.004682 0.239817
H244  H     H_    0.692720 0.728223 0.977613 0.222718
C283  C     C_3   0.633798 0.661153 0.004267 -1.003012
H245  H     H_    0.608233 0.610804 0.993362 0.266802
H246  H     H_    0.585008 0.709869 0.006423 0.264472
H247  H     H_    0.649653 0.634649 0.020887 0.273776
O102  O     O_3   0.984974 0.261002 0.014660 -0.586222
C284  C     C_3   0.905622 0.257655 0.003851 0.099231
H248  H     H_    0.903287 0.198255 0.994583 0.144447
H249  H     H_    0.897066 0.307672 0.991245 0.124680
C285  C     C_3   0.832171 0.257855 0.020138 -0.372932
H250  H     H_    0.837939 0.203394 0.031484 0.249312
H251  H     H_    0.832899 0.316087 0.030278 0.207919
C286  C     C_3   0.748857 0.253251 0.007382 -0.955932
H252  H     H_    0.744842 0.304078 0.994818 0.259398
H253  H     H_    0.695904 0.261072 0.019015 0.255560
H254  H     H_    0.742353 0.191969 0.998787 0.272445
O103  O     O_3   0.342498 0.862984 0.983471 -0.595602
C287  C     C_3   0.384351 0.785243 0.985797 0.046278
H255  H     H_    0.357912 0.752879 0.000467 0.150572
H256  H     H_    0.452945 0.791365 0.989247 0.120546
C288  C     C_3   0.369084 0.730261 0.965178 -0.299838
H257  H     H_    0.300638 0.724886 0.961922 0.239297
H258  H     H_    0.398716 0.759249 0.950403 0.239815
C289  C     C_3   0.405717 0.643009 0.968408 -0.986603
H259  H     H_    0.474491 0.646953 0.971143 0.271303
H260  H     H_    0.393292 0.604656 0.953262 0.272994
H261  H     H_    0.376517 0.611797 0.982929 0.263362
O104  O     O_3   0.758426 0.027139 0.021109 -0.624444
C290  C     C_3   0.811649 0.964862 0.030659 0.174673
H262  H     H_    0.824075 0.915852 0.018001 0.165398
H263  H     H_    0.784776 0.931961 0.045307 0.148141
C291  C     C_3   0.894986 0.004314 0.037814 -0.356270
H264  H     H_    0.929868 0.023913 0.022814 0.210421
H265  H     H_    0.883482 0.060671 0.048184 0.265102
C292  C     C_3   0.948201 0.942880 0.051261 -0.904409
H266  H     H_    0.959070 0.885080 0.041446 0.290143
H267  H     H_    0.916158 0.926376 0.067008 0.281268
H268  H     H_    0.009476 0.971723 0.055573 0.268777
O105  O     O_3   0.103051 0.292081 0.987407 -0.595108
C293  C     C_3   0.186423 0.321545 0.989990 0.045222
H269  H     H_    0.210571 0.298689 0.006217 0.159608
H270  H     H_    0.191863 0.391207 0.990628 0.116370
C294  C     C_3   0.242590 0.285934 0.971707 -0.319317
H271  H     H_    0.234381 0.217109 0.970775 0.235592
H272  H     H_    0.224924 0.313341 0.955329 0.255584
C295  C     C_3   0.334710 0.305005 0.976434 -0.991681
H273  H     H_    0.345012 0.373646 0.977328 0.272402
H274  H     H_    0.373551 0.278937 0.962822 0.273129
H275  H     H_    0.354866 0.276008 0.992435 0.257477
O106  O     O_3   0.970255 0.716292 0.012109 -0.583761
C296  C     C_3   0.054951 0.725581 0.005962 0.119707
H276  H     H_    0.067554 0.688084 0.990718 0.127065
H277  H     H_    0.099000 0.705072 0.019454 0.126029
C297  C     C_3   0.072779 0.817380 0.001344 -0.408631
H278  H     H_    0.024590 0.843255 0.989970 0.240855
H279  H     H_    0.070365 0.852931 0.017218 0.223862
C298  C     C_3   0.158474 0.828207 0.990897 -0.857914
H280  H     H_    0.158147 0.804726 0.973462 0.265060
H281  H     H_    0.206377 0.793221 0.000511 0.276821
H282  H     H_    0.175395 0.895210 0.990979 0.308273
O107  O     O_3   0.763978 0.977520 0.983705 -0.617023
C299  C     C_3   0.829227 0.034595 0.978255 0.178054
H283  H     H_    0.842740 0.074827 0.992774 0.172593
H284  H     H_    0.815086 0.078825 0.964491 0.144352
C300  C     C_3   0.907651 0.984193 0.973116 -0.346267
H285  H     H_    0.916180 0.935983 0.986206 0.225069
H286  H     H_    0.898969 0.952607 0.956788 0.254418
C301  C     C_3   0.986165 0.038034 0.972343 -1.008975
H287  H     H_    0.986411 0.074582 0.956698 0.285761
H288  H     H_    0.041951 0.997072 0.972601 0.273695
H289  H     H_    0.990707 0.080461 0.986975 0.280876
O108  O     O_3   0.302074 0.980349 0.009763 -0.576280
C302  C     C_3   0.282582 0.066677 0.010484 0.105442
H290  H     H_    0.315301 0.099092 0.996702 0.090406
H291  H     H_    0.301926 0.098028 0.026393 0.136589
C303  C     C_3   0.188198 0.078453 0.007559 -0.366384
H292  H     H_    0.174481 0.145662 0.005163 0.212191
H293  H     H_    0.165771 0.045449 0.992462 0.223150
C304  C     C_3   0.139908 0.045688 0.027541 -0.737765
H294  H     H_    0.164000 0.073339 0.043335 0.268313
H295  H     H_    0.145349 0.976701 0.028545 0.282636
H296  H     H_    0.072991 0.062679 0.025600 0.240562
O109  O     O_3   0.373624 0.208888 0.484440 -0.582576
C305  C     C_3   0.294227 0.179174 0.491015 0.075132
H297  H     H_    0.300514 0.142092 0.506609 0.133068
H298  H     H_    0.264498 0.139421 0.477803 0.111068
C306  C     C_3   0.236811 0.254140 0.495307 -0.279992
H299  H     H_    0.270541 0.302116 0.505365 0.244593
H300  H     H_    0.218663 0.283017 0.479176 0.209007
C307  C     C_3   0.157389 0.228771 0.507508 -1.017613
H301  H     H_    0.121973 0.181409 0.497635 0.266875
H302  H     H_    0.116978 0.284557 0.509864 0.274253
H303  H     H_    0.173401 0.202673 0.524170 0.263645
O110  O     O_3   0.458568 0.772930 0.513165 -0.591056
C308  C     C_3   0.380017 0.773221 0.501871 0.082999
H304  H     H_    0.376028 0.714526 0.492074 0.156884
H305  H     H_    0.374212 0.825341 0.489790 0.121372
C309  C     C_3   0.305308 0.775127 0.517738 -0.374363
H306  H     H_    0.310588 0.722935 0.529773 0.260870
H307  H     H_    0.304645 0.835036 0.527165 0.205408
C310  C     C_3   0.223126 0.766857 0.504623 -0.947146
H308  H     H_    0.169196 0.775749 0.515887 0.253179
H309  H     H_    0.218539 0.703886 0.496815 0.278411
H310  H     H_    0.219289 0.815270 0.491394 0.258383
O111  O     O_3   0.844834 0.368844 0.481054 -0.586683
C311  C     C_3   0.881920 0.288505 0.481097 0.102378
H311  H     H_    0.922828 0.281978 0.496119 0.127507
H312  H     H_    0.920609 0.277021 0.465959 0.125663
C312  C     C_3   0.813006 0.222039 0.481383 -0.317519
H313  H     H_    0.766539 0.237108 0.494421 0.225908
H314  H     H_    0.779901 0.221639 0.465005 0.230434
C313  C     C_3   0.848774 0.135098 0.485743 -0.987997
H315  H     H_    0.893994 0.117940 0.472539 0.269468
H316  H     H_    0.797155 0.088512 0.485688 0.265707
H317  H     H_    0.880886 0.133262 0.502261 0.269601
O112  O     O_3   0.263576 0.543484 0.520027 -0.618515
C314  C     C_3   0.325809 0.495844 0.531705 0.169159
H318  H     H_    0.339461 0.438315 0.522075 0.126441
H319  H     H_    0.306311 0.471438 0.548217 0.156510
C315  C     C_3   0.406886 0.547128 0.534381 -0.370573
H320  H     H_    0.458307 0.514379 0.525739 0.174089
H321  H     H_    0.400546 0.609207 0.526379 0.267311
C316  C     C_3   0.432207 0.560002 0.558790 -0.793556
H322  H     H_    0.434964 0.499296 0.567683 0.236985
H323  H     H_    0.386719 0.601144 0.567267 0.305056
H324  H     H_    0.494851 0.589847 0.559734 0.254549
O113  O     O_3   0.581857 0.801121 0.486861 -0.587136
C317  C     C_3   0.661945 0.833054 0.492837 0.054327
H325  H     H_    0.688395 0.791848 0.505869 0.161643
H326  H     H_    0.658987 0.896886 0.500342 0.121115
C318  C     C_3   0.722464 0.831658 0.473107 -0.328048
H327  H     H_    0.722323 0.768488 0.465405 0.251316
H328  H     H_    0.702397 0.877883 0.460342 0.229138
C319  C     C_3   0.811518 0.853051 0.480639 -0.984414
H329  H     H_    0.834607 0.806265 0.492910 0.258387
H330  H     H_    0.813426 0.916280 0.488351 0.269532
H331  H     H_    0.853603 0.852478 0.466006 0.273026
O114  O     O_3   0.482672 0.228426 0.513609 -0.610058
C320  C     C_3   0.555718 0.266240 0.522732 0.134479
H332  H     H_    0.600826 0.275419 0.508961 0.117083
H333  H     H_    0.589940 0.226868 0.535204 0.136304
C321  C     C_3   0.533394 0.352202 0.532438 -0.326529
H334  H     H_    0.552003 0.401257 0.520401 0.181245
H335  H     H_    0.464722 0.357807 0.534662 0.247992
C322  C     C_3   0.576034 0.368121 0.554978 -0.882855
H336  H     H_    0.553399 0.323554 0.567718 0.313748
H337  H     H_    0.562780 0.432588 0.560720 0.259852
H338  H     H_    0.644463 0.361354 0.553493 0.271335
O115  O     O_3   0.275579 0.463496 0.485345 -0.630809
C323  C     C_3   0.343467 0.514311 0.477965 0.165186
H339  H     H_    0.354923 0.565534 0.489980 0.167609
H340  H     H_    0.333577 0.547036 0.461944 0.160640
C324  C     C_3   0.422223 0.460623 0.476373 -0.327790
H341  H     H_    0.430095 0.423091 0.491796 0.227495
H342  H     H_    0.415316 0.416760 0.462087 0.254049
C325  C     C_3   0.500381 0.513920 0.473160 -1.029820
H343  H     H_    0.499128 0.542570 0.456322 0.283919
H344  H     H_    0.556800 0.474041 0.474730 0.280499
H345  H     H_    0.504775 0.563794 0.486060 0.279236
O116  O     O_3   0.814395 0.472233 0.511218 -0.562197
C326  C     C_3   0.804617 0.560122 0.512524 0.120928
H346  H     H_    0.838553 0.590186 0.498584 0.083482
H347  H     H_    0.829323 0.587669 0.528452 0.120475
C327  C     C_3   0.711899 0.581986 0.510829 -0.358577
H348  H     H_    0.705096 0.650736 0.510218 0.181426
H349  H     H_    0.684131 0.555763 0.495374 0.232277
C328  C     C_3   0.663978 0.547246 0.530540 -0.775991
H350  H     H_    0.689423 0.571866 0.546520 0.267963
H351  H     H_    0.669599 0.478403 0.530602 0.309403
H352  H     H_    0.597078 0.564657 0.528972 0.231247

loop_
_geom_bond_atom_site_label_1
_geom_bond_atom_site_label_2
_geom_bond_distance
_ccdc_geom_bond_type
C193  H36   1.110242 S    
C230  H122  1.117711 S    
C262  H197  1.110459 S    
C279  H236  1.104406 S    
C118  C134  1.410147 A    
O81   C221  1.412741 S    
C68   H16   1.082943 S    
C41   C105  1.412317 A    
C324  H341  1.109624 S    
C251  C252  1.529657 S    
Zn5   O51   1.938256 S    
C49   O61   1.349157 S    
O86   C236  1.423759 S    
C281  C282  1.529942 S    
N4    C92   1.438820 S    
O73   C197  1.418039 S    
C80   C140  1.416333 A    
C122  C181  1.402439 A    
O85   C233  1.412829 S    
O82   C224  1.411877 S    
C234  C235  1.526286 S    
C300  H286  1.107528 S    
C257  C258  1.529909 S    
C159  C167  1.441114 A    
C127  C180  1.411580 A    
C209  H73   1.111295 S    
C22   C25   1.426303 S    
C128  C179  1.392533 A    
C264  H201  1.108808 S    
C129  C174  1.403048 A    
C50   C114  1.409039 A    
C1    C144  1.484105 S    
C213  H83   1.110619 S    
C60   H8    1.082982 S    
C263  H200  1.116483 S    
C325  H343  1.109410 S    
Zn3   O38   1.938508 S    
C301  H288  1.106284 S    
C278  H235  1.112397 S    
C193  H37   1.110903 S    
C313  H316  1.110584 S    
O111  C311  1.415233 S    
C148  C151  1.473661 A    
C232  H128  1.110794 S    
Zn6   O19   1.894968 S    
C62   C78   1.406994 A    
C261  H195  1.110712 S    
C256  H182  1.110666 S    
C3    C142  1.483754 S    
C128  O92   1.387149 S    
C21   C26   1.426316 S    
C237  H138  1.108480 S    
C208  H72   1.110942 S    
Zn13  O35   1.938256 S    
C216  H89   1.111764 S    
C71   H11   1.082116 S    
C145  C150  1.430875 A    
O34   C22   1.268459 A    
Zn14  O36   1.938256 S    
C250  H168  1.110374 S    
C259  H190  1.110370 S    
C263  H199  1.111174 S    
C258  H188  1.108694 S    
C98   C165  1.424000 A    
C47   C111  1.411783 A    
C68   C84   1.403619 A    
C133  C170  1.403446 A    
C285  C286  1.529353 S    
Zn3   O3    1.955172 S    
O72   C194  1.417657 S    
C45   C109  1.416448 A    
C23   C32   1.425849 S    
C160  C184  1.422258 A    
C134  O98   1.385410 S    
C259  H191  1.110593 S    
C280  H240  1.110665 S    
C313  H317  1.110818 S    
Zn3   O45   1.930698 S    
C20   C27   1.427963 S    
C272  H221  1.110775 S    
C318  H327  1.109602 S    
C157  C181  1.423427 A    
C274  H225  1.104027 S    
C99   C111  1.397108 A    
C130  C173  1.403806 A    
Zn6   O2    1.941425 S    
C82   C142  1.414850 A    
C129  O93   1.386673 S    
C307  H301  1.110755 S    
C284  H249  1.109339 S    
C56   O68   1.349553 S    
C79   C139  1.418211 A    
C312  H314  1.110212 S    
C136  C171  1.395829 A    
C154  C166  1.416388 A    
C282  C283  1.525667 S    
C155  C179  1.426025 A    
C195  H40   1.111674 S    
C12   C35   1.425153 S    
C287  H256  1.116844 S    
C52   C116  1.409575 A    
C297  C298  1.520637 S    
C215  H88   1.116426 S    
C325  H345  1.111030 S    
Zn1   O44   1.932337 S    
C246  H160  1.109835 S    
Zn2   O43   1.932339 S    
O102  C284  1.418237 S    
C260  C261  1.540179 S    
O22   C10   1.269522 A    
Zn3   O18   1.889217 S    
C243  H152  1.110017 S    
O93   C257  1.420099 S    
C191  H31   1.111189 S    
C304  H296  1.107925 S    
C326  H346  1.110712 S    
C242  C243  1.529632 S    
O112  C314  1.431137 S    
C171  O103  1.383202 S    
Zn8   O41   1.933435 S    
C76   C140  1.413578 A    
C289  H261  1.110924 S    
C282  H244  1.106479 S    
O40   C18   1.264745 A    
C288  H257  1.111593 S    
C276  C277  1.526502 S    
C201  H54   1.111567 S    
C250  H170  1.109894 S    
C241  H147  1.110755 S    
C100  C112  1.419337 A    
C288  C289  1.525595 S    
C238  H141  1.110138 S    
C102  C161  1.420292 A    
C215  H87   1.111247 S    
C177  O109  1.386906 S    
O17   C5    1.279933 A    
C223  H105  1.110901 S    
N2    C90   1.437389 S    
C52   N8    1.361956 A    
Zn7   O3    1.950253 S    
O101  C281  1.414887 S    
C256  H184  1.110519 S    
C173  O105  1.382853 S    
O9    C1    1.281638 A    
O116  C326  1.416405 S    
C69   C85   1.407812 A    
C106  C122  1.412092 A    
O11   C3    1.280540 A    
C187  H21   1.110166 S    
C269  C270  1.532548 S    
C194  H39   1.117141 S    
C131  C176  1.395705 A    
C196  H44   1.110806 S    
C97   C105  1.409020 A    
C214  H85   1.110467 S    
C257  H185  1.110618 S    
C131  O95   1.387795 S    
C127  O91   1.388513 S    
Zn13  O4    1.941428 S    
C303  H292  1.106564 S    
Zn14  O3    1.941425 S    
C98   C110  1.412484 A    
Zn15  O26   1.933434 S    
C283  H246  1.110565 S    
C6    C139  1.488490 S    
C72   C96   1.396641 A    
C65   H13   1.082914 S    
C264  C265  1.526481 S    
C126  O90   1.384740 S    
C225  C226  1.524829 S    
O44   C22   1.266686 A    
N8    C96   1.435765 S    
C212  H80   1.111269 S    
C48   C112  1.415230 A    
Zn11  O10   1.889217 S    
C311  C312  1.529582 S    
C227  H115  1.111410 S    
C304  H294  1.108936 S    
C67   H15   1.082550 S    
C153  C158  1.429041 A    
O38   C20   1.269562 A    
C246  H159  1.106401 S    
C291  H265  1.109949 S    
C310  H309  1.111415 S    
C263  C264  1.524692 S    
C59   C75   1.408528 A    
C169  O101  1.384308 S    
O74   C200  1.412469 S    
C309  H307  1.111108 S    
N1    C89   1.444420 S    
C2    C143  1.483436 S    
C54   N6    1.364113 A    
C301  H289  1.109139 S    
C226  H113  1.110704 S    
C260  H193  1.105787 S    
C59   H7    1.081288 S    
C104  C120  1.418124 A    
C123  O87   1.384101 S    
C88   C144  1.415141 A    
C240  H145  1.109628 S    
C299  H284  1.109739 S    
C328  H350  1.107828 S    
C318  C319  1.525953 S    
O5    C1    1.277674 A    
O75   C203  1.418254 S    
O97   C269  1.423301 S    
C51   N7    1.363156 A    
C44   C108  1.412897 A    
C273  C274  1.525690 S    
C206  H66   1.117746 S    
O31   C19   1.268496 A    
C210  H76   1.110931 S    
C291  C292  1.526057 S    
Zn15  O2    1.950253 S    
Zn5   O20   1.894967 S    
Zn11  O2    1.955172 S    
C115  C131  1.403425 A    
C270  H215  1.103802 S    
C322  H337  1.107317 S    
O27   C15   1.266577 A    
C132  O96   1.395492 S    
C245  H158  1.110143 S    
C306  C307  1.525586 S    
C293  H269  1.105776 S    
C290  H263  1.114233 S    
C268  H210  1.111243 S    
O94   C260  1.429521 S    
Zn15  O33   1.938040 S    
C80   O72   1.389211 S    
C230  H123  1.112820 S    
C156  C168  1.441731 A    
C122  O86   1.389723 S    
C191  C192  1.531909 S    
C107  C123  1.401460 A    
Zn8   O13   1.891679 S    
O13   C5    1.279373 A    
C49   N5    1.366452 A    
C9    C38   1.427932 S    
C324  H342  1.110045 S    
C251  H172  1.109532 S    
C249  C250  1.523082 S    
C316  H322  1.109497 S    
O14   C6    1.279433 A    
C303  H293  1.102750 S    
C237  C238  1.527247 S    
C216  C217  1.525583 S    
C302  C303  1.527521 S    
C276  H229  1.111621 S    
C58   C74   1.406522 A    
C201  C202  1.525301 S    
C55   O67   1.350247 S    
C16   C39   1.426291 S    
C104  C163  1.428651 A    
O43   C21   1.266603 A    
C53   O65   1.348963 S    
C296  H277  1.116500 S    
C18   C29   1.425142 S    
C207  H68   1.110876 S    
C48   N4    1.361937 A    
C223  H107  1.110815 S    
C295  H274  1.110440 S    
C211  H77   1.110569 S    
C188  H25   1.117116 S    
C265  H205  1.110971 S    
C323  H340  1.104803 S    
C218  H95   1.117097 S    
C229  H119  1.110847 S    
C121  O85   1.380710 S    
C135  C172  1.406188 A    
C50   O62   1.349543 S    
C187  H23   1.110819 S    
C43   N3    1.366334 A    
C185  H17   1.111366 S    
C228  C229  1.526207 S    
C206  C207  1.528816 S    
C126  C177  1.398156 A    
C100  C108  1.396846 A    
C123  C184  1.391654 A    
C320  H332  1.110986 S    
C252  C253  1.525852 S    
C149  C173  1.425234 A    
C186  H20   1.111236 S    
C275  H227  1.114067 S    
C189  H27   1.110850 S    
C306  H299  1.110152 S    
C196  H43   1.109562 S    
C219  H97   1.110836 S    
C292  H267  1.110491 S    
C212  C213  1.530561 S    
C327  H349  1.104463 S    
C26   C39   1.200625 T    
C101  C113  1.411549 A    
O84   C230  1.413942 S    
C156  C180  1.446941 A    
C227  C228  1.530293 S    
C254  C255  1.525814 S    
C57   C73   1.412374 A    
C321  H334  1.109559 S    
C255  C256  1.525701 S    
Zn12  O30   1.930700 S    
C86   C142  1.416461 A    
C233  H129  1.118063 S    
C249  H166  1.107739 S    
C281  H242  1.117298 S    
C116  C132  1.394902 A    
C146  C149  1.432376 A    
C64   C80   1.408596 A    
C192  H33   1.111729 S    
N5    C93   1.443786 S    
O106  C296  1.413213 S    
C207  C208  1.524686 S    
C297  H279  1.108083 S    
C104  C116  1.395426 A    
C315  H321  1.107983 S    
C69   H9    1.082221 S    
O69   C185  1.417958 S    
C27   C38   1.201586 T    
C102  C118  1.409809 A    
C219  C220  1.525863 S    
C326  H347  1.118457 S    
C213  C214  1.525361 S    
C15   C40   1.426304 S    
C48   O60   1.349408 S    
C79   O71   1.393210 S    
C204  H61   1.111678 S    
C328  H352  1.107418 S    
C271  H217  1.110747 S    
C160  C168  1.418798 A    
C229  H121  1.110688 S    
C288  H258  1.110538 S    
C236  H136  1.110808 S    
O37   C19   1.269589 A    
C86   O78   1.388353 S    
C308  H305  1.108894 S    
C203  H59   1.111184 S    
C217  H91   1.110547 S    
C145  C169  1.425494 A    
C42   O54   1.349454 S    
C247  H162  1.110507 S    
C202  H57   1.110393 S    
O105  C293  1.418767 S    
C200  C201  1.527870 S    
C197  H46   1.117144 S    
C190  H29   1.110480 S    
C83   O83   1.387906 S    
C204  C205  1.525611 S    
C299  C300  1.523621 S    
C315  C316  1.527208 S    
C149  C161  1.417844 A    
C200  H53   1.113336 S    
C124  O88   1.389040 S    
C294  C295  1.525673 S    
C10   C37   1.427991 S    
O103  C287  1.418609 S    
C125  O89   1.388174 S    
O8    C4    1.280080 A    
C222  C223  1.525598 S    
C157  C165  1.417630 A    
C202  H56   1.110912 S    
C147  C152  1.415493 A    
C292  H268  1.109263 S    
C279  H237  1.107594 S    
C253  H177  1.110702 S    
C302  H291  1.116812 S    
O48   C10   1.268627 A    
C287  C288  1.532169 S    
C55   N7    1.361729 A    
C317  C318  1.534938 S    
C66   C82   1.405316 A    
O16   C8    1.286657 A    
C266  C267  1.539516 S    
C242  H150  1.118715 S    
C189  C190  1.525392 S    
O51   C13   1.262791 A    
C304  H295  1.108518 S    
C197  C198  1.530096 S    
C62   H2    1.082292 S    
C155  C167  1.416154 A    
C29   C36   1.199920 T    
O52   C14   1.262662 A    
C110  C126  1.410761 A    
C320  H333  1.117467 S    
C245  H157  1.110486 S    
C78   O70   1.388243 S    
C83   C143  1.415717 A    
C253  H176  1.110464 S    
C231  C232  1.524481 S    
C314  H319  1.112120 S    
C152  C176  1.426464 A    
O45   C11   1.262088 A    
C156  C159  1.466218 A    
C78   C138  1.414674 A    
C32   C33   1.200378 T    
C232  H127  1.110028 S    
C45   N1    1.365675 A    
C240  C241  1.525609 S    
C307  H303  1.110924 S    
C305  H297  1.111952 S    
C70   C86   1.404971 A    
O109  C305  1.413793 S    
C228  H117  1.111733 S    
O107  C299  1.425597 S    
C199  H49   1.110626 S    
C249  H167  1.111340 S    
C258  H187  1.106502 S    
C248  C249  1.539071 S    
C252  H173  1.111635 S    
C41   N1    1.366583 A    
O42   C24   1.261064 A    
Zn16  O25   1.933435 S    
O6    C2    1.279983 A    
C275  C276  1.528002 S    
C224  H108  1.116423 S    
C24   C31   1.425936 S    
C280  H239  1.108645 S    
C73   C137  1.412533 A    
C28   C37   1.201583 T    
C272  H220  1.110016 S    
Zn4   O37   1.938508 S    
C42   C106  1.412797 A    
C46   O58   1.348571 S    
Zn5   O40   1.938282 S    
C310  H308  1.108682 S    
C321  C322  1.527351 S    
Zn6   O39   1.938279 S    
C300  H285  1.108923 S    
C154  C157  1.432610 A    
C273  H223  1.108144 S    
C284  H248  1.099586 S    
C64   C92   1.396043 A    
C151  C163  1.438986 A    
C58   C90   1.395994 A    
C259  H189  1.110702 S    
C75   O75   1.391191 S    
C56   N8    1.362180 A    
Zn16  O5    1.891679 S    
C195  H41   1.109854 S    
C112  C128  1.405939 A    
C196  H42   1.110815 S    
Zn16  O34   1.938038 S    
C219  H96   1.111707 S    
C49   C113  1.414103 A    
C25   C40   1.200623 T    
C88   O80   1.388874 S    
C244  H154  1.109679 S    
C133  O97   1.388170 S    
C268  H212  1.109761 S    
Zn5   O1    1.941428 S    
C221  H101  1.116156 S    
C243  H153  1.110648 S    
C30   C35   1.199919 T    
C271  H219  1.110575 S    
Zn4   O46   1.930700 S    
C114  C130  1.407356 A    
C236  C237  1.532216 S    
C225  H110  1.112063 S    
C191  H32   1.115247 S    
O92   C254  1.420028 S    
Zn12  O21   1.938508 S    
C57   H5    1.082464 S    
C205  H63   1.110617 S    
C273  H222  1.106560 S    
Zn13  O24   1.938282 S    
C69   C93   1.398601 A    
C325  H344  1.107694 S    
O35   C23   1.262799 A    
Zn14  O23   1.938279 S    
Zn4   O17   1.889216 S    
C184  O116  1.380597 S    
C158  C182  1.417474 A    
Zn15  O6    1.891678 S    
O99   C275  1.413561 S    
C215  C216  1.530903 S    
C145  C161  1.416853 A    
C319  H329  1.111166 S    
C276  H230  1.111271 S    
C195  C196  1.525270 S    
C201  H55   1.111675 S    
Zn12  O1    1.955169 S    
C241  H148  1.110378 S    
C286  H252  1.110975 S    
C46   C110  1.413838 A    
Zn13  O12   1.894967 S    
Zn14  O11   1.894968 S    
C289  H260  1.110342 S    
C72   C88   1.407678 A    
C298  H282  1.104827 S    
C135  O99   1.387863 S    
C270  C271  1.526176 S    
C243  C244  1.527354 S    
C223  H106  1.110331 S    
C193  H35   1.110658 S    
C277  H233  1.111035 S    
C262  H198  1.111034 S    
C63   H3    1.081067 S    
O71   C191  1.417454 S    
C74   C138  1.416695 A    
Zn7   O14   1.891678 S    
C57   C89   1.402941 A    
C256  H183  1.110395 S    
C4    C141  1.485067 S    
O12   C4    1.277759 A    
C130  O94   1.391116 S    
C66   C94   1.396784 A    
C237  H139  1.108486 S    
C235  H133  1.110959 S    
C60   C76   1.404225 A    
C187  H22   1.108579 S    
C239  H143  1.110672 S    
O76   C206  1.413782 S    
C224  H109  1.113736 S    
C200  H52   1.116445 S    
C155  C160  1.417137 A    
C300  C301  1.521513 S    
C257  H186  1.113297 S    
C241  H149  1.110961 S    
O83   C227  1.418042 S    
O7    C3    1.276666 A    
C278  H234  1.111237 S    
C213  H82   1.111657 S    
C54   O66   1.349635 S    
C185  C186  1.528835 S    
C182  O114  1.387572 S    
C180  O112  1.377548 S    
C290  H262  1.108807 S    
C264  H202  1.107192 S    
C231  H124  1.110348 S    
C278  C279  1.521420 S    
C47   O59   1.350006 S    
C56   C120  1.415755 A    
C209  C210  1.529815 S    
N7    C95   1.441291 S    
C313  H315  1.110790 S    
C222  H103  1.111704 S    
O21   C9    1.269508 A    
C233  C234  1.524968 S    
C51   O63   1.348724 S    
O95   C263  1.419732 S    
C261  H194  1.101520 S    
C52   O64   1.349552 S    
C134  C169  1.404653 A    
O23   C11   1.264603 A    
O39   C17   1.264593 A    
C7    C138  1.486001 S    
C323  C324  1.527104 S    
Zn7   O49   1.938040 S    
C148  C164  1.446505 A    
Zn9   O4    1.960233 S    
O15   C7    1.278955 A    
C206  H67   1.112781 S    
C199  H51   1.110947 S    
Zn10  O3    1.960229 S    
C312  H313  1.109265 S    
C258  C259  1.527331 S    
O25   C13   1.260874 A    
Zn6   O52   1.938256 S    
C150  C174  1.422000 A    
C283  H245  1.110596 S    
C59   C91   1.399594 A    
N3    C91   1.447287 S    
C265  H204  1.109774 S    
O18   C6    1.282285 A    
C61   C89   1.395108 A    
C309  H306  1.107321 S    
Zn9   O31   1.935566 S    
C294  H272  1.110021 S    
C267  H209  1.109400 S    
C318  H328  1.110372 S    
Zn10  O32   1.935566 S    
O80   C218  1.418051 S    
O10   C2    1.279161 A    
C274  H226  1.110738 S    
Zn11  O29   1.930698 S    
C234  H132  1.110476 S    
C311  H311  1.112220 S    
C176  O108  1.382471 S    
C267  H208  1.110444 S    
C284  C285  1.533620 S    
C105  C121  1.403098 A    
C98   C106  1.413304 A    
C244  H155  1.110129 S    
C289  H259  1.110494 S    
C312  C313  1.525814 S    
O46   C12   1.261987 A    
C235  H134  1.108363 S    
C287  H255  1.108491 S    
C286  H253  1.108397 S    
O41   C23   1.260871 A    
C244  H156  1.110999 S    
C250  H169  1.110129 S    
C210  H75   1.111751 S    
Zn1   O1    1.960233 S    
N6    C94   1.435215 S    
C66   H14   1.082897 S    
C285  H251  1.110684 S    
O78   C212  1.418769 S    
O28   C16   1.266643 A    
C77   O69   1.387839 S    
C246  C247  1.526714 S    
C205  H65   1.110958 S    
C309  C310  1.528375 S    
C111  C127  1.391513 A    
C267  C268  1.528734 S    
Zn12  O9    1.889216 S    
C231  H125  1.111720 S    
C279  C280  1.522693 S    
C239  C240  1.531430 S    
C159  C183  1.449898 A    
C194  H38   1.111246 S    
C117  C133  1.411956 A    
C297  H278  1.104354 S    
C255  H181  1.107744 S    
C121  C182  1.408104 A    
C146  C170  1.424789 A    
C269  H213  1.110993 S    
C255  H180  1.106104 S    
C158  C166  1.419484 A    
C319  H331  1.110344 S    
O110  C308  1.419366 S    
C254  H178  1.111168 S    
C315  H320  1.106733 S    
C238  H142  1.110940 S    
C63   C91   1.398506 A    
C220  H98   1.110856 S    
C296  H276  1.111740 S    
C150  C162  1.416843 A    
C224  C225  1.528124 S    
C277  H232  1.109339 S    
C44   O56   1.348898 S    
C293  C294  1.532067 S    
C298  H280  1.109401 S    
C120  C136  1.406478 A    
C154  C178  1.427052 A    
C58   H6    1.082805 S    
C31   C34   1.200377 T    
C103  C115  1.417734 A    
C316  H324  1.108883 S    
C211  H78   1.109671 S    
C188  H24   1.111287 S    
C61   C77   1.403770 A    
C8    C137  1.487805 S    
C314  C315  1.538793 S    
C229  H120  1.110126 S    
C71   C87   1.407825 A    
C235  H135  1.110752 S    
C214  H84   1.110785 S    
C65   C81   1.405469 A    
C228  H118  1.111066 S    
O32   C20   1.268560 A    
C214  H86   1.110299 S    
C172  O104  1.373047 S    
C97   C166  1.424149 A    
Zn8   O50   1.938038 S    
C307  H302  1.111122 S    
Zn11  O22   1.938508 S    
C85   O77   1.388780 S    
C186  H19   1.111796 S    
O79   C215  1.418265 S    
O26   C14   1.261060 A    
C283  H247  1.110574 S    
C178  O110  1.387225 S    
C203  H60   1.116399 S    
C125  C178  1.405213 A    
C147  C163  1.411959 A    
C292  H266  1.109108 S    
C64   H4    1.081771 S    
C212  H81   1.117845 S    
C327  C328  1.520185 S    
O19   C7    1.279468 A    
Zn8   O4    1.950249 S    
O91   C251  1.414879 S    
C45   O57   1.349249 S    
C261  C262  1.526710 S    
C65   C93   1.400116 A    
C46   N2    1.364484 A    
C254  H179  1.114024 S    
C99   C107  1.414904 A    
O77   C209  1.417820 S    
C211  H79   1.110926 S    
C100  C167  1.430007 A    
C233  H130  1.109967 S    
O49   C15   1.268573 A    
C132  C175  1.423282 A    
Zn16  O1    1.950249 S    
C291  H264  1.108194 S    
C153  C177  1.425475 A    
C67   C95   1.397915 A    
C82   O82   1.383501 S    
C295  H273  1.110918 S    
C71   C95   1.397437 A    
O89   C245  1.423720 S    
C286  H254  1.110275 S    
C42   N2    1.363155 A    
C226  H114  1.110755 S    
C17   C30   1.425049 S    
O20   C8    1.272501 A    
C108  C124  1.393823 A    
C277  H231  1.110883 S    
C198  H48   1.111146 S    
C269  H214  1.110137 S    
O115  C323  1.428780 S    
C311  H312  1.117743 S    
C299  H283  1.100339 S    
C328  H351  1.104709 S    
C55   C119  1.409722 A    
C274  H224  1.110823 S    
O24   C12   1.264762 A    
C227  H116  1.117280 S    
C53   C117  1.413755 A    
C152  C164  1.418066 A    
C60   C92   1.399030 A    
C308  H304  1.107336 S    
Zn7   O42   1.933434 S    
C217  H92   1.110515 S    
C220  H100  1.110924 S    
O88   C242  1.419379 S    
C210  C211  1.525141 S    
C43   C107  1.416544 A    
C216  H90   1.110913 S    
C192  C193  1.525642 S    
C220  H99   1.110308 S    
C119  C135  1.388364 A    
C322  H338  1.102678 S    
C101  C162  1.422890 A    
C204  H62   1.110669 S    
C183  O115  1.386365 S    
C77   C137  1.418586 A    
C294  H271  1.109528 S    
C103  C164  1.435844 A    
Zn1   O47   1.935566 S    
O113  C317  1.418917 S    
C308  C309  1.533522 S    
Zn2   O48   1.935566 S    
C225  H111  1.111938 S    
C290  C291  1.529243 S    
C13   C34   1.425835 S    
C268  H211  1.110039 S    
C102  C114  1.408917 A    
C230  C231  1.528667 S    
C47   N3    1.365523 A    
C208  H71   1.109999 S    
C265  H203  1.110865 S    
C222  H104  1.111754 S    
C74   O74   1.383927 S    
C50   N6    1.362659 A    
C324  C325  1.524868 S    
C251  H171  1.113461 S    
C301  H287  1.106320 S    
C217  H93   1.110489 S    
C87   C143  1.416505 A    
C170  O102  1.386035 S    
C266  H207  1.106635 S    
O96   C266  1.425481 S    
C247  H161  1.110921 S    
C85   C141  1.415261 A    
C305  C306  1.532763 S    
C97   C109  1.411370 A    
C234  H131  1.111648 S    
C146  C162  1.416137 A    
Zn1   O16   1.885565 S    
C76   O76   1.384126 S    
C262  H196  1.110870 S    
C153  C165  1.418768 A    
C271  H218  1.110415 S    
Zn2   O15   1.885565 S    
C81   O81   1.384428 S    
C70   H10   1.082033 S    
C296  C297  1.521831 S    
O29   C17   1.262092 A    
C103  C119  1.399245 A    
C84   O84   1.384153 S    
C293  H270  1.117889 S    
C101  C117  1.412418 A    
C218  H94   1.111311 S    
C207  H69   1.111722 S    
O87   C239  1.418550 S    
C188  C189  1.530168 S    
C19   C28   1.427895 S    
C202  H58   1.110374 S    
C54   C118  1.413982 A    
C232  H126  1.109952 S    
C70   C94   1.393673 A    
C218  C219  1.530826 S    
C240  H146  1.108392 S    
C319  H330  1.110981 S    
O90   C248  1.421264 S    
C305  H298  1.116158 S    
C73   O73   1.387635 S    
C208  H70   1.110205 S    
C41   O53   1.349382 S    
O70   C188  1.418337 S    
C199  H50   1.110239 S    
C197  H45   1.111327 S    
C248  H165  1.111298 S    
C43   O55   1.349150 S    
O104  C290  1.427104 S    
C186  C187  1.525019 S    
C53   N5    1.366128 A    
C11   C36   1.425062 S    
C320  C321  1.535000 S    
C245  C246  1.529446 S    
C51   C115  1.417866 A    
C68   C96   1.395823 A    
C316  H323  1.106945 S    
C314  H318  1.107807 S    
C99   C168  1.435117 A    
C238  H140  1.110955 S    
C174  O106  1.381664 S    
C189  H26   1.111743 S    
C280  H238  1.110878 S    
O47   C9    1.268592 A    
C198  C199  1.526117 S    
C179  O111  1.384360 S    
C302  H290  1.111134 S    
C327  H348  1.105599 S    
Zn9   O28   1.932337 S    
C209  H74   1.117071 S    
C147  C171  1.421729 A    
Zn10  O27   1.932339 S    
C148  C172  1.447858 A    
C253  H175  1.110956 S    
O33   C21   1.268557 A    
Zn2   O2    1.960229 S    
C303  C304  1.524773 S    
C194  C195  1.530009 S    
Zn9   O8    1.885565 S    
C75   C139  1.416730 A    
C281  H241  1.112340 S    
C306  H300  1.108588 S    
Zn4   O4    1.955169 S    
C87   O79   1.390436 S    
Zn10  O7    1.885565 S    
C272  C273  1.522595 S    
C124  C183  1.422939 A    
C282  H243  1.109102 S    
C136  O100  1.388076 S    
C295  H275  1.111188 S    
C61   H1    1.082725 S    
C275  H228  1.108642 S    
C323  H339  1.103188 S    
C44   N4    1.363259 A    
C151  C175  1.452532 A    
C317  H326  1.115672 S    
C242  H151  1.109703 S    
C109  C125  1.411983 A    
C226  H112  1.111282 S    
C185  H18   1.117407 S    
C260  H192  1.108935 S    
C84   C144  1.415913 A    
C221  H102  1.113237 S    
C247  H163  1.109855 S    
C62   C90   1.395579 A    
C113  C129  1.411704 A    
O98   C272  1.420364 S    
C236  H137  1.109093 S    
C14   C33   1.425927 S    
C239  H144  1.115891 S    
C310  H310  1.110951 S    
C203  C204  1.531695 S    
C252  H174  1.110057 S    
C72   H12   1.081916 S    
C326  C327  1.524122 S    
C205  H64   1.110328 S    
O36   C24   1.262668 A    
C317  H325  1.104228 S    
O50   C16   1.268491 A    
C266  H206  1.110163 S    
C63   C79   1.409129 A    
C321  H335  1.109744 S    
C285  H250  1.109763 S    
C175  O107  1.380474 S    
O114  C320  1.417545 S    
C270  H216  1.111145 S    
O108  C302  1.416165 S    
C190  H30   1.110188 S    
C322  H336  1.108928 S    
C198  H47   1.111731 S    
C67   C83   1.403663 A    
C192  H34   1.110566 S    
C81   C141  1.414235 A    
C298  H281  1.106260 S    
O100  C278  1.420170 S    
C248  H164  1.110592 S    
C5    C140  1.484791 S    
C190  H28   1.110771 S    
C181  O113  1.383933 S    
O30   C18   1.261994 A    
C221  C222  1.528502 S    
