data_mof_unit_32751.cif
_audit_creation_date              2012-12-10T18:08:25-0500
_audit_creation_method            fapswitch 2.2
_symmetry_space_group_name_H-M    P1
_symmetry_Int_Tables_number       1
_space_group_crystal_system       triclinic
_cell_length_a                    12.668894
_cell_length_b                    13.033743
_cell_length_c                    14.159773
_cell_angle_alpha                 90.592785
_cell_angle_beta                  102.34051
_cell_angle_gamma                 82.751896
_cell_volume                      2265.49811594

loop_
_atom_site_label
_atom_site_type_symbol
_atom_type_description
_atom_site_fract_x
_atom_site_fract_y
_atom_site_fract_z
_atom_type_partial_charge
C1    C     C_R   0.438621 0.691349 0.486066 0.921939
C2    C     C_1   0.496228 0.499209 0.227298 -0.187732
C3    C     C_R   0.669158 0.071379 0.667703 0.413103
C4    C     C_R   0.595746 0.200347 0.540606 -0.200805
C5    C     C_R   0.322656 0.829942 0.375891 0.137184
C6    C     C_R   0.304529 0.934594 0.347896 -0.122909
C7    C     C_R   0.366681 0.005009 0.399630 -0.200289
C8    C     C_R   0.444194 0.974691 0.485443 0.089069
C9    C     C_R   0.445371 0.876263 0.525057 -0.101095
C10   C     C_R   0.520175 0.038811 0.533288 -0.000698
C11   C     C_R   0.586112 0.009969 0.626281 -0.200430
C12   C     C_R   0.501597 0.499669 0.670658 0.962216
C13   C     C_R   0.561858 0.924509 0.675195 0.430931
C14   C     C_R   0.491882 0.857722 0.624255 0.331933
C15   C     C_R   0.532172 0.131011 0.489988 -0.250925
C16   C     C_R   0.669924 0.169214 0.627173 0.303630
C17   C     C_R   0.396907 0.800636 0.464908 -0.120551
C18   C     C_R   0.094943 0.335369 0.373936 0.081461
C19   C     C_R   0.803034 0.629534 0.611699 0.528357
C20   C     C_R   0.905567 0.660989 0.630958 -0.242407
C21   C     C_R   0.983906 0.613893 0.585148 -0.256398
C22   C     C_R   0.960776 0.532708 0.520287 0.034484
C23   C     C_R   0.560736 0.308695 0.513686 0.893695
C24   C     C_R   0.853734 0.504767 0.500457 0.173151
C25   C     C_R   0.040613 0.477297 0.476597 -0.018037
C26   C     C_R   0.013550 0.393332 0.414382 0.147196
C27   C     C_R   0.906345 0.369610 0.394570 -0.259935
C28   C     C_R   0.828223 0.424528 0.436762 -0.144209
C29   C     C_R   0.147829 0.501264 0.494205 -0.061341
C30   C     C_R   0.199496 0.364162 0.395818 -0.019901
C31   C     C_R   0.498660 0.499621 0.329380 0.835671
C32   C     C_1   0.504161 0.499978 0.772771 -0.081811
C33   C     C_1   0.503772 0.500037 0.858031 0.059554
C34   C     C_1   0.501489 0.499867 0.957623 0.049691
C35   C     C_1   0.499060 0.499601 0.042472 0.037042
C36   C     C_1   0.496715 0.499289 0.142054 0.008359
H1    H     H_    0.881138 0.307852 0.346899 0.167651
H2    H     H_    0.176145 0.563440 0.539017 0.148297
H3    H     H_    0.061897 0.641810 0.604314 0.174497
H4    H     H_    0.925276 0.721037 0.682870 0.212245
H5    H     H_    0.748570 0.401175 0.419276 0.203143
H6    H     H_    0.486413 0.155573 0.418888 0.154102
H7    H     H_    0.349668 0.083386 0.371780 0.135694
H8    H     H_    0.246272 0.962787 0.283259 0.160015
H9    H     H_    0.264296 0.321856 0.366822 0.135588
N1    N     N_R   0.222200 0.444680 0.454480 -0.114886
N2    N     N_R   0.776970 0.554780 0.545050 -0.157644
O1    O     O_R   0.366740 0.627160 0.478260 -0.620182
O2    O     O_R   0.544830 0.662520 0.507340 -0.559864
O3    O     O_R   0.410930 0.482320 0.611740 -0.602117
O4    O     O_R   0.589030 0.517680 0.640820 -0.514340
O5    O     O_R   0.455170 0.337480 0.492660 -0.613665
O6    O     O_R   0.633260 0.372840 0.521740 -0.587173
O7    O     O_R   0.410970 0.482320 0.359180 -0.607010
O8    O     O_R   0.589070 0.517680 0.388260 -0.621311
Zn1   Zn    Zn3+2 0.381090 0.476390 0.480580 0.943331
Zn2   Zn    Zn3+2 0.618910 0.523610 0.519420 1.024851
Cl1   Cl    Cl    0.759100 0.253995 0.688687 -0.513895
C37   C     C_3   0.075388 0.242528 0.310070 -0.443782
C38   C     C_3   0.072387 0.146521 0.369942 -0.804741
H10   H     H_    0.150669 0.128257 0.423247 0.266177
H11   H     H_    0.004968 0.158293 0.409229 0.270753
H12   H     H_    0.060110 0.079519 0.321534 0.249529
H13   H     H_    0.999341 0.259117 0.253856 0.221483
H14   H     H_    0.141869 0.224703 0.270000 0.204727
Cl2   Cl    Cl    0.712437 0.686433 0.679938 -0.506288
Cl3   Cl    Cl    0.602664 0.907307 0.802336 -0.403153
Cl4   Cl    Cl    0.779022 0.026008 0.763633 -0.434410
C39   C     C_3   0.266360 0.749163 0.311713 -0.390428
C40   C     C_3   0.194541 0.788417 0.214632 -0.840295
H15   H     H_    0.124876 0.844467 0.225973 0.261181
H16   H     H_    0.243004 0.824701 0.170524 0.269154
H17   H     H_    0.161150 0.722197 0.173946 0.266208
H18   H     H_    0.329622 0.688548 0.295563 0.207725
H19   H     H_    0.214136 0.712658 0.351923 0.234047
Cl5   Cl    Cl    0.446206 0.762933 0.689475 -0.544404

loop_
_geom_bond_atom_site_label_1
_geom_bond_atom_site_label_2
_ccdc_geom_bond_type
C30   H9    S    
C35   C36   S    
C18   C26   A    
C7    C8    A    
C26   C27   A    
C38   H12   S    
C10   C15   A    
C5    C6    A    
C20   H4    S    
C19   N2    A    
C5    C17   A    
C28   H5    S    
O2    Zn2   S    
C19   Cl2   S    
C38   H11   S    
C34   C35   T    
C5    C39   S    
C3    Cl4   S    
C8    C9    A    
C22   C25   A    
C29   H2    S    
C40   H15   S    
C18   C30   A    
C7    H7    S    
C37   C38   S    
C6    H8    S    
C21   C22   A    
C12   C32   S    
C23   O6    A    
C25   C29   A    
O7    Zn1   S    
C4    C23   S    
O6    Zn2   S    
C25   C26   A    
O3    Zn1   S    
C38   H10   S    
C14   Cl5   S    
C4    C16   A    
C9    C14   A    
N2    Zn2   S    
C21   H3    S    
C40   H17   S    
C33   C34   S    
C37   H13   S    
C39   H18   S    
C16   Cl1   S    
O4    Zn2   S    
C9    C17   A    
O8    Zn2   S    
C22   C24   A    
C12   O4    A    
C13   Cl3   S    
C2    C36   T    
O1    Zn1   S    
C24   N2    A    
C30   N1    A    
C24   C28   A    
C15   H6    S    
C12   O3    A    
C1    O1    A    
C6    C7    A    
C19   C20   A    
C1    C17   S    
C29   N1    A    
C32   C33   T    
C4    C15   A    
C37   H14   S    
C11   C13   A    
C23   O5    A    
C27   H1    S    
C39   H19   S    
C31   O7    A    
C39   C40   S    
C3    C11   A    
C10   C11   A    
C18   C37   S    
C20   C21   A    
C8    C10   A    
N1    Zn1   S    
C27   C28   A    
C2    C31   S    
C40   H16   S    
C31   O8    A    
C13   C14   A    
C1    O2    A    
C3    C16   A    
O5    Zn1   S    
