data_mof_unit_23426.cif
_audit_creation_date              2012-10-26T17:12:47-0400
_audit_creation_method            fapswitch 2.2
_symmetry_space_group_name_H-M    P1
_symmetry_Int_Tables_number       1
_space_group_crystal_system       triclinic
_cell_length_a                    27.952954
_cell_length_b                    18.745379
_cell_length_c                    16.675649
_cell_angle_alpha                 90.005103
_cell_angle_beta                  62.9978
_cell_angle_gamma                 89.930516
_cell_volume                      7785.32301559

loop_
_atom_site_label
_atom_site_type_symbol
_atom_type_description
_atom_site_fract_x
_atom_site_fract_y
_atom_site_fract_z
_atom_type_partial_charge
C1    C     C_R   0.291630 0.721752 0.331884 0.810563
C2    C     C_R   0.595342 0.003346 0.518149 -0.045535
C3    C     C_R   0.714406 0.669685 0.887235 0.072007
C4    C     C_R   0.108257 0.812846 0.052002 -0.281879
C5    C     C_R   0.844899 0.098410 0.987326 -0.278647
C6    C     C_R   0.895675 0.810272 0.946303 -0.281166
C7    C     C_R   0.154796 0.099530 0.013411 -0.278320
C8    C     C_R   0.604040 0.309879 0.053745 -0.280673
C9    C     C_R   0.375981 0.671886 0.959654 -0.269716
C10   C     C_R   0.395918 0.309877 0.946242 -0.277794
C11   C     C_R   0.654700 0.599721 0.013531 -0.279309
C12   C     C_R   0.134155 0.790646 0.102923 0.393995
C13   C     C_R   0.904341 0.503268 0.482747 -0.045641
C14   C     C_R   0.817450 0.116251 0.937963 0.394670
C15   C     C_R   0.871184 0.786676 0.894076 0.401312
C16   C     C_R   0.182285 0.117512 0.062626 0.394211
C17   C     C_R   0.628471 0.286222 0.106059 0.401713
C18   C     C_R   0.345199 0.684222 0.913827 0.391358
C19   C     C_R   0.371546 0.286095 0.893884 0.397989
C20   C     C_R   0.682158 0.617778 0.062763 0.393124
C21   C     C_R   0.237622 0.688188 0.793636 -0.191281
C22   C     C_R   0.712847 0.207964 0.252746 -0.217475
C23   C     C_R   0.775985 0.674018 0.200063 -0.200337
C24   C     C_R   0.096179 0.503351 0.516137 -0.011306
C25   C     C_R   0.287055 0.207813 0.747365 -0.215488
C26   C     C_R   0.724132 0.173719 0.799774 -0.200960
C27   C     C_R   0.219540 0.706509 0.245189 -0.208451
C28   C     C_R   0.276024 0.173908 0.200074 -0.204731
C29   C     C_R   0.786987 0.707940 0.747449 -0.216889
C30   C     C_R   0.267303 0.671607 0.838789 -0.101237
C31   C     C_R   0.680608 0.218625 0.210302 -0.120989
C32   C     C_R   0.754518 0.643389 0.147749 -0.108555
C33   C     C_R   0.319299 0.218526 0.789770 -0.124212
C34   C     C_R   0.745481 0.142860 0.852185 -0.109333
C35   C     C_R   0.606350 0.878788 0.471147 0.386569
C36   C     C_R   0.188418 0.719517 0.201425 -0.119446
C37   C     C_R   0.254592 0.143227 0.147733 -0.107045
C38   C     C_R   0.819180 0.718779 0.789911 -0.120693
C39   C     C_R   0.928379 0.899792 0.064486 0.796274
C40   C     C_R   0.077714 0.090534 0.930661 0.836970
C41   C     C_R   0.071543 0.899471 0.935624 0.796953
C42   C     C_R   0.922252 0.090442 0.069384 0.836558
C43   C     C_R   0.428400 0.399760 0.064472 0.811260
C44   C     C_R   0.577692 0.590572 0.930678 0.822751
C45   C     C_R   0.571580 0.399726 0.935549 0.796199
C46   C     C_R   0.419748 0.128971 0.441904 0.379012
C47   C     C_R   0.427338 0.599048 0.065242 0.827059
C48   C     C_R   0.041091 0.632094 0.527106 0.061070
C49   C     C_R   0.947473 0.375608 0.510876 0.080287
C50   C     C_R   0.958859 0.632208 0.472538 -0.020134
C51   C     C_R   0.054218 0.375806 0.485268 0.079789
C52   C     C_R   0.540771 0.132318 0.528069 -0.019607
C53   C     C_R   0.445300 0.875836 0.516583 0.081138
C54   C     C_R   0.458529 0.131972 0.473533 0.061149
C55   C     C_R   0.552062 0.875583 0.490915 0.080500
C56   C     C_R   0.017989 0.696722 0.518975 -0.127168
C57   C     C_R   0.391377 0.879252 0.534124 0.382148
C58   C     C_R   0.973784 0.310829 0.507649 -0.172133
C59   C     C_R   0.979429 0.696973 0.486899 -0.243097
C60   C     C_R   0.028290 0.310941 0.487797 -0.170504
C61   C     C_R   0.520195 0.197021 0.513376 -0.242357
C62   C     C_R   0.471279 0.810967 0.514276 -0.165912
C63   C     C_R   0.481630 0.196630 0.481317 -0.130120
C64   C     C_R   0.525792 0.810810 0.494385 -0.175730
C65   C     C_R   0.977981 0.568180 0.490161 0.026208
C66   C     C_R   0.026011 0.439664 0.497466 -0.010313
C67   C     C_R   0.022850 0.568211 0.507454 -0.010064
C68   C     C_R   0.580236 0.129324 0.559057 0.390498
C69   C     C_R   0.975428 0.439579 0.498912 -0.008793
C70   C     C_R   0.476647 0.068181 0.493764 -0.009406
C71   C     C_R   0.524034 0.939579 0.502931 -0.008247
C72   C     C_R   0.521522 0.068213 0.511037 0.026528
C73   C     C_R   0.473440 0.939671 0.504406 -0.010674
C74   C     C_R   0.450984 0.003831 0.494725 -0.036995
C75   C     C_R   0.547009 0.003793 0.510813 -0.030864
C76   C     C_R   0.952507 0.503758 0.490603 -0.030863
C77   C     C_R   0.048516 0.503862 0.506738 -0.037169
C78   C     C_R   0.373241 0.939350 0.501866 -0.137115
C79   C     C_R   0.108224 0.379231 0.467107 0.381766
C80   C     C_R   0.613354 0.067177 0.540768 -0.013135
C81   C     C_R   0.625418 0.939192 0.501233 -0.139198
C82   C     C_R   0.386427 0.066777 0.459639 -0.092287
C83   C     C_R   0.874307 0.439163 0.499551 -0.138643
C84   C     C_R   0.113402 0.566956 0.540777 -0.093064
C85   C     C_R   0.126461 0.439385 0.498997 -0.136334
C86   C     C_R   0.886489 0.567011 0.459585 -0.013396
C87   C     C_R   0.328965 0.937022 0.480620 -0.165923
C88   C     C_R   0.663382 0.066195 0.544576 -0.192523
C89   C     C_R   0.670502 0.936994 0.520468 -0.166950
C90   C     C_R   0.919591 0.629060 0.441160 0.390998
C91   C     C_R   0.336496 0.066015 0.455589 -0.233803
C92   C     C_R   0.829386 0.436972 0.479837 -0.166704
C93   C     C_R   0.163466 0.566113 0.544492 -0.234193
C94   C     C_R   0.170912 0.437050 0.519735 -0.166646
C95   C     C_R   0.836588 0.566107 0.455461 -0.192490
C96   C     C_R   0.313215 0.000026 0.452636 0.356809
C97   C     C_R   0.686671 0.000105 0.547466 0.328438
C98   C     C_R   0.813322 0.500070 0.452558 0.328809
C99   C     C_R   0.186779 0.500068 0.547414 0.356551
C100  C     C_R   0.893270 0.378816 0.530010 0.386671
C101  C     C_R   0.703229 0.267734 0.672030 0.781771
C102  C     C_R   0.080067 0.629250 0.558357 0.379827
C103  C     C_R   0.205381 0.739249 0.967061 -0.069023
C104  C     C_R   0.752186 0.180227 0.068990 -0.065727
C105  C     C_R   0.805329 0.723443 0.025396 -0.068105
C106  C     C_R   0.247700 0.180620 0.931179 -0.065515
C107  C     C_R   0.694512 0.222908 0.974713 -0.067905
C108  C     C_R   0.266688 0.705802 0.057507 -0.065385
C109  C     C_R   0.305485 0.223167 0.025294 -0.068550
C110  C     C_R   0.747564 0.680858 0.931291 -0.065630
C111  C     C_R   0.255072 0.703235 0.921935 0.081579
C112  C     C_R   0.709447 0.720440 0.667695 0.803260
C113  C     C_R   0.701795 0.214599 0.115900 0.077660
C114  C     C_R   0.762528 0.674266 0.065408 0.074658
C115  C     C_R   0.298132 0.214731 0.884170 0.078521
C116  C     C_R   0.737326 0.173553 0.934740 0.074626
C117  C     C_R   0.212153 0.727079 0.107283 0.079953
C118  C     C_R   0.262650 0.174031 0.065325 0.074874
C119  C     C_R   0.797955 0.715042 0.884314 0.077607
C120  C     C_R   0.289143 0.696394 0.963465 0.003530
C121  C     C_R   0.674359 0.241031 0.067272 0.006892
C122  C     C_R   0.730708 0.656935 0.020989 0.009588
C123  C     C_R   0.296754 0.267777 0.327981 0.761896
C124  C     C_R   0.325617 0.241133 0.932731 0.007399
C125  C     C_R   0.769032 0.155975 0.979367 0.009185
C126  C     C_R   0.183384 0.752398 0.060691 0.008037
C127  C     C_R   0.230841 0.156681 0.020876 0.009297
C128  C     C_R   0.825382 0.741526 0.932889 0.007051
C129  C     C_R   0.132266 0.805989 0.957682 0.023251
C130  C     C_R   0.834389 0.131971 0.069356 0.020238
C131  C     C_R   0.871224 0.802548 0.040399 0.018486
C132  C     C_R   0.165436 0.132512 0.930998 0.021104
C133  C     C_R   0.628630 0.302224 0.959643 0.018167
C134  C     C_R   0.790518 0.220363 0.332338 0.804535
C135  C     C_R   0.352560 0.670724 0.054089 0.023362
C136  C     C_R   0.371356 0.302317 0.040351 0.019312
C137  C     C_R   0.665354 0.632649 0.931073 0.021178
C138  C     C_R   0.112000 0.840561 0.902607 -0.098217
C139  C     C_R   0.869794 0.128009 0.110656 -0.098963
C140  C     C_R   0.888592 0.840538 0.097137 -0.095801
C141  C     C_R   0.130117 0.128246 0.889504 -0.098628
C142  C     C_R   0.611328 0.340354 0.902906 -0.095921
C143  C     C_R   0.381452 0.649719 0.102312 -0.108283
C144  C     C_R   0.388655 0.340425 0.097109 -0.101189
C145  C     C_R   0.203549 0.768159 0.671770 0.767512
C146  C     C_R   0.630064 0.628324 0.889539 -0.093637
C147  C     C_R   0.134966 0.824066 0.810820 -0.266436
C148  C     C_R   0.854594 0.159896 0.194147 -0.276133
C149  C     C_R   0.863941 0.826319 0.189570 -0.263516
C150  C     C_R   0.145381 0.159938 0.805877 -0.275336
C151  C     C_R   0.636008 0.326183 0.810480 -0.263764
C152  C     C_R   0.361120 0.668871 0.192483 -0.267742
C153  C     C_R   0.363972 0.326243 0.189551 -0.263486
C154  C     C_R   0.645336 0.659989 0.805892 -0.279006
C155  C     C_R   0.177626 0.775777 0.771231 -0.120051
C156  C     C_R   0.209464 0.220413 0.667683 0.808117
C157  C     C_R   0.804218 0.190996 0.241811 -0.112879
C158  C     C_R   0.823779 0.774765 0.227911 -0.111777
C159  C     C_R   0.195722 0.191057 0.758263 -0.113873
C160  C     C_R   0.676203 0.274586 0.772092 -0.111775
C161  C     C_R   0.309534 0.697209 0.239076 -0.114507
C162  C     C_R   0.323813 0.274683 0.227897 -0.119050
C163  C     C_R   0.695676 0.691117 0.758289 -0.112278
C164  C     C_R   0.198299 0.742399 0.825736 0.071843
C165  C     C_R   0.767740 0.191654 0.203101 0.077780
C166  C     C_R   0.808173 0.735146 0.170718 0.076020
C167  C     C_R   0.796742 0.767809 0.327985 0.781578
C168  C     C_R   0.232159 0.191721 0.797037 0.077854
C169  C     C_R   0.691842 0.234862 0.829236 0.076427
C170  C     C_R   0.275662 0.699979 0.196623 0.073077
C171  C     C_R   0.308235 0.235013 0.170697 0.077642
C172  C     C_R   0.732089 0.691830 0.797094 0.077493
C173  C     C_R   0.196181 0.632106 0.529389 0.773142
C174  C     C_R   0.800933 0.369242 0.481502 0.852296
C175  C     C_R   0.803901 0.632157 0.470333 0.817964
C176  C     C_R   0.199126 0.369226 0.518428 0.847854
C177  C     C_R   0.696098 0.132161 0.529659 0.817900
C178  C     C_R   0.403482 0.003268 0.484835 -0.010679
C179  C     C_R   0.300825 0.869240 0.481715 0.846823
C180  C     C_R   0.303817 0.132098 0.470609 0.771104
C181  C     C_R   0.699023 0.869227 0.518618 0.851293
C182  C     C_R   0.178504 0.762716 0.916902 0.070070
C183  C     C_R   0.785363 0.169195 0.113057 0.073096
C184  C     C_R   0.828110 0.754188 0.078883 0.072151
C185  C     C_R   0.214504 0.169524 0.887154 0.073135
C186  C     C_R   0.671799 0.253800 0.921152 0.072202
C187  C     C_R   0.298443 0.692526 0.102541 0.071337
C188  C     C_R   0.328230 0.253969 0.078822 0.073194
Cu1   Cu    Cu3+1 0.209920 0.785290 0.495070 1.020773
Cu2   Cu    Cu3+1 0.504760 0.500000 0.075850 0.936926
Cu3   Cu    Cu3+1 0.995240 0.000000 0.924150 0.938450
Cu4   Cu    Cu3+1 0.004760 0.000000 0.075850 0.936503
Cu5   Cu    Cu3+1 0.790080 0.214710 0.504930 1.006590
Cu6   Cu    Cu3+1 0.790080 0.785290 0.504930 1.011346
Cu7   Cu    Cu3+1 0.209920 0.214710 0.495070 1.007237
Cu8   Cu    Cu3+1 0.709920 0.285290 0.495070 1.011222
Cu9   Cu    Cu3+1 0.290080 0.714710 0.504930 0.998944
Cu10  Cu    Cu3+1 0.290080 0.285290 0.504930 1.014328
Cu11  Cu    Cu3+1 0.709920 0.714710 0.495070 1.004049
Cu12  Cu    Cu3+1 0.495240 0.500000 0.924150 0.943594
H1    H     H_    0.120608 0.851368 0.768646 0.196376
H2    H     H_    0.638518 0.226438 0.254065 0.209896
H3    H     H_    0.733443 0.593865 0.172235 0.208448
H4    H     H_    0.361383 0.226169 0.745970 0.206781
H5    H     H_    0.766535 0.093283 0.827550 0.209317
H6    H     H_    0.145525 0.720099 0.242703 0.201132
H7    H     H_    0.233512 0.093716 0.172262 0.208668
H8    H     H_    0.861275 0.726492 0.746195 0.209624
H9    H     H_    0.546417 0.760390 0.486637 0.182239
H10   H     H_    0.468335 0.246956 0.466390 0.183630
H11   H     H_    0.450567 0.760664 0.522270 0.183465
H12   H     H_    0.882076 0.158924 0.223630 0.188583
H13   H     H_    0.535937 0.247767 0.521522 0.157369
H14   H     H_    0.049074 0.260624 0.479822 0.183680
H15   H     H_    0.963738 0.747688 0.478352 0.157224
H16   H     H_    0.953236 0.260425 0.515380 0.183491
H17   H     H_    0.031333 0.747117 0.533513 0.184187
H18   H     H_    0.283737 0.032329 0.373933 0.318938
H19   H     H_    0.716603 0.032186 0.625537 0.322538
H20   H     H_    0.783531 0.532205 0.374262 0.322673
H21   H     H_    0.216445 0.532317 0.625821 0.319822
H22   H     H_    0.676005 0.853516 0.375676 0.321433
H23   H     H_    0.875387 0.857311 0.232954 0.191617
H24   H     H_    0.405964 0.163483 0.344858 0.318429
H25   H     H_    0.320924 0.854081 0.626973 0.322765
H26   H     H_    0.549412 0.211003 0.639355 0.319603
H27   H     H_    0.178555 0.354198 0.373520 0.321626
H28   H     H_    0.950556 0.710364 0.360464 0.318790
H29   H     H_    0.823479 0.353469 0.624779 0.321158
H30   H     H_    0.094034 0.664177 0.655006 0.318419
H31   H     H_    0.068417 0.834244 0.088936 0.172167
H32   H     H_    0.873674 0.056423 0.958526 0.183926
H33   H     H_    0.934543 0.834328 0.910223 0.176160
H34   H     H_    0.117970 0.158818 0.776264 0.188421
H35   H     H_    0.125904 0.057891 0.042744 0.184605
H36   H     H_    0.565121 0.333985 0.089726 0.175864
H37   H     H_    0.418967 0.667169 0.920256 0.164099
H38   H     H_    0.434790 0.333967 0.910295 0.172625
H39   H     H_    0.625839 0.558053 0.042889 0.185056
H40   H     H_    0.080173 0.839407 0.209789 0.321731
H41   H     H_    0.875023 0.074133 0.828900 0.327535
H42   H     H_    0.920740 0.844664 0.792210 0.326603
H43   H     H_    0.124506 0.076523 0.172177 0.327648
H44   H     H_    0.578702 0.344202 0.207964 0.326595
H45   H     H_    0.624572 0.357267 0.767125 0.191604
H46   H     H_    0.409011 0.680475 0.797053 0.323205
H47   H     H_    0.421534 0.343447 0.791703 0.323506
H48   H     H_    0.624348 0.576903 0.172361 0.327049
H49   H     H_    0.246041 0.657007 0.734421 0.170430
H50   H     H_    0.692919 0.209459 0.325285 0.175866
H51   H     H_    0.768495 0.647265 0.261993 0.164950
H52   H     H_    0.306983 0.209072 0.674820 0.178112
H53   H     H_    0.731763 0.147092 0.737681 0.165030
H54   H     H_    0.198588 0.699013 0.317239 0.169401
H55   H     H_    0.268490 0.147208 0.262056 0.162961
H56   H     H_    0.385007 0.659272 0.227547 0.191151
H57   H     H_    0.806950 0.709138 0.674902 0.175727
H58   H     H_    0.375384 0.357280 0.232943 0.194684
H59   H     H_    0.617937 0.658833 0.776255 0.186404
H60   H     H_    0.298429 0.631582 0.809718 0.186531
O1    O     O_R   0.255040 0.869590 0.478480 -0.510277
O2    O     O_R   0.817950 0.203450 0.375560 -0.579272
O3    O     O_R   0.817950 0.796550 0.375560 -0.571725
O4    O     O_R   0.182050 0.203450 0.624440 -0.578538
O5    O     O_R   0.682050 0.296550 0.624440 -0.572000
O6    O     O_R   0.317950 0.703450 0.375560 -0.583027
O7    O     O_R   0.317950 0.296550 0.375560 -0.573824
O8    O     O_R   0.682050 0.703450 0.624440 -0.580375
O9    O     O_R   0.250530 0.763330 0.367210 -0.583741
O10   O     O_R   0.749470 0.236670 0.632790 -0.582777
O11   O     O_R   0.749470 0.763330 0.632790 -0.590892
O12   O     O_R   0.744960 0.130410 0.521520 -0.575965
O13   O     O_R   0.250530 0.236670 0.367210 -0.577556
O14   O     O_R   0.750530 0.263330 0.367210 -0.591231
O15   O     O_R   0.249470 0.736670 0.632790 -0.585032
O16   O     O_R   0.249470 0.263330 0.632790 -0.588921
O17   O     O_R   0.750530 0.736670 0.367210 -0.582560
O18   O     O_R   0.177260 0.690030 0.513710 -0.560144
O19   O     O_R   0.822740 0.309970 0.486290 -0.559087
O20   O     O_R   0.822740 0.690030 0.486290 -0.549821
O21   O     O_R   0.177260 0.309970 0.513710 -0.558402
O22   O     O_R   0.677260 0.190030 0.513710 -0.549978
O23   O     O_R   0.744960 0.869590 0.521520 -0.511563
O24   O     O_R   0.322740 0.809970 0.486290 -0.560070
O25   O     O_R   0.322740 0.190030 0.486290 -0.562515
O26   O     O_R   0.677260 0.809970 0.513710 -0.559679
O27   O     O_R   0.051640 0.926880 0.885090 -0.588353
O28   O     O_R   0.948360 0.073120 0.114910 -0.576648
O29   O     O_R   0.948360 0.926880 0.114910 -0.590018
O30   O     O_R   0.051640 0.073120 0.885090 -0.575588
O31   O     O_R   0.551640 0.426880 0.885090 -0.590320
O32   O     O_R   0.448360 0.573120 0.114910 -0.576186
O33   O     O_R   0.448360 0.426880 0.114910 -0.585898
O34   O     O_R   0.255040 0.130410 0.478480 -0.563122
O35   O     O_R   0.551640 0.573120 0.885090 -0.585918
O36   O     O_R   0.940620 0.926560 0.986760 -0.608125
O37   O     O_R   0.059380 0.073440 0.013240 -0.597675
O38   O     O_R   0.059380 0.926560 0.013240 -0.605747
O39   O     O_R   0.940620 0.073440 0.986760 -0.597322
O40   O     O_R   0.440620 0.426560 0.986760 -0.592736
O41   O     O_R   0.559380 0.573440 0.013240 -0.601530
O42   O     O_R   0.559380 0.426560 0.013240 -0.607205
O43   O     O_R   0.440620 0.573440 0.986760 -0.587883
O44   O     O_3   0.274974 0.996068 0.421888 -0.689843
O45   O     O_R   0.755040 0.369590 0.478480 -0.512114
O46   O     O_3   0.725327 0.996147 0.577304 -0.688464
O47   O     O_3   0.774798 0.496149 0.422434 -0.688652
O48   O     O_3   0.225182 0.496075 0.577811 -0.691115
O49   O     O_3   0.640269 0.830664 0.408333 -0.698117
O50   O     O_3   0.420606 0.182755 0.384599 -0.714910
O51   O     O_3   0.356786 0.831185 0.595897 -0.690588
O52   O     O_3   0.581985 0.180735 0.617280 -0.715540
O53   O     O_3   0.142761 0.331285 0.404821 -0.696758
O54   O     O_3   0.918000 0.680188 0.382497 -0.715816
O55   O     O_3   0.859280 0.330609 0.592362 -0.698347
O56   O     O_R   0.244960 0.630410 0.521520 -0.563940
O57   O     O_3   0.079371 0.683316 0.615209 -0.715161
O58   O     O_3   0.113557 0.811325 0.191998 -0.755419
O59   O     O_3   0.839729 0.097715 0.847975 -0.750133
O60   O     O_3   0.890313 0.811429 0.806892 -0.755037
O61   O     O_3   0.159906 0.099738 0.152843 -0.749180
O62   O     O_3   0.609175 0.310944 0.193318 -0.755379
O63   O     O_3   0.370098 0.690561 0.821078 -0.732987
O64   O     O_3   0.390952 0.310466 0.806496 -0.761355
O65   O     O_3   0.659754 0.600102 0.153013 -0.749885
O66   O     O_R   0.244960 0.369590 0.521520 -0.510636
O67   O     O_R   0.755040 0.630410 0.478480 -0.575759
O68   O     O_R   0.182050 0.796550 0.624440 -0.574363

loop_
_geom_bond_atom_site_label_1
_geom_bond_atom_site_label_2
_ccdc_geom_bond_type
C50   C65   A    
C108  C120  A    
C129  C182  A    
C88   C177  S    
C7    C132  A    
C97   O46   S    
C50   C59   A    
Cu12  O40   S    
Cu1   O9    S    
C145  O15   A    
C181  O23   A    
Cu8   O22   S    
C52   C61   A    
C148  H12   S    
C59   H15   S    
C12   C126  A    
C54   C63   A    
C58   C60   A    
C47   C143  S    
H27   O53   S    
C44   O41   A    
C145  O68   A    
Cu9   O6    S    
C61   C63   A    
C103  C126  A    
C95   C175  S    
C62   C64   A    
C131  C140  A    
C91   C96   A    
C50   C90   A    
C162  C171  A    
C170  C187  A    
C70   C74   A    
C4    C12   A    
C147  C155  A    
C117  C126  A    
C112  O8    A    
C88   C97   A    
Cu7   Cu10  S    
C119  C128  A    
C25   C168  A    
C49   C69   A    
Cu4   O38   S    
C43   C144  S    
C109  C118  A    
H25   O51   S    
C11   C20   A    
C150  C159  A    
Cu3   Cu4   S    
C165  C183  A    
C137  C146  A    
C166  C184  A    
C175  O20   A    
C86   C90   A    
C152  H56   S    
C150  H34   S    
C106  C127  A    
C29   H57   S    
C82   C91   A    
C51   C66   A    
C89   C181  S    
C142  C151  A    
H28   O54   S    
C52   C72   A    
C41   O38   A    
C105  C114  A    
C146  C154  A    
C147  H1    S    
C82   C178  A    
C36   H6    S    
C163  C172  A    
C181  O26   A    
C38   C119  A    
Cu7   O34   S    
C5    C130  A    
C83   C100  A    
C43   O33   A    
C45   C142  S    
C158  C167  S    
C63   H10   S    
C177  O12   A    
C79   C85   A    
C100  O55   S    
C173  O18   A    
Cu1   Cu9   S    
C66   C77   A    
C39   C140  S    
C98   O47   S    
C57   C78   A    
C15   O60   S    
C8    C17   A    
C56   C59   A    
C106  C115  A    
H44   O62   S    
C32   H3    S    
Cu10  O7    S    
C80   C88   A    
C179  O1    A    
C175  O67   A    
C93   C173  S    
Cu12  O31   S    
C84   C93   A    
C105  C184  A    
H43   O61   S    
C20   O65   S    
C156  O16   A    
C86   C95   A    
C24   C77   A    
C104  C183  A    
C42   O39   A    
C2    C81   A    
C18   O63   S    
C41   O27   A    
C55   C71   A    
C2    C75   A    
C176  O66   A    
C78   C87   A    
Cu5   O19   S    
Cu6   O20   S    
C39   O29   A    
C84   C102  A    
C67   C77   A    
Cu3   O27   S    
C46   O50   S    
C133  C142  A    
C30   H60   S    
C22   H50   S    
C130  C183  A    
C1    O9    A    
C3    C110  A    
C69   C76   A    
C85   C94   A    
Cu12  O43   S    
C180  O25   A    
C60   H14   S    
C46   C82   A    
C101  C160  S    
Cu4   O29   S    
C29   C38   A    
C149  C158  A    
C167  O17   A    
C20   C122  A    
C152  C161  A    
C135  C143  A    
C174  O19   A    
C48   C67   A    
C40   C141  S    
C136  C188  A    
C174  O45   A    
C61   H13   S    
C72   C75   A    
C14   O59   S    
C112  O11   A    
C135  C187  A    
H21   O48   S    
C141  C150  A    
C34   H5    S    
H26   O52   S    
C139  C148  A    
C104  C125  A    
C57   O51   S    
C157  C165  A    
C92   C174  S    
Cu2   O41   S    
C35   O49   S    
Cu5   Cu8   S    
C91   C180  S    
C45   O31   A    
C167  O3    A    
H46   O63   S    
C47   O43   A    
C9    C135  A    
C116  C125  A    
C9    H37   S    
C118  C127  A    
H19   O46   S    
Cu8   O14   S    
H47   O64   S    
C24   C85   A    
C132  C141  A    
C180  O34   A    
C108  C117  A    
C26   H53   S    
C110  C119  A    
Cu11  O8    S    
Cu1   O18   S    
Cu5   O2    S    
Cu7   O4    S    
C28   C37   A    
Cu1   O68   S    
C148  C157  A    
C16   C127  A    
C51   C79   A    
C107  C116  A    
H40   O58   S    
C104  C113  A    
C9    C18   A    
C102  O57   S    
C113  C121  A    
C51   C60   A    
C96   O44   S    
C140  C149  A    
C31   C113  A    
C123  O13   A    
C25   C33   A    
C43   O40   A    
C18   C120  A    
C73   C74   A    
C28   H55   S    
Cu4   O28   S    
Cu2   Cu12  S    
C19   O64   S    
C107  C186  A    
C65   C76   A    
C171  C188  A    
C40   O37   A    
C169  C186  A    
C3    C172  A    
C153  H58   S    
Cu8   O45   S    
C103  C111  A    
C31   H2    S    
C23   H51   S    
C90   O54   S    
Cu2   O32   S    
C1    O6    A    
C65   C67   A    
Cu7   O13   S    
C160  C169  A    
C173  O56   A    
C40   O30   A    
C3    C137  A    
C93   C99   A    
C81   C89   A    
C8    C133  A    
C1    C161  S    
C21   C164  A    
C37   H7    S    
C47   O32   A    
C56   H17   S    
C179  O24   A    
C7    H35   S    
C33   C115  A    
Cu6   O3    S    
C4    H31   S    
C112  C163  S    
C53   C57   A    
C16   O61   S    
C132  C185  A    
Cu3   O39   S    
C10   C19   A    
C48   C102  A    
C46   C54   A    
C5    H32   S    
Cu1   O1    S    
C99   O48   S    
C27   C170  A    
C5    C14   A    
C8    H36   S    
C17   C121  A    
C143  C152  A    
C15   C128  A    
C64   H9    S    
C107  C121  A    
C158  C166  A    
C71   C73   A    
Cu11  O26   S    
C101  O5    A    
C115  C124  A    
C78   C178  A    
C106  C185  A    
H24   O50   S    
C6    C131  A    
C151  H45   S    
Cu11  O67   S    
C4    C129  A    
Cu9   O56   S    
C27   C36   A    
C21   C30   A    
C13   C83   A    
C33   H4    S    
C153  C162  A    
C23   C32   A    
C11   C137  A    
C136  C144  A    
C110  C122  A    
Cu11  O17   S    
C164  C182  A    
C123  O7    A    
C68   O52   S    
C79   O53   S    
H29   O55   S    
C34   C116  A    
C154  H59   S    
C94   C176  S    
C68   C80   A    
Cu3   O30   S    
C74   C178  A    
C103  C182  A    
C12   O58   S    
C108  C187  A    
H48   O65   S    
C35   C81   A    
C95   C98   A    
C92   C98   A    
C83   C92   A    
C14   C125  A    
C38   H8    S    
C10   C136  A    
C21   H49   S    
Cu9   O15   S    
C25   H52   S    
C66   C69   A    
Cu10  O16   S    
C11   H39   S    
Cu2   O42   S    
C159  C168  A    
C131  C184  A    
C144  C153  A    
C6    C15   A    
C22   C165  A    
C26   C34   A    
C129  C138  A    
C26   C169  A    
C44   O35   A    
C54   C70   A    
C13   C86   A    
C44   C146  S    
C62   H11   S    
C52   C68   A    
Cu10  O25   S    
C134  O2    A    
C156  O4    A    
Cu5   O10   S    
Cu8   O5    S    
C130  C139  A    
C27   H54   S    
C109  C188  A    
H41   O59   S    
C19   C124  A    
H42   O60   S    
C22   C31   A    
C37   C118  A    
C35   C55   A    
C154  C163  A    
C123  C162  S    
C49   C58   A    
C89   C97   A    
C111  C120  A    
C114  C122  A    
C55   C64   A    
C176  O21   A    
C36   C117  A    
H20   O47   S    
C23   C166  A    
C53   C62   A    
C177  O22   A    
C28   C171  A    
Cu6   Cu11  S    
C13   C76   A    
C138  C147  A    
C87   C96   A    
Cu2   O33   S    
C41   C138  S    
C45   O42   A    
C17   O62   S    
C133  C186  A    
C161  C170  A    
Cu3   O36   S    
C6    H33   S    
C10   H38   S    
Cu6   O23   S    
C134  O14   A    
Cu12  O35   S    
H18   O44   S    
H30   O57   S    
Cu4   O37   S    
C48   C56   A    
C7    C16   A    
C168  C185  A    
C105  C128  A    
C42   C139  S    
C156  C159  S    
C53   C73   A    
C109  C124  A    
H22   O49   S    
C155  C164  A    
C101  O10   A    
C30   C111  A    
Cu7   O21   S    
C151  C160  A    
C24   C84   A    
Cu10  O66   S    
C49   C100  A    
C71   C75   A    
C94   C99   A    
C29   C172  A    
Cu9   O24   S    
C2    C80   A    
C87   C179  S    
C145  C155  S    
C134  C157  S    
C39   O36   A    
Cu5   O12   S    
C70   C72   A    
Cu6   O11   S    
C149  H23   S    
C32   C114  A    
C42   O28   A    
C58   H16   S    
