data_mof_unit_68580.cif
_audit_creation_date              2012-12-11T16:25:34-0500
_audit_creation_method            fapswitch 2.2
_symmetry_space_group_name_H-M    P1
_symmetry_Int_Tables_number       1
_space_group_crystal_system       triclinic
_cell_length_a                    20.601822
_cell_length_b                    7.284974
_cell_length_c                    13.668799
_cell_angle_alpha                 89.807999
_cell_angle_beta                  102.906774
_cell_angle_gamma                 90.039591
_cell_volume                      1999.62253764

loop_
_atom_site_label
_atom_site_type_symbol
_atom_type_description
_atom_site_fract_x
_atom_site_fract_y
_atom_site_fract_z
_atom_type_partial_charge
O1    O     O_R   0.449520 0.506760 0.599710 -0.543525
O2    O     O_R   0.550480 0.006760 0.400290 -0.545922
O3    O     O_R   0.587930 0.180200 0.595790 -0.544376
O4    O     O_R   0.412070 0.680200 0.404210 -0.544205
C1    C     C_R   0.615526 0.344754 0.617422 0.694170
C2    C     C_R   0.384603 0.844196 0.382447 0.697027
O5    O     O_R   0.452350 0.177380 0.611700 -0.546389
O6    O     O_R   0.547650 0.677380 0.388300 -0.543154
O7    O     O_R   0.413930 0.001760 0.416320 -0.535139
O8    O     O_R   0.586070 0.501760 0.583680 -0.535354
C3    C     C_R   0.428588 0.345474 0.626663 0.701297
C4    C     C_R   0.570246 0.845303 0.371437 0.699526
O9    O     O_3   0.487550 0.337460 0.435880 -0.387208
O10   O     O_3   0.512450 0.837460 0.564120 -0.386950
V1    V     V_3+5 0.502310 0.064670 0.511900 1.344936
V2    V     V_3+5 0.497690 0.564670 0.488100 1.358784
C5    C     C_R   0.629575 0.923231 0.138336 -0.188588
C6    C     C_R   0.365642 0.401328 0.858013 -0.196741
C7    C     C_R   0.619069 0.857406 0.306327 -0.012654
C8    C     C_R   0.378027 0.358374 0.689211 -0.015980
C9    C     C_R   0.935723 0.880256 0.321717 0.119809
C10   C     C_R   0.054315 0.434730 0.678308 0.127439
C11   C     C_R   0.907481 0.799777 0.394956 -0.178732
C12   C     C_R   0.084872 0.439217 0.597882 -0.159698
C13   C     C_R   0.841947 0.737402 0.370192 -0.228556
C14   C     C_R   0.152368 0.404594 0.611371 -0.231702
C15   C     C_R   0.799772 0.787776 0.277492 0.076244
C16   C     C_R   0.193002 0.353772 0.705632 0.079903
C17   C     C_R   0.833162 0.824151 0.198846 0.002573
C18   C     C_R   0.159407 0.329502 0.785590 0.002680
C19   C     C_R   0.728304 0.813733 0.259609 -0.006939
C20   C     C_R   0.265309 0.345583 0.727628 0.012608
C21   C     C_R   0.695231 0.861723 0.158008 0.058415
C22   C     C_R   0.298308 0.356535 0.832158 0.055190
C23   C     C_R   0.728905 0.862038 0.077828 0.127606
C24   C     C_R   0.263468 0.333587 0.909692 0.126039
C25   C     C_R   0.797290 0.840749 0.100220 -0.187235
C26   C     C_R   0.196128 0.296008 0.882945 -0.198333
C27   C     C_R   0.688596 0.814582 0.336810 0.075877
C28   C     C_R   0.307311 0.335775 0.654072 0.070798
C29   C     C_R   0.595850 0.936551 0.213194 -0.264999
C30   C     C_R   0.401414 0.420297 0.785992 -0.261480
C31   C     C_R   0.902452 0.857925 0.221041 -0.075445
C32   C     C_R   0.090161 0.365428 0.771283 -0.093335
C33   C     C_R   0.230438 0.848794 0.032500 -0.206219
C34   C     C_R   0.770738 0.388585 0.966948 -0.202333
C35   C     C_R   0.282711 0.849852 0.985177 -0.126614
C36   C     C_R   0.718986 0.399801 0.015111 -0.125587
C37   C     C_R   0.348114 0.868208 0.039238 0.151818
C38   C     C_R   0.653258 0.405101 0.961094 0.157528
C39   C     C_R   0.360710 0.877349 0.146613 0.075700
C40   C     C_R   0.640059 0.399651 0.853285 0.075392
C41   C     C_R   0.307363 0.859801 0.199203 0.040415
C42   C     C_R   0.693079 0.375806 0.800444 0.035306
C43   C     C_R   0.240656 0.853851 0.137659 0.023361
C44   C     C_R   0.759933 0.374385 0.861743 0.020036
C45   C     C_R   0.316594 0.850004 0.308394 -0.163598
C46   C     C_R   0.683592 0.353908 0.691456 -0.160774
C47   C     C_R   0.258331 0.827860 0.348339 0.014989
C48   C     C_R   0.741727 0.324398 0.651948 0.025204
C49   C     C_R   0.193653 0.817959 0.283692 0.086389
C50   C     C_R   0.806021 0.308780 0.717201 0.082703
C51   C     C_R   0.184104 0.848454 0.180094 -0.152992
C52   C     C_R   0.816117 0.351791 0.819568 -0.149574
C53   C     C_R   0.262397 0.820089 0.453247 -0.163739
C54   C     C_R   0.737745 0.309096 0.547155 -0.170206
C55   C     C_R   0.204394 0.811837 0.491812 0.191803
C56   C     C_R   0.794275 0.263095 0.509562 0.196128
C57   C     C_R   0.143904 0.774561 0.426779 -0.207449
C58   C     C_R   0.853918 0.223794 0.576805 -0.206068
C59   C     C_R   0.138694 0.773580 0.324372 -0.177342
C60   C     C_R   0.859938 0.246827 0.678584 -0.190242
H1    H     H_    0.310164 0.826147 0.505021 0.115684
H2    H     H_    0.690916 0.333632 0.494823 0.115467
O11   O     O_R   0.913760 0.203480 0.916370 -0.539388
O12   O     O_R   0.086240 0.703480 0.083630 -0.537754
O13   O     O_R   0.047590 0.535230 0.888250 -0.538886
O14   O     O_R   0.952410 0.035230 0.111750 -0.539653
C61   C     C_R   0.058902 0.368630 0.857975 0.670188
C62   C     C_R   0.939275 0.868137 0.140509 0.666650
O15   O     O_R   0.912020 0.532880 0.904260 -0.538691
O16   O     O_R   0.087980 0.032880 0.095740 -0.539154
O17   O     O_R   0.949590 0.708460 0.099750 -0.541039
O18   O     O_R   0.050410 0.208460 0.900250 -0.547777
C63   C     C_R   0.885803 0.364094 0.884004 0.663490
C64   C     C_R   0.114489 0.863657 0.115205 0.668013
O19   O     O_3   0.012370 0.375360 0.064120 -0.377668
O20   O     O_3   0.987630 0.875360 0.935880 -0.382736
V3    V     V_3+5 0.997700 0.648160 0.988110 1.404708
V4    V     V_3+5 0.002300 0.148160 0.011890 1.401255
H3    H     H_    0.552575 0.020511 0.198471 0.147340
H4    H     H_    0.446569 0.493765 0.806588 0.147037
H5    H     H_    0.181138 0.838769 0.984375 0.126905
H6    H     H_    0.820211 0.386380 0.014960 0.128884
H7    H     H_    0.270603 0.838701 0.904917 0.139758
H8    H     H_    0.731721 0.406660 0.095915 0.140363
C65   C     C_3   0.405299 0.882880 0.983760 -0.387415
C66   C     C_3   0.387099 0.891965 0.869918 -0.801743
H9    H     H_    0.361263 0.764963 0.839566 0.249338
H10   H     H_    0.355765 0.013885 0.844999 0.250093
H11   H     H_    0.433079 0.904280 0.840668 0.226670
H12   H     H_    0.433964 0.010543 0.007233 0.194022
H13   H     H_    0.438817 0.762610 0.004591 0.175038
C67   C     C_3   0.596104 0.418527 0.016944 -0.383159
C68   C     C_3   0.613746 0.418258 0.131021 -0.800196
H14   H     H_    0.634583 0.283741 0.157820 0.245774
H15   H     H_    0.649198 0.528411 0.160794 0.246808
H16   H     H_    0.567978 0.439518 0.159818 0.226648
H17   H     H_    0.567213 0.545826 0.993790 0.193910
H18   H     H_    0.562685 0.298243 0.996255 0.171172
C69   C     C_3   0.429717 0.932237 0.199220 -0.366099
C70   C     C_3   0.433883 0.141007 0.214667 -0.677248
H19   H     H_    0.434278 0.211827 0.143013 0.175792
H20   H     H_    0.391422 0.192318 0.244573 0.232060
H21   H     H_    0.480388 0.180583 0.267411 0.240934
H22   H     H_    0.449849 0.852434 0.265942 0.178894
H23   H     H_    0.465071 0.884787 0.156361 0.142392
C71   C     C_3   0.569853 0.440104 0.799912 -0.360928
C72   C     C_3   0.559594 0.647534 0.782601 -0.661316
H24   H     H_    0.558197 0.718067 0.853433 0.169982
H25   H     H_    0.599578 0.707379 0.749842 0.231853
H26   H     H_    0.511324 0.678873 0.732244 0.237625
H27   H     H_    0.550915 0.357497 0.734118 0.178822
H28   H     H_    0.536945 0.383177 0.844136 0.135868
C73   C     C_3   0.202352 0.855933 0.598817 -0.371794
C74   C     C_3   0.269277 0.857624 0.671735 -0.788365
H29   H     H_    0.292980 0.720542 0.675278 0.242212
H30   H     H_    0.302782 0.962729 0.651339 0.241825
H31   H     H_    0.260005 0.893615 0.745613 0.222612
H32   H     H_    0.178431 0.992126 0.600052 0.188030
H33   H     H_    0.170159 0.756932 0.627228 0.198635
C75   C     C_3   0.795341 0.250855 0.399668 -0.379340
C76   C     C_3   0.729777 0.287516 0.326604 -0.779997
H34   H     H_    0.690260 0.194984 0.340969 0.248056
H35   H     H_    0.714395 0.432107 0.331379 0.229362
H36   H     H_    0.737427 0.260879 0.250275 0.226549
H37   H     H_    0.832674 0.349137 0.383260 0.183727
H38   H     H_    0.812661 0.112506 0.384255 0.204582
H39   H     H_    0.090553 0.741735 0.277208 0.110076
H40   H     H_    0.907793 0.214968 0.726725 0.116045
C77   C     C_3   0.691724 0.896557 0.969229 -0.357421
C78   C     C_3   0.731642 0.885487 0.887299 -0.736088
H41   H     H_    0.770296 0.994042 0.897666 0.232113
H42   H     H_    0.755327 0.749178 0.887472 0.238597
H43   H     H_    0.697790 0.907274 0.812698 0.213834
H44   H     H_    0.651772 0.793477 0.951586 0.191932
H45   H     H_    0.668817 0.034593 0.963055 0.184337
C79   C     C_3   0.298197 0.352553 0.020720 -0.364644
C80   C     C_3   0.254012 0.354484 0.097314 -0.728261
H46   H     H_    0.215369 0.462867 0.078237 0.235917
H47   H     H_    0.229874 0.219730 0.100786 0.231902
H48   H     H_    0.285025 0.384213 0.173096 0.214220
H49   H     H_    0.334470 0.239736 0.039934 0.198256
H50   H     H_    0.325497 0.484583 0.031845 0.186074
H51   H     H_    0.604117 0.976055 0.066060 0.123022
H52   H     H_    0.391758 0.432170 0.933785 0.126435
C81   C     C_3   0.721329 0.794370 0.449252 -0.432911
C82   C     C_3   0.686635 0.865745 0.529282 -0.702666
H53   H     H_    0.666595 0.004564 0.509352 0.236851
H54   H     H_    0.647272 0.770887 0.540910 0.240095
H55   H     H_    0.723165 0.874962 0.602501 0.209783
H56   H     H_    0.732499 0.648058 0.466426 0.194291
H57   H     H_    0.766990 0.878609 0.464609 0.215353
C83   C     C_3   0.276394 0.320237 0.541578 -0.458486
C84   C     C_3   0.316657 0.242175 0.471935 -0.697807
H58   H     H_    0.352245 0.344054 0.453790 0.233039
H59   H     H_    0.341421 0.118330 0.508000 0.241952
H60   H     H_    0.282984 0.204495 0.399406 0.213033
H61   H     H_    0.233405 0.225458 0.531642 0.214056
H62   H     H_    0.262185 0.459546 0.512146 0.208059
C85   C     C_3   0.995908 0.003120 0.352065 -0.372167
C86   C     C_3   0.975247 0.204679 0.348740 -0.713708
H63   H     H_    0.944871 0.242371 0.273595 0.238200
H64   H     H_    0.946102 0.231710 0.406241 0.204893
H65   H     H_    0.020377 0.292727 0.365039 0.210529
H66   H     H_    0.023018 0.972020 0.429964 0.174037
H67   H     H_    0.030143 0.985159 0.301166 0.178942
C87   C     C_3   0.987746 0.531221 0.665151 -0.366743
C88   C     C_3   0.997380 0.739494 0.671737 -0.713598
H68   H     H_    0.027130 0.779262 0.746712 0.247026
H69   H     H_    0.023733 0.788901 0.614110 0.197629
H70   H     H_    0.948120 0.808305 0.659635 0.208348
H71   H     H_    0.955548 0.495957 0.590983 0.172496
H72   H     H_    0.960779 0.489563 0.722938 0.177479
H73   H     H_    0.825992 0.658554 0.426601 0.135590
H74   H     H_    0.170144 0.446730 0.547932 0.140131
H75   H     H_    0.935095 0.790763 0.471687 0.132321
H76   H     H_    0.057590 0.489608 0.525688 0.121178
H77   H     H_    0.823700 0.852378 0.040833 0.142952
H78   H     H_    0.170939 0.261829 0.941431 0.152848
H79   H     H_    0.099952 0.750553 0.455685 0.106452
H80   H     H_    0.897037 0.179212 0.550101 0.117175

loop_
_geom_bond_atom_site_label_1
_geom_bond_atom_site_label_2
_ccdc_geom_bond_type
C25   H77   S    
C85   C86   S    
C38   C67   S    
C74   H29   S    
C15   C17   A    
C54   C56   A    
C69   C70   S    
O1    C3    A    
C10   C87   S    
C33   H5    S    
C57   H79   S    
C2    O7    A    
C70   H20   S    
C65   C66   S    
C58   H80   S    
C35   C37   A    
O14   V4    S    
O5    C3    A    
C68   H15   S    
O13   V3    S    
C84   H58   S    
C5    C21   A    
C1    C46   S    
C7    C27   A    
C83   C84   S    
C23   C25   A    
C12   C14   A    
C28   C83   S    
C80   H47   S    
C67   H17   S    
C8    C28   A    
O14   C62   A    
C45   C47   A    
C75   H38   S    
C54   H2    S    
C53   H1    S    
C18   C26   A    
C48   C50   A    
C33   C35   A    
C56   C75   S    
C71   C72   S    
C67   C68   S    
C50   C52   A    
C82   H55   S    
C9    C31   A    
C83   H62   S    
C73   H32   S    
C24   C79   S    
C81   C82   S    
C10   C32   A    
C40   C42   A    
C75   C76   S    
C53   C55   A    
C43   C51   A    
C76   H36   S    
C38   C40   A    
C19   C21   A    
C69   H22   S    
C81   H57   S    
C30   H4    S    
C65   H12   S    
O11   V4    S    
C86   H65   S    
O12   V3    S    
C88   H70   S    
O15   V3    S    
C49   C59   A    
O16   C64   A    
C36   C38   A    
C73   C74   S    
C48   C54   A    
C84   H59   S    
C27   C81   S    
C82   H54   S    
C2    C45   S    
C18   C32   A    
C83   H61   S    
C79   H50   S    
C62   O17   A    
C70   H19   S    
C86   H64   S    
C87   C88   S    
C42   C44   A    
C41   C43   A    
O17   V3    S    
C68   H16   S    
C34   C36   A    
C3    C8    S    
C47   C49   A    
C5    C29   A    
C78   H43   S    
C15   C19   A    
C16   C20   A    
C79   C80   S    
O4    C2    A    
C80   H48   S    
C37   C39   A    
C41   C45   A    
C59   H39   S    
C74   H31   S    
C26   H78   S    
C31   C62   S    
C9    C85   S    
C6    C30   A    
C39   C41   A    
C20   C22   A    
C82   H53   S    
O4    V2    S    
C85   H66   S    
C73   H33   S    
C34   H6    S    
C60   H40   S    
O6    C4    A    
C49   C51   A    
O13   C61   A    
C50   C60   A    
O1    V2    S    
C71   H28   S    
C74   H30   S    
O2    V1    S    
C6    C22   A    
C65   H13   S    
C72   H25   S    
C13   H73   S    
C77   H44   S    
C23   C77   S    
C17   C31   A    
C56   C58   A    
C29   H3    S    
C84   H60   S    
C66   H10   S    
C9    C11   A    
C51   C64   S    
C76   H34   S    
C10   C12   A    
O19   V4    S    
C79   H49   S    
C17   C25   A    
C24   C26   A    
C5    H51   S    
O12   C64   A    
C52   C63   S    
C78   H42   S    
O3    V1    S    
C86   H63   S    
C67   H18   S    
O11   C63   A    
O2    C4    A    
C42   C46   A    
C72   H26   S    
C39   C69   S    
C36   H8    S    
C78   H41   S    
C32   C61   S    
C87   H71   S    
C6    H52   S    
O3    C1    A    
C8    C30   A    
C72   H24   S    
C13   C15   A    
C66   H11   S    
C68   H14   S    
C14   C16   A    
C57   C59   A    
O16   V4    S    
C12   H76   S    
C69   H23   S    
C55   C73   S    
C75   H37   S    
C16   C18   A    
O8    V2    S    
C80   H46   S    
C47   C53   A    
C11   H75   S    
C14   H74   S    
C44   C52   A    
C61   O18   A    
C4    C7    S    
O5    V1    S    
C21   C23   A    
C19   C27   A    
C22   C24   A    
C71   H27   S    
C20   C28   A    
O7    V1    S    
C87   H72   S    
C77   H45   S    
O18   V4    S    
C37   C65   S    
C88   H68   S    
C1    O8    A    
C11   C13   A    
O20   V3    S    
C33   C43   A    
O6    V2    S    
C66   H9    S    
O9    V2    S    
C34   C44   A    
C76   H35   S    
C35   H7    S    
O10   V1    S    
C85   H67   S    
C58   C60   A    
C55   C57   A    
C77   C78   S    
C46   C48   A    
C81   H56   S    
C70   H21   S    
O15   C63   A    
C7    C29   A    
C88   H69   S    
C40   C71   S    
