data_mof_unit_23444.cif
_audit_creation_date              2012-12-10T20:27:09-0500
_audit_creation_method            fapswitch 2.2
_symmetry_space_group_name_H-M    P1
_symmetry_Int_Tables_number       1
_space_group_crystal_system       triclinic
_cell_length_a                    10.589093
_cell_length_b                    10.752904
_cell_length_c                    9.85639
_cell_angle_alpha                 89.712944
_cell_angle_beta                  103.288818
_cell_angle_gamma                 91.343714
_cell_volume                      1091.93209951

loop_
_atom_site_label
_atom_site_type_symbol
_atom_type_description
_atom_site_fract_x
_atom_site_fract_y
_atom_site_fract_z
_atom_type_partial_charge
C1    C     C_R   0.509007 0.260574 0.501822 0.890109
C2    C     C_R   0.518391 0.128466 0.501540 -0.205780
C3    C     C_R   0.552434 0.062889 0.390037 0.093946
C4    C     C_R   0.539792 0.933987 0.388890 -0.254624
C5    C     C_R   0.500329 0.871255 0.497319 -0.129863
C6    C     C_R   0.463141 0.936694 0.602025 -0.042937
C7    C     C_3   0.499507 0.921568 0.757502 -0.163593
C8    C     C_3   0.521145 0.063940 0.763324 0.475404
C9    C     C_R   0.386054 0.493571 0.043040 0.241731
C10   C     C_R   0.610797 0.522083 0.099907 -0.215671
C11   C     C_R   0.610571 0.527510 0.956605 0.432004
C12   C     C_R   0.257833 0.504886 0.442980 0.956015
C13   C     C_R   0.385877 0.494541 0.900725 0.052665
C14   C     C_3   0.280297 0.397964 0.867685 -0.530727
C15   C     C_3   0.283525 0.393551 0.023106 0.213561
C16   C     C_R   0.500575 0.739698 0.499764 0.875093
C17   C     C_R   0.741661 0.509759 0.557111 0.897308
C18   C     C_2   0.120972 0.531765 0.415135 -0.356075
C19   C     C_2   0.075275 0.579587 0.519251 -0.217356
C20   C     C_2   0.880454 0.531568 0.588224 -0.368041
C21   C     C_2   0.938427 0.599497 0.503588 0.128062
C22   C     C_R   0.476886 0.063076 0.606381 0.124975
H1    H     H_    0.699951 0.538233 0.176222 0.178912
H2    H     H_    0.189166 0.435886 0.803315 0.214066
H3    H     H_    0.311196 0.311550 0.826308 0.247264
H4    H     H_    0.317573 0.304755 0.076395 0.102629
H5    H     H_    0.136994 0.596271 0.622304 0.174606
H6    H     H_    0.938174 0.480353 0.675381 0.150383
H7    H     H_    0.059162 0.515230 0.312218 0.184136
H8    H     H_    0.568304 0.881850 0.307373 0.164357
H9    H     H_    0.588765 0.866758 0.793051 0.144592
N1    N     N_R   0.499160 0.499140 0.142600 -0.164847
N2    N     N_R   0.499160 0.499180 0.856960 -0.143692
O1    O     O_R   0.500020 0.316790 0.614700 -0.582980
O2    O     O_R   0.500000 0.316760 0.385350 -0.623217
O3    O     O_R   0.317820 0.500020 0.571850 -0.613699
O4    O     O_R   0.317800 0.499980 0.342510 -0.565612
O5    O     O_R   0.500000 0.683240 0.614650 -0.647516
O6    O     O_R   0.499980 0.683210 0.385300 -0.631676
O7    O     O_R   0.682200 0.500020 0.657490 -0.585823
O8    O     O_R   0.682180 0.499980 0.428150 -0.627724
Zn1   Zn    Zn3+2 0.500010 0.500020 0.653140 0.948233
Zn2   Zn    Zn3+2 0.499990 0.499980 0.346860 0.935676
C23   C     C_3   0.871055 0.686596 0.388580 -0.343685
C24   C     C_3   0.938055 0.815749 0.400400 -0.356170
C25   C     C_3   0.894146 0.889373 0.265798 -0.906165
H10   H     H_    0.920978 0.840784 0.177608 0.275015
H11   H     H_    0.787514 0.900538 0.241617 0.258849
H12   H     H_    0.943021 0.982359 0.277596 0.258185
H13   H     H_    0.914611 0.867700 0.488428 0.214380
H14   H     H_    0.045213 0.807939 0.420583 0.240088
H15   H     H_    0.875146 0.644879 0.287108 0.209785
H16   H     H_    0.768023 0.700710 0.390078 0.203412
C26   C     C_3   0.663406 0.108933 0.826822 -0.467111
C27   C     C_3   0.767662 0.064282 0.752900 -0.384869
C28   C     C_3   0.903753 0.096933 0.838410 -0.871904
H17   H     H_    0.915404 0.199099 0.854932 0.266942
H18   H     H_    0.921648 0.049356 0.941169 0.261312
H19   H     H_    0.977000 0.066132 0.781930 0.249628
H20   H     H_    0.760279 0.962225 0.736184 0.219420
H21   H     H_    0.756076 0.110322 0.650145 0.220425
H22   H     H_    0.666747 0.212327 0.829005 0.243965
H23   H     H_    0.688772 0.076829 0.936954 0.188536
O9    O     O_3   0.721851 0.568872 0.920936 -0.758254
H24   H     H_    0.694209 0.632478 0.847753 0.349115
O10   O     O_3   0.169176 0.437107 0.052758 -0.738105
H25   H     H_    0.106468 0.365735 0.035829 0.335270
C29   C     C_3   0.612540 0.122703 0.278266 -0.383161
C30   C     C_3   0.746805 0.181253 0.341692 -0.327405
C31   C     C_3   0.809896 0.235004 0.229033 -0.866015
H26   H     H_    0.827112 0.160282 0.158629 0.251585
H27   H     H_    0.746553 0.305058 0.166333 0.271601
H28   H     H_    0.904436 0.280492 0.278340 0.252235
H29   H     H_    0.739213 0.256646 0.415421 0.231174
H30   H     H_    0.810803 0.109600 0.401215 0.216904
H31   H     H_    0.625338 0.052021 0.201064 0.162512
H32   H     H_    0.546724 0.190628 0.214930 0.217014
C32   C     C_3   0.384164 0.869314 0.813590 -0.325966
C33   C     C_3   0.423371 0.847178 0.971449 -0.394786
C34   C     C_3   0.305860 0.810209 0.029143 -0.818865
H33   H     H_    0.237103 0.888143 0.016795 0.254235
H34   H     H_    0.255046 0.727181 0.973635 0.270152
H35   H     H_    0.337936 0.787922 0.141745 0.269375
H36   H     H_    0.495392 0.771988 0.994043 0.217212
H37   H     H_    0.469252 0.932304 0.026128 0.215260
H38   H     H_    0.300039 0.932125 0.787310 0.238162
H39   H     H_    0.351305 0.778744 0.762018 0.209282
O11   O     O_3   0.431330 0.126440 0.821456 -0.796844
H40   H     H_    0.463312 0.124919 0.924233 0.314007

loop_
_geom_bond_atom_site_label_1
_geom_bond_atom_site_label_2
_ccdc_geom_bond_type
C32   H39   S    
C27   C28   S    
C1    C2    S    
O3    Zn1   S    
C3    C29   S    
O1    Zn1   S    
C7    C8    S    
C24   C25   S    
C25   H12   S    
N2    Zn1   S    
C19   C21   S    
O5    Zn1   S    
C5    C6    A    
C26   H23   S    
C24   H14   S    
C6    C22   A    
C17   C20   S    
C28   H17   S    
C18   C19   D    
C14   H2    S    
C12   O4    A    
C9    C13   A    
C5    C16   S    
C9    N1    A    
C25   H10   S    
C23   H16   S    
C29   C30   S    
C2    C22   A    
C8    C22   S    
C31   H26   S    
C12   O3    A    
O2    Zn2   S    
C23   H15   S    
O7    Zn1   S    
O10   H25   S    
C13   C14   S    
O8    Zn2   S    
C34   H35   S    
C1    O1    A    
C25   H11   S    
C7    H9    S    
C11   N2    A    
C34   H34   S    
C11   O9    S    
C8    C26   S    
C32   C33   S    
C4    C5    A    
C15   H4    S    
O6    Zn2   S    
C20   H6    S    
C15   O10   S    
C8    O11   S    
C17   O7    A    
O4    Zn2   S    
C13   N2    A    
C21   C23   S    
C31   H28   S    
C30   H29   S    
C18   H7    S    
C20   C21   D    
C7    C32   S    
C3    C4    A    
C33   H37   S    
C19   H5    S    
C23   C24   S    
C1    O2    A    
C29   H32   S    
C26   C27   S    
C34   H33   S    
C6    C7    S    
C10   H1    S    
C29   H31   S    
C26   H22   S    
C28   H19   S    
O9    H24   S    
C2    C3    A    
C9    C15   S    
C32   H38   S    
C33   H36   S    
C24   H13   S    
C27   H21   S    
N1    Zn2   S    
C28   H18   S    
C30   H30   S    
C14   H3    S    
C30   C31   S    
C17   O8    A    
C10   C11   A    
C16   O6    A    
C33   C34   S    
C10   N1    A    
O11   H40   S    
C12   C18   S    
C14   C15   S    
C31   H27   S    
C27   H20   S    
C4    H8    S    
C16   O5    A    
