data_mof_unit_45689.cif
_audit_creation_date              2012-12-11T14:19:28-0500
_audit_creation_method            fapswitch 2.2
_symmetry_space_group_name_H-M    P1
_symmetry_Int_Tables_number       1
_space_group_crystal_system       triclinic
_cell_length_a                    19.371372
_cell_length_b                    7.24868
_cell_length_c                    17.731061
_cell_angle_alpha                 89.998929
_cell_angle_beta                  107.536053
_cell_angle_gamma                 89.998526
_cell_volume                      2374.03586572

loop_
_atom_site_label
_atom_site_type_symbol
_atom_type_description
_atom_site_fract_x
_atom_site_fract_y
_atom_site_fract_z
_atom_type_partial_charge
O1    O     O_R   0.414820 0.494320 0.416790 -0.522440
O2    O     O_R   0.585180 0.994320 0.583210 -0.522456
O3    O     O_R   0.560270 0.819500 0.430140 -0.527604
O4    O     O_R   0.439730 0.319500 0.569860 -0.527538
C1    C     C_R   0.580513 0.655178 0.414320 0.761556
C2    C     C_R   0.419484 0.155181 0.585677 0.761470
O5    O     O_R   0.413840 0.823740 0.407440 -0.525834
O6    O     O_R   0.586160 0.323740 0.592560 -0.525742
O7    O     O_R   0.437710 0.998590 0.560350 -0.544785
O8    O     O_R   0.562290 0.498590 0.439650 -0.544754
C3    C     C_R   0.386684 0.656040 0.386493 0.748531
C4    C     C_R   0.613313 0.156030 0.613514 0.748298
O9    O     O_3   0.508000 0.662290 0.550200 -0.376393
O10   O     O_3   0.492000 0.162290 0.449800 -0.376481
V1    V     V_3+5 0.498520 0.935380 0.490690 1.584465
V2    V     V_3+5 0.501480 0.435380 0.509310 1.584669
C5    C     C_2   0.779704 0.264216 0.795636 -0.060288
C6    C     C_2   0.220329 0.764157 0.204325 -0.060139
C7    C     C_2   0.816224 0.108980 0.824299 -0.262564
C8    C     C_2   0.183768 0.608948 0.175721 -0.262400
H1    H     H_    0.801016 0.396788 0.820512 0.175744
H2    H     H_    0.199064 0.896722 0.179393 0.175738
H3    H     H_    0.792161 0.976040 0.803236 0.136904
H4    H     H_    0.207792 0.476004 0.196849 0.136837
C9    C     C_2   0.706286 0.262120 0.736689 0.134781
C10   C     C_2   0.293744 0.761986 0.263275 0.134549
C11   C     C_2   0.686957 0.150259 0.671580 -0.222058
C12   C     C_2   0.313029 0.650317 0.328447 -0.222144
C13   C     C_R   0.299235 0.193998 0.604572 -0.155183
C14   C     C_R   0.700761 0.694015 0.395423 -0.155196
C15   C     C_R   0.372016 0.146568 0.637162 -0.147782
C16   C     C_R   0.627983 0.646552 0.362837 -0.147777
C17   C     C_R   0.397471 0.085201 0.716274 -0.058961
C18   C     C_R   0.602541 0.585118 0.283734 -0.059012
C19   C     C_R   0.351945 0.101778 0.765827 0.015422
C20   C     C_R   0.648062 0.601744 0.234179 0.015450
C21   C     C_R   0.276736 0.138372 0.730329 0.001209
C22   C     C_R   0.723267 0.638363 0.269673 0.001186
C23   C     C_R   0.249839 0.178447 0.648459 0.019560
C24   C     C_R   0.750161 0.678444 0.351542 0.019603
C25   C     C_R   0.378487 0.086865 0.849566 0.182451
C26   C     C_R   0.621516 0.586854 0.150442 0.182539
C27   C     C_R   0.330562 0.086546 0.894430 -0.146039
C28   C     C_R   0.669438 0.586563 0.105573 -0.146059
C29   C     C_R   0.255686 0.108565 0.859712 0.021985
C30   C     C_R   0.744314 0.608581 0.140289 0.021995
C31   C     C_R   0.228450 0.135063 0.776744 0.019718
C32   C     C_R   0.771552 0.635065 0.223258 0.019717
C33   C     C_R   0.153070 0.158975 0.740424 0.017528
C34   C     C_R   0.846931 0.658975 0.259576 0.017536
C35   C     C_R   0.126190 0.192660 0.658059 0.149186
C36   C     C_R   0.873810 0.692655 0.341940 0.149217
C37   C     C_R   0.174540 0.203747 0.612318 0.144328
C38   C     C_R   0.825460 0.703733 0.387681 0.144332
C39   C     C_R   0.207627 0.106254 0.906372 -0.031873
C40   C     C_R   0.792372 0.606283 0.093628 -0.031903
C41   C     C_R   0.132496 0.120221 0.869153 -0.131862
C42   C     C_R   0.867503 0.620228 0.130847 -0.131869
C43   C     C_R   0.106110 0.147496 0.787513 -0.161434
C44   C     C_R   0.893891 0.647494 0.212486 -0.161425
H5    H     H_    0.281717 0.236219 0.543326 0.171392
H6    H     H_    0.718275 0.736273 0.456665 0.171180
H7    H     H_    0.353240 0.070667 0.957732 0.187862
H8    H     H_    0.646758 0.570702 0.042271 0.187848
H9    H     H_    0.048221 0.160735 0.762042 0.149094
H10   H     H_    0.951780 0.660721 0.237958 0.149090
O11   O     O_R   0.937810 0.773680 0.060480 -0.539056
O12   O     O_R   0.062190 0.273680 0.939520 -0.539054
O13   O     O_R   0.086190 0.439740 0.092580 -0.545953
O14   O     O_R   0.913810 0.939740 0.907420 -0.545942
C45   C     C_R   0.113353 0.607603 0.113079 0.757828
C46   C     C_R   0.886647 0.107610 0.886925 0.757840
O15   O     O_R   0.939760 0.444210 0.069890 -0.524949
O16   O     O_R   0.060240 0.944210 0.930110 -0.524950
O17   O     O_R   0.914790 0.269640 0.916760 -0.527906
O18   O     O_R   0.085210 0.769640 0.083240 -0.527901
C47   C     C_R   0.919307 0.612510 0.084589 0.717861
C48   C     C_R   0.080692 0.112508 0.915411 0.717823
O19   O     O_3   0.992050 0.601530 0.949880 -0.381009
O20   O     O_3   0.007950 0.101530 0.050120 -0.381012
V3    V     V_3+5 0.001480 0.328340 0.009300 1.523732
V4    V     V_3+5 0.998520 0.828340 0.990700 1.523740
I1    I     I_    0.011998 0.230877 0.601757 -0.223670
I2    I     I_    0.987999 0.730889 0.398239 -0.223832
I3    I     I_    0.132227 0.247670 0.486893 -0.251956
I4    I     I_    0.867773 0.747584 0.513108 -0.252078
I5    I     I_    0.632752 0.447286 0.766100 -0.270546
I6    I     I_    0.367362 0.946723 0.233777 -0.270869
C49   C     C_2   0.741759 0.037795 0.648478 0.745109
O21   O     O_2   0.726038 0.884320 0.619806 -0.545930
O22   O     O_R   0.810665 0.110298 0.657214 -0.641388
H11   H     H_    0.843378 0.020523 0.640516 0.334192
C50   C     C_2   0.258182 0.538262 0.351656 0.745201
O23   O     O_2   0.273895 0.385058 0.380628 -0.546059
O24   O     O_R   0.189255 0.610884 0.342712 -0.641438
H12   H     H_    0.156528 0.521430 0.359561 0.334235
C51   C     C_2   0.466252 0.980020 0.741799 0.821664
O25   O     O_2   0.466952 0.825398 0.769668 -0.519144
O26   O     O_R   0.529691 0.055383 0.732989 -0.656977
H13   H     H_    0.572748 0.969612 0.752580 0.310497
C52   C     C_2   0.533799 0.479774 0.258226 0.821704
O27   O     O_2   0.533142 0.325232 0.230298 -0.519163
O28   O     O_R   0.470347 0.554883 0.267113 -0.656994
H14   H     H_    0.427324 0.469015 0.247523 0.310514
I7    I     I_    0.489555 0.104573 0.919535 -0.191370
I8    I     I_    0.510444 0.604597 0.080493 -0.191330
C53   C     C_2   0.235246 0.098689 0.994032 0.738210
O29   O     O_2   0.216874 0.973207 0.029875 -0.554748
O30   O     O_R   0.281082 0.238208 0.035264 -0.642393
H15   H     H_    0.294547 0.222139 0.094687 0.321675
C54   C     C_2   0.764750 0.598774 0.005967 0.738229
O31   O     O_2   0.783128 0.473331 0.970109 -0.554717
O32   O     O_R   0.718907 0.738309 0.964750 -0.642398
H16   H     H_    0.705442 0.722286 0.905325 0.321704

loop_
_geom_bond_atom_site_label_1
_geom_bond_atom_site_label_2
_ccdc_geom_bond_type
C14   C16   A    
C50   O23   D    
C53   O30   S    
C20   C26   A    
O24   H12   S    
O11   C47   A    
O2    C4    A    
C2    O7    A    
C51   O25   D    
C27   H7    S    
C31   C33   A    
C23   C37   A    
C28   H8    S    
O5    C3    A    
C52   O27   D    
C25   I7    S    
O12   V3    S    
C19   C21   A    
C32   C34   A    
C45   O18   A    
C41   C43   A    
C42   C44   A    
C9    I5    S    
C36   I2    S    
O13   C45   A    
C42   C47   S    
C17   C19   A    
C8    H4    S    
C28   C30   A    
C33   C35   A    
C6    C10   S    
C34   C36   A    
C53   O29   D    
C15   C17   A    
C8    C45   S    
C21   C31   A    
C40   C54   S    
C6    C8    D    
C1    C16   S    
O5    V1    S    
C2    C15   S    
C44   H10   S    
O6    V2    S    
C25   C27   A    
C7    C46   S    
C26   C28   A    
O16   V4    S    
C46   O17   A    
C19   C25   A    
O15   V3    S    
C51   O26   S    
C36   C38   A    
C30   C32   A    
C29   C31   A    
O12   C48   A    
C21   C23   A    
C13   H5    S    
C18   C52   S    
C4    C11   S    
O4    C2    A    
O18   V4    S    
O22   H11   S    
C38   I4    S    
O17   V3    S    
C5    H1    S    
C39   C53   S    
C12   C50   S    
C35   C37   A    
C16   C18   A    
O4    V2    S    
C7    H3    S    
C27   C29   A    
O26   H13   S    
O6    C4    A    
C13   C23   A    
C14   C24   A    
C54   O32   S    
O1    V2    S    
O2    V1    S    
C26   I8    S    
C10   I6    S    
C24   C38   A    
C39   C41   A    
C49   O22   S    
C35   I1    S    
O3    V1    S    
O32   H16   S    
C54   O31   D    
C6    H2    S    
C22   C32   A    
C41   C48   S    
O20   V3    S    
O3    C1    A    
O19   V4    S    
C37   I3    S    
C9    C11   D    
C10   C12   D    
C33   C43   A    
C5    C9    S    
C14   H6    S    
O7    V1    S    
C34   C44   A    
C1    O8    A    
C13   C15   A    
O8    V2    S    
O30   H15   S    
C43   H9    S    
C22   C24   A    
C50   O24   S    
C3    C12   S    
C20   C22   A    
C5    C7    D    
C40   C42   A    
C11   C49   S    
C18   C20   A    
O14   V4    S    
O13   V3    S    
C29   C39   A    
O11   V4    S    
C52   O28   S    
O16   C48   A    
O9    V2    S    
C30   C40   A    
O28   H14   S    
O15   C47   A    
O10   V1    S    
O14   C46   A    
O1    C3    A    
C17   C51   S    
C49   O21   D    
