data_mof_unit_64431.cif
_audit_creation_date              2012-12-10T17:20:37-0500
_audit_creation_method            fapswitch 2.2
_symmetry_space_group_name_H-M    P1
_symmetry_Int_Tables_number       1
_space_group_crystal_system       triclinic
_cell_length_a                    10.172421
_cell_length_b                    10.846379
_cell_length_c                    13.64945
_cell_angle_alpha                 91.840567
_cell_angle_beta                  75.234752
_cell_angle_gamma                 95.567128
_cell_volume                      1449.35501903

loop_
_atom_site_label
_atom_site_type_symbol
_atom_type_description
_atom_site_fract_x
_atom_site_fract_y
_atom_site_fract_z
_atom_type_partial_charge
C1    C     C_R   0.557319 0.732390 0.491181 0.934872
C2    C     C_2   0.073750 0.488571 0.491968 0.517262
C3    C     C_1   0.448486 0.507480 0.882048 0.040223
C4    C     C_1   0.551520 0.492538 0.117953 0.039322
C5    C     C_2   0.590912 0.864011 0.478581 -0.334840
C6    C     C_2   0.412197 0.135371 0.498928 -0.328038
C7    C     C_2   0.491099 0.933341 0.474801 -0.143033
C8    C     C_2   0.516294 0.065172 0.471917 -0.141060
C9    C     C_R   0.443327 0.267486 0.504144 0.932792
C10   C     C_R   0.477188 0.503421 0.688069 0.902449
C11   C     C_R   0.522812 0.496577 0.311927 0.895073
C12   C     C_1   0.539404 0.494221 0.206764 -0.124887
C13   C     C_1   0.460599 0.505787 0.793236 -0.126624
C14   C     C_2   0.556676 0.491893 0.013730 0.482954
C15   C     C_2   0.443333 0.508135 0.986271 0.482808
C16   C     C_2   0.926261 0.511443 0.508015 0.518714
F1    F     F_    0.323715 0.525159 0.055524 -0.642178
F2    F     F_    0.676293 0.474868 0.944478 -0.641778
F3    F     F_    0.126191 0.399177 0.425401 -0.647752
F4    F     F_    0.873828 0.600850 0.574571 -0.647491
H1    H     H_    0.622141 0.104534 0.452943 0.196914
H2    H     H_    0.387216 0.893579 0.479726 0.197913
H3    H     H_    0.306619 0.095549 0.517954 0.170192
H4    H     H_    0.694505 0.904238 0.473762 0.171688
H5    H     H_    0.110430 0.619038 0.589799 0.175584
H6    H     H_    0.889560 0.380950 0.410208 0.174118
N1    N     N_2   0.847200 0.448220 0.460120 -0.217037
N2    N     N_2   0.152800 0.551780 0.539880 -0.217429
O1    O     O_R   0.430150 0.692610 0.508030 -0.628944
O2    O     O_R   0.569850 0.307390 0.491970 -0.629410
O3    O     O_R   0.653100 0.659360 0.482430 -0.558943
O4    O     O_R   0.346900 0.340640 0.517570 -0.559099
O5    O     O_R   0.372470 0.518990 0.654990 -0.612777
O6    O     O_R   0.627530 0.481010 0.345010 -0.615851
O7    O     O_R   0.595430 0.485740 0.629390 -0.543959
O8    O     O_R   0.404570 0.514260 0.370610 -0.546876
Zn1   Zn    Zn3+2 0.351130 0.522200 0.517090 1.037654
Zn2   Zn    Zn3+2 0.648870 0.477800 0.482910 1.037475

loop_
_geom_bond_atom_site_label_1
_geom_bond_atom_site_label_2
_ccdc_geom_bond_type
C2    N2    D    
C11   C12   S    
C10   O7    A    
C4    C12   T    
C7    H2    S    
C2    C16   S    
C14   F2    S    
C3    C13   T    
O3    Zn2   S    
C16   F4    S    
C16   N1    D    
C1    O1    A    
C8    H1    S    
C7    C8    S    
O4    Zn1   S    
H5    N2    S    
H6    N1    S    
C5    H4    S    
N2    Zn1   S    
C6    C9    S    
C1    C5    S    
C6    H3    S    
C9    O2    A    
C11   O8    A    
C10   O5    A    
C4    C14   S    
N1    Zn2   S    
C1    O3    A    
O7    Zn2   S    
C3    C15   S    
O2    Zn2   S    
C5    C7    D    
O1    Zn1   S    
C15   F1    S    
C14   C15   D    
O8    Zn1   S    
C6    C8    D    
C9    O4    A    
C2    F3    S    
O6    Zn2   S    
C11   O6    A    
O5    Zn1   S    
C10   C13   S    
