data_mof_unit_42491.cif
_audit_creation_date              2012-10-26T19:27:34-0400
_audit_creation_method            fapswitch 2.2
_symmetry_space_group_name_H-M    P1
_symmetry_Int_Tables_number       1
_space_group_crystal_system       triclinic
_cell_length_a                    20.798279
_cell_length_b                    21.410531
_cell_length_c                    14.831852
_cell_angle_alpha                 89.999986
_cell_angle_beta                  128.508394
_cell_angle_gamma                 89.99996
_cell_volume                      5168.25548047

loop_
_atom_site_label
_atom_site_type_symbol
_atom_type_description
_atom_site_fract_x
_atom_site_fract_y
_atom_site_fract_z
_atom_type_partial_charge
C1    C     C_R   0.603450 0.914416 0.632261 0.545041
C2    C     C_R   0.661882 0.233335 0.062035 0.383516
C3    C     C_R   0.723391 0.776379 0.967813 -0.029105
C4    C     C_R   0.212267 0.734819 0.950427 -0.033752
C5    C     C_R   0.776610 0.276379 0.032188 -0.029103
C6    C     C_R   0.787729 0.734814 0.049566 -0.033754
C7    C     C_R   0.223393 0.276382 0.967818 -0.029104
C8    C     C_R   0.338063 0.792500 0.020896 0.307376
C9    C     C_R   0.649895 0.219507 0.959995 0.266925
C10   C     C_R   0.661938 0.792501 0.979105 0.307377
C11   C     C_R   0.350105 0.219507 0.040006 0.266925
C12   C     C_R   0.838067 0.292496 0.020901 0.307380
C13   C     C_R   0.674054 0.777721 0.081046 0.412362
C14   C     C_R   0.149892 0.719510 0.959989 0.266925
C15   C     C_R   0.161940 0.292502 0.979108 0.307373
C16   C     C_R   0.850100 0.719501 0.039997 0.266927
C17   C     C_R   0.338117 0.233334 0.937964 0.383517
C18   C     C_R   0.825954 0.277715 0.918963 0.412362
C19   C     C_R   0.161878 0.733338 0.062029 0.383516
C20   C     C_R   0.174054 0.277722 0.081048 0.412354
C21   C     C_R   0.838111 0.733328 0.937954 0.383519
C22   C     C_R   0.324242 0.976723 0.666978 -0.051679
C23   C     C_R   0.675758 0.976718 0.333024 -0.051689
C24   C     C_R   0.824244 0.476709 0.666975 -0.051705
C25   C     C_R   0.397394 0.086348 0.368910 0.545858
C26   C     C_R   0.175758 0.476724 0.333022 -0.051686
C27   C     C_R   0.352077 0.985930 0.603895 0.327719
C28   C     C_R   0.647922 0.985927 0.396105 0.327714
C29   C     C_R   0.852080 0.485921 0.603894 0.327707
C30   C     C_R   0.147922 0.485930 0.396105 0.327715
C31   C     C_R   0.487400 0.005670 0.776259 0.431484
C32   C     C_R   0.512601 0.005672 0.223741 0.431483
C33   C     C_R   0.987398 0.505674 0.776258 0.431482
C34   C     C_R   0.012599 0.505669 0.223740 0.431478
C35   C     C_R   0.462248 0.990438 0.845408 -0.054235
C36   C     C_R   0.396549 0.914416 0.367738 0.545037
C37   C     C_R   0.537753 0.990438 0.154593 -0.054236
C38   C     C_R   0.962247 0.490437 0.845406 -0.054236
C39   C     C_R   0.037752 0.490438 0.154592 -0.054236
C40   C     C_R   0.377905 0.979266 0.786607 -0.085291
C41   C     C_R   0.622096 0.979263 0.213395 -0.085288
C42   C     C_R   0.877905 0.479257 0.786604 -0.085284
C43   C     C_R   0.122096 0.479267 0.213393 -0.085289
C44   C     C_R   0.516513 0.985151 0.969374 -0.090827
C45   C     C_R   0.483488 0.985152 0.030627 -0.090826
C46   C     C_R   0.016512 0.485153 0.969373 -0.090829
C47   C     C_R   0.602606 0.086348 0.631090 0.545859
C48   C     C_R   0.983487 0.485150 0.030625 -0.090826
C49   C     C_R   0.399174 0.971218 0.966764 0.443569
C50   C     C_R   0.600827 0.971215 0.033238 0.443567
C51   C     C_R   0.899174 0.471211 0.966762 0.443565
C52   C     C_R   0.100827 0.471222 0.033236 0.443568
C53   C     C_R   0.347746 0.968169 0.847270 0.452453
C54   C     C_R   0.652255 0.968165 0.152732 0.452460
C55   C     C_R   0.847746 0.468157 0.847268 0.452458
C56   C     C_R   0.152256 0.468173 0.152731 0.452455
C57   C     C_R   0.658730 0.137941 0.701494 -0.006252
C58   C     C_R   0.103451 0.414416 0.632261 0.545035
C59   C     C_R   0.337342 0.865451 0.292603 -0.013661
C60   C     C_R   0.341272 0.137942 0.298508 -0.006252
C61   C     C_R   0.662655 0.865449 0.707393 -0.013661
C62   C     C_R   0.158729 0.637942 0.701493 -0.006253
C63   C     C_R   0.837344 0.365450 0.292605 -0.013662
C64   C     C_R   0.841271 0.637942 0.298507 -0.006253
C65   C     C_R   0.162657 0.365451 0.707396 -0.013660
C66   C     C_R   0.757732 0.216410 0.744077 -0.071317
C67   C     C_R   0.234345 0.789303 0.243008 -0.078208
C68   C     C_R   0.242275 0.216415 0.255931 -0.071318
C69   C     C_R   0.897394 0.586348 0.368910 0.545859
C70   C     C_R   0.765644 0.789295 0.756979 -0.078210
C71   C     C_R   0.257730 0.716412 0.744074 -0.071318
C72   C     C_R   0.734348 0.289301 0.243012 -0.078212
C73   C     C_R   0.742277 0.716417 0.255933 -0.071316
C74   C     C_R   0.265650 0.289299 0.756987 -0.078209
C75   C     C_R   0.703990 0.168399 0.673879 -0.136519
C76   C     C_R   0.291444 0.834379 0.318416 -0.129328
C77   C     C_R   0.296014 0.168403 0.326126 -0.136516
C78   C     C_R   0.708548 0.834374 0.681574 -0.129325
C79   C     C_R   0.203989 0.668400 0.673878 -0.136518
C80   C     C_R   0.896549 0.414416 0.367739 0.545045
C81   C     C_R   0.791446 0.334378 0.318419 -0.129323
C82   C     C_R   0.796016 0.668404 0.326128 -0.136523
C83   C     C_R   0.208552 0.334377 0.681579 -0.129326
C84   C     C_R   0.665369 0.157824 0.796541 -0.052953
C85   C     C_R   0.327446 0.849486 0.193356 -0.045705
C86   C     C_R   0.334632 0.157826 0.203461 -0.052953
C87   C     C_R   0.672553 0.849485 0.806642 -0.045707
C88   C     C_R   0.165367 0.657827 0.796538 -0.052952
C89   C     C_R   0.827448 0.349484 0.193359 -0.045707
C90   C     C_R   0.834629 0.657823 0.203457 -0.052954
C91   C     C_R   0.102606 0.586348 0.631090 0.545856
C92   C     C_R   0.172555 0.349487 0.806645 -0.045707
C93   C     C_R   0.711937 0.210454 0.860814 -0.010620
C94   C     C_R   0.278301 0.798880 0.124174 -0.009470
C95   C     C_R   0.288066 0.210456 0.139190 -0.010620
C96   C     C_R   0.721696 0.798876 0.875819 -0.009470
C97   C     C_R   0.211934 0.710456 0.860810 -0.010620
C98   C     C_R   0.778304 0.298877 0.124179 -0.009469
C99   C     C_R   0.788064 0.710454 0.139187 -0.010621
C100  C     C_R   0.221699 0.298879 0.875825 -0.009470
C101  C     C_R   0.764006 0.236346 0.839682 0.028183
C102  C     C_R   0.325950 0.777718 0.918957 0.412355
C103  C     C_R   0.225885 0.772424 0.144394 0.023840
C104  C     C_R   0.236000 0.236351 0.160325 0.028182
C105  C     C_R   0.774107 0.772417 0.855594 0.023842
C106  C     C_R   0.264003 0.736349 0.839678 0.028183
C107  C     C_R   0.725888 0.272422 0.144399 0.023840
C108  C     C_R   0.736000 0.736351 0.160324 0.028183
C109  C     C_R   0.274112 0.272421 0.855602 0.023840
C110  C     C_R   0.712270 0.234815 0.950432 -0.033753
C111  C     C_R   0.276607 0.776382 0.032183 -0.029102
C112  C     C_R   0.287732 0.234818 0.049571 -0.033753
Cu1   Cu    Cu3+1 0.526640 0.000000 0.436960 1.063671
Cu2   Cu    Cu3+1 0.473360 0.000000 0.563040 1.063664
Cu3   Cu    Cu3+1 0.026640 0.500000 0.436960 1.063671
Cu4   Cu    Cu3+1 0.973360 0.500000 0.563040 1.063686
F1    F     F_    0.379641 0.798979 0.902530 -0.624744
F2    F     F_    0.632500 0.951607 0.981162 -0.567071
F3    F     F_    0.867502 0.451601 0.018839 -0.567074
F4    F     F_    0.132502 0.451617 0.981160 -0.567067
F5    F     F_    0.267443 0.953249 0.790341 -0.575257
F6    F     F_    0.732557 0.953242 0.209661 -0.575255
F7    F     F_    0.767446 0.453230 0.790339 -0.575258
F8    F     F_    0.232559 0.453255 0.209660 -0.575256
F9    F     F_    0.607105 0.212628 0.076760 -0.627769
F10   F     F_    0.620368 0.798986 0.097479 -0.624742
F11   F     F_    0.392892 0.212624 0.923237 -0.627769
F12   F     F_    0.879645 0.298976 0.902536 -0.624740
F13   F     F_    0.107101 0.712631 0.076753 -0.627766
F14   F     F_    0.120366 0.298985 0.097479 -0.624743
F15   F     F_    0.892883 0.712617 0.923225 -0.627774
F16   F     F_    0.367501 0.951610 0.018840 -0.567069
H1    H     H_    0.355305 0.879434 0.168012 0.251243
H2    H     H_    0.699790 0.153965 0.600380 0.148975
H3    H     H_    0.702226 0.846200 0.605394 0.175563
H4    H     H_    0.300215 0.153969 0.399626 0.148982
H5    H     H_    0.797766 0.346205 0.394597 0.175574
H6    H     H_    0.199790 0.653965 0.600379 0.148977
H7    H     H_    0.202230 0.346202 0.605399 0.175563
H8    H     H_    0.800219 0.653972 0.399630 0.148965
H9    H     H_    0.295534 0.736903 0.724740 0.192983
H10   H     H_    0.696189 0.268322 0.261321 0.193959
H11   H     H_    0.704477 0.736911 0.275271 0.192981
H12   H     H_    0.637237 0.129488 0.823234 0.218312
H13   H     H_    0.303807 0.268319 0.738676 0.193959
H14   H     H_    0.795536 0.236902 0.724743 0.192983
H15   H     H_    0.196186 0.768324 0.261316 0.193962
H16   H     H_    0.204473 0.236908 0.275268 0.192983
H17   H     H_    0.803799 0.768313 0.738666 0.193957
H18   H     H_    0.259661 0.966464 0.620777 0.212561
H19   H     H_    0.740338 0.966456 0.379226 0.212557
H20   H     H_    0.759664 0.466442 0.620773 0.212550
H21   H     H_    0.240339 0.466465 0.379224 0.212558
H22   H     H_    0.449101 0.824279 0.093080 0.404997
H23   H     H_    0.644697 0.879434 0.831989 0.251242
H24   H     H_    0.537712 0.189617 0.884953 0.397266
H25   H     H_    0.550902 0.824284 0.906926 0.404998
H26   H     H_    0.462288 0.189616 0.115046 0.397265
H27   H     H_    0.949105 0.324276 0.093086 0.404999
H28   H     H_    0.037707 0.689622 0.884945 0.397266
H29   H     H_    0.050903 0.324284 0.906927 0.404997
H30   H     H_    0.962275 0.689594 0.115026 0.397258
H31   H     H_    0.420118 0.056319 0.108552 0.328652
H32   H     H_    0.579886 0.056314 0.891449 0.328651
H33   H     H_    0.920110 0.556310 0.108548 0.328646
H34   H     H_    0.362761 0.129489 0.176765 0.218315
H35   H     H_    0.079876 0.556325 0.891447 0.328652
H36   H     H_    0.691108 0.006398 0.550609 0.367562
H37   H     H_    0.308899 0.006390 0.449389 0.367576
H38   H     H_    0.191107 0.506396 0.550610 0.367564
H39   H     H_    0.808879 0.506413 0.449395 0.367537
H40   H     H_    0.855308 0.379431 0.168015 0.251245
H41   H     H_    0.137234 0.629491 0.823231 0.218320
H42   H     H_    0.144698 0.379435 0.831990 0.251240
H43   H     H_    0.862757 0.629485 0.176760 0.218306
H44   H     H_    0.297765 0.846205 0.394595 0.175562
N1    N     N_R   0.433280 0.000000 0.657760 -0.218034
N2    N     N_R   0.566720 0.000000 0.342240 -0.218029
N3    N     N_R   0.933280 0.500000 0.657760 -0.218019
N4    N     N_R   0.066720 0.500000 0.342240 -0.218030
O1    O     O_R   0.600040 0.935040 0.546740 -0.496729
O2    O     O_R   0.444990 0.064930 0.346780 -0.443622
O3    O     O_R   0.444990 0.935070 0.346780 -0.465015
O4    O     O_R   0.555010 0.064930 0.653220 -0.443624
O5    O     O_R   0.055010 0.435070 0.653220 -0.465020
O6    O     O_R   0.944990 0.564930 0.346780 -0.443625
O7    O     O_R   0.944990 0.435070 0.346780 -0.465018
O8    O     O_R   0.055010 0.564930 0.653220 -0.443621
O9    O     O_3   0.412338 0.817540 0.113301 -0.672016
O10   O     O_3   0.575289 0.195740 0.865987 -0.699816
O11   O     O_3   0.587664 0.817542 0.886701 -0.672010
O12   O     O_R   0.399960 0.064960 0.453260 -0.545555
O13   O     O_3   0.424712 0.195739 0.134013 -0.699814
O14   O     O_3   0.912342 0.317536 0.113308 -0.672014
O15   O     O_3   0.075285 0.695744 0.865980 -0.699815
O16   O     O_3   0.087666 0.317544 0.886704 -0.672016
O17   O     O_3   0.924707 0.695731 0.134002 -0.699808
O18   O     O_3   0.436416 0.030287 0.175084 -0.600477
O19   O     O_3   0.563586 0.030283 0.824916 -0.600476
O20   O     O_3   0.936412 0.530279 0.175083 -0.600476
O21   O     O_3   0.063580 0.530294 0.824915 -0.600481
O22   O     O_3   0.705434 0.978528 0.513246 -0.689036
O23   O     O_R   0.399960 0.935040 0.453260 -0.496757
O24   O     O_3   0.294562 0.978533 0.486755 -0.689044
O25   O     O_3   0.205436 0.478530 0.513245 -0.689037
O26   O     O_3   0.794572 0.478520 0.486754 -0.689025
O27   O     O_R   0.600040 0.064960 0.546740 -0.545551
O28   O     O_R   0.100040 0.435040 0.546740 -0.496737
O29   O     O_R   0.899960 0.564960 0.453260 -0.545548
O30   O     O_R   0.899960 0.435040 0.453260 -0.496681
O31   O     O_R   0.100040 0.564960 0.546740 -0.545554
O32   O     O_R   0.555010 0.935070 0.653220 -0.465012

loop_
_geom_bond_atom_site_label_1
_geom_bond_atom_site_label_2
_ccdc_geom_bond_type
C19   F13   S    
H27   O14   S    
C96   C105  A    
C22   H18   S    
C16   C21   A    
C38   C46   A    
C65   C92   A    
C24   C42   A    
C94   C111  A    
C74   H13   S    
C34   N4    A    
C86   H34   S    
C64   C90   A    
C74   C83   A    
C91   O8    A    
C3    C6    A    
C74   C109  A    
C31   O19   S    
C75   H2    S    
C67   C103  A    
C44   C45   A    
C72   H10   S    
C99   C108  A    
Cu4   O8    S    
H30   O17   S    
C50   C54   A    
C31   N1    A    
C56   F8    S    
C38   C42   A    
C95   C112  A    
Cu2   O4    S    
C65   C83   A    
C70   C78   A    
C5    C110  A    
C84   H12   S    
Cu3   Cu4   S    
C46   C52   A    
C2    C107  A    
C68   C77   A    
C7    C112  A    
Cu2   O32   S    
C24   C29   A    
C21   F15   S    
C82   H8    S    
C33   N3    A    
C24   H20   S    
C18   F12   S    
C19   C103  A    
C48   C51   A    
Cu1   O1    S    
H31   O18   S    
C13   F10   S    
C51   F3    S    
C10   C13   A    
C3    C96   A    
C25   C60   S    
C58   O28   A    
C61   C87   A    
C78   H3    S    
C8    O9    S    
C51   C55   A    
C72   C81   A    
C68   H16   S    
H32   O19   S    
C93   C110  A    
C71   H9    S    
C36   C59   S    
C7    C15   A    
Cu1   N2    S    
C54   F6    S    
C100  C109  A    
C59   C76   A    
C4    C97   A    
C87   C96   A    
C1    O32   A    
C4    C14   A    
C66   C101  A    
C32   N2    A    
C70   H17   S    
C12   O14   S    
C13   C108  A    
C71   C79   A    
C58   O5    A    
C26   C43   A    
C46   C48   A    
C63   C80   S    
C15   C20   A    
C49   F16   S    
C55   F7    S    
C60   C77   A    
H26   O13   S    
Cu2   O12   S    
C7    C100  A    
C27   O24   S    
C11   O13   S    
C62   C79   A    
C76   H44   S    
C14   O15   S    
C91   O31   A    
C86   C95   A    
H33   O20   S    
C93   C101  A    
Cu3   O6    S    
C60   C86   A    
C17   F11   S    
C73   C108  A    
C39   C43   A    
C92   H42   S    
C23   C28   A    
C30   O25   S    
Cu4   O30   S    
C90   H43   S    
C25   O12   A    
C29   O26   S    
C34   C39   A    
H29   O16   S    
C1    C61   S    
C18   C101  A    
C28   N2    A    
C81   H5    S    
H25   O11   S    
Cu4   O29   S    
Cu3   O28   S    
C42   C55   A    
C47   C57   S    
Cu3   O7    S    
C85   C94   A    
C58   C65   S    
Cu1   O2    S    
C72   C107  A    
C45   C49   A    
C61   C78   A    
Cu2   N1    S    
C22   C40   A    
C62   C91   S    
C63   C89   A    
C57   C84   A    
C36   O3    A    
C32   C37   A    
H39   O26   S    
C35   C44   A    
C64   C82   A    
C102  F1    S    
H38   O25   S    
H28   O15   S    
C97   C106  A    
C52   F4    S    
C77   H4    S    
H22   O9    S    
C63   C81   A    
C94   C103  A    
C26   C30   A    
C22   C27   A    
C67   H15   S    
C83   H7    S    
C31   C35   A    
C8    C111  A    
C69   O29   A    
C15   O16   S    
C37   C45   A    
C9    O10   S    
Cu1   O27   S    
C90   C99   A    
C25   O2    A    
C92   C100  A    
C80   O30   A    
Cu1   Cu2   S    
C73   H11   S    
C44   C50   A    
C9    C110  A    
C23   H19   S    
C11   C17   A    
C1    O1    A    
C11   C112  A    
C50   F2    S    
C32   O18   S    
C14   C19   A    
C4    C111  A    
Cu3   N4    S    
C89   H40   S    
C20   F14   S    
C47   O4    A    
C70   C105  A    
C17   C109  A    
C27   N1    A    
C20   C104  A    
C47   O27   A    
C64   C69   S    
Cu4   O5    S    
C33   C38   A    
C23   C41   A    
C36   O23   A    
Cu3   O31   S    
C89   C98   A    
C28   O22   S    
C6    C99   A    
C57   C75   A    
C68   C104  A    
C35   C40   A    
C88   C97   A    
C3    C10   A    
C53   F5    S    
C95   C104  A    
C88   H41   S    
Cu1   O3    S    
C62   C88   A    
C49   C53   A    
C66   C75   A    
C69   O6    A    
C33   O21   S    
C10   O11   S    
C80   O7    A    
H36   O22   S    
C73   C82   A    
C102  C106  A    
C87   H23   S    
C84   C93   A    
H35   O21   S    
C37   C41   A    
C41   C54   A    
C66   H14   S    
C5    C12   A    
C98   C107  A    
C6    C16   A    
C2    F9    S    
C34   O20   S    
C43   C56   A    
C79   H6    S    
C5    C98   A    
C40   C53   A    
C29   N3    A    
C71   C106  A    
C12   C18   A    
C30   N4    A    
Cu2   O23   S    
C26   H21   S    
C67   C76   A    
Cu4   N3    S    
C2    C9    A    
C8    C102  A    
C59   C85   A    
C21   C105  A    
C16   O17   S    
C52   C56   A    
C85   H1    S    
C39   C48   A    
H37   O24   S    
H24   O10   S    
