data_mof_unit_8465.cif
_audit_creation_date              2012-12-10T20:28:45-0500
_audit_creation_method            fapswitch 2.2
_symmetry_space_group_name_H-M    P1
_symmetry_Int_Tables_number       1
_space_group_crystal_system       triclinic
_cell_length_a                    10.631944
_cell_length_b                    10.694149
_cell_length_c                    9.897984
_cell_angle_alpha                 88.76821
_cell_angle_beta                  90.363734
_cell_angle_gamma                 91.062269
_cell_volume                      1124.92339065

loop_
_atom_site_label
_atom_site_type_symbol
_atom_type_description
_atom_site_fract_x
_atom_site_fract_y
_atom_site_fract_z
_atom_type_partial_charge
C1    C     C_R   0.505047 0.259730 0.500823 0.862132
C2    C     C_R   0.529309 0.938170 0.372550 -0.241577
C3    C     C_R   0.531123 0.871009 0.495446 -0.096028
C4    C     C_R   0.259385 0.507957 0.499692 0.868557
C5    C     C_R   0.559813 0.932920 0.614299 0.098821
C6    C     C_3   0.505614 0.917340 0.752430 -0.516676
C7    C     C_3   0.504221 0.059234 0.754904 -0.117191
C8    C     C_R   0.398589 0.454204 0.071983 0.139141
C9    C     C_R   0.590774 0.564202 0.069057 0.226954
C10   C     C_R   0.590691 0.562015 0.925440 -0.164023
C11   C     C_R   0.398012 0.454732 0.929627 0.225565
C12   C     C_R   0.057896 0.519089 0.622710 0.065160
C13   C     C_3   0.345237 0.324447 0.930043 -0.168229
C14   C     C_3   0.343683 0.325886 0.083488 -0.494773
C15   C     C_R   0.506084 0.739870 0.498674 0.885157
C16   C     C_R   0.738217 0.481757 0.501696 0.877428
C17   C     C_R   0.107736 0.577625 0.738241 -0.189915
C18   C     C_R   0.051488 0.557801 0.863595 -0.202597
C19   C     C_R   0.948639 0.474622 0.876439 0.164020
C20   C     C_R   0.891046 0.426596 0.759595 0.110002
C21   C     C_R   0.937858 0.464971 0.630319 0.038150
C22   C     C_3   0.693322 0.639628 0.135496 -0.814514
C23   C     C_R   0.124092 0.508308 0.500140 -0.109846
C24   C     C_R   0.061599 0.470565 0.382456 -0.215281
C25   C     C_R   0.934204 0.447916 0.385450 -0.224316
C26   C     C_R   0.870566 0.454642 0.507357 -0.127140
C27   C     C_R   0.559514 0.061042 0.616224 0.120743
C28   C     C_R   0.528695 0.128440 0.498886 -0.132053
C29   C     C_R   0.528360 0.067320 0.374286 -0.210729
H1    H     H_    0.110467 0.459654 0.287855 0.160997
H2    H     H_    0.884710 0.427268 0.292792 0.163223
H3    H     H_    0.517056 0.117441 0.279032 0.163969
H4    H     H_    0.517459 0.892143 0.276742 0.166818
H5    H     H_    0.409566 0.874312 0.751900 0.194392
H6    H     H_    0.680167 0.072638 0.846132 0.207081
H7    H     H_    0.557544 0.087090 0.950991 0.181755
H8    H     H_    0.766045 0.577327 0.177023 0.255029
H9    H     H_    0.741239 0.703724 0.061592 0.189993
H10   H     H_    0.655486 0.699223 0.214469 0.260044
H11   H     H_    0.179668 0.230565 0.898639 0.183268
H12   H     H_    0.572732 0.873104 0.824775 0.201270
H13   H     H_    0.228846 0.317055 0.766339 0.216866
H14   H     H_    0.955195 0.483249 0.081628 0.160906
H15   H     H_    0.922304 0.341597 0.020987 0.194593
H16   H     H_    0.718126 0.360532 0.816319 0.239881
H17   H     H_    0.778257 0.285238 0.682703 0.184592
H18   H     H_    0.407870 0.097348 0.757410 0.157256
H19   H     H_    0.664897 0.608944 0.868376 0.167013
H20   H     H_    0.410929 0.257672 0.888262 0.182000
H21   H     H_    0.247962 0.325483 0.128136 0.202342
H22   H     H_    0.409466 0.258241 0.130711 0.189991
H23   H     H_    0.190433 0.637993 0.732936 0.163413
H24   H     H_    0.093962 0.599924 0.951773 0.140542
N1    N     N_R   0.499160 0.499140 0.142800 -0.113043
N2    N     N_R   0.499160 0.499180 0.857150 -0.150960
N3    N     N_3   0.591242 0.112026 0.854915 -0.454260
N4    N     N_3   0.219230 0.317631 0.871297 -0.428026
N5    N     N_3   0.903451 0.436657 0.007440 -0.470603
N6    N     N_3   0.800248 0.325802 0.775194 -0.456025
O1    O     O_R   0.500020 0.316790 0.614690 -0.621283
O2    O     O_R   0.500000 0.316760 0.385350 -0.620569
O3    O     O_R   0.316770 0.500020 0.614690 -0.623076
O4    O     O_R   0.316760 0.499980 0.385350 -0.612495
O5    O     O_R   0.500000 0.683240 0.614650 -0.616837
O6    O     O_R   0.499980 0.683210 0.385310 -0.631595
O7    O     O_R   0.683240 0.500020 0.614650 -0.632264
O8    O     O_R   0.683230 0.499980 0.385310 -0.616398
Zn1   Zn    Zn3+2 0.500010 0.500020 0.653130 0.926277
Zn2   Zn    Zn3+2 0.499990 0.499980 0.346870 0.936979

loop_
_geom_bond_atom_site_label_1
_geom_bond_atom_site_label_2
_ccdc_geom_bond_type
C12   C17   A    
C25   H2    S    
C1    C28   S    
O7    Zn1   S    
C21   C26   A    
C6    C7    S    
H7    N3    S    
H17   N6    S    
C7    H18   S    
C9    C10   A    
C7    C27   S    
H15   N5    S    
C14   H22   S    
H14   N5    S    
O3    Zn1   S    
C15   O5    A    
C6    H5    S    
C2    C3    A    
H6    N3    S    
C11   N2    A    
O4    Zn2   S    
C16   O8    A    
C13   C14   S    
C24   C25   A    
C20   N6    S    
C10   H19   S    
C10   N2    A    
C11   C13   S    
C12   C23   A    
O1    Zn1   S    
C14   H21   S    
N1    Zn2   S    
C7    N3    S    
C2    C29   A    
C13   H20   S    
C22   H10   S    
O5    Zn1   S    
C17   H23   S    
C4    O4    A    
C28   C29   A    
N2    Zn1   S    
C29   H3    S    
C8    C11   A    
C19   N5    S    
C16   C26   S    
C5    C6    S    
C24   H1    S    
C9    C22   S    
C16   O7    A    
C23   C24   A    
C8    N1    A    
C15   O6    A    
C4    O3    A    
H11   N4    S    
C13   N4    S    
C3    C15   S    
C20   C21   A    
H13   N4    S    
C17   C18   A    
C18   C19   A    
C1    O1    A    
O2    Zn2   S    
C27   C28   A    
O6    Zn2   S    
C4    C23   S    
H16   N6    S    
C8    C14   S    
C9    N1    A    
C18   H24   S    
C3    C5    A    
C25   C26   A    
C5    C27   A    
C22   H8    S    
C12   C21   A    
C6    H12   S    
C19   C20   A    
C2    H4    S    
O8    Zn2   S    
C22   H9    S    
C1    O2    A    
