data_mof_unit_43213.cif
_audit_creation_date              2012-10-26T21:25:51-0400
_audit_creation_method            fapswitch 2.2
_symmetry_space_group_name_H-M    P1
_symmetry_Int_Tables_number       1
_space_group_crystal_system       triclinic
_cell_length_a                    10.831083
_cell_length_b                    10.86789
_cell_length_c                    12.725574
_cell_angle_alpha                 93.056555
_cell_angle_beta                  93.359194
_cell_angle_gamma                 88.409506
_cell_volume                      1492.78330693

loop_
_atom_site_label
_atom_site_type_symbol
_atom_type_description
_atom_site_fract_x
_atom_site_fract_y
_atom_site_fract_z
_atom_type_partial_charge
C1    C     C_R   0.261992 0.496756 0.500264 0.546596
C2    C     C_R   0.792346 0.730229 0.359731 -0.071593
C3    C     C_R   0.136445 0.375681 0.667203 0.044546
C4    C     C_R   0.863555 0.624319 0.332797 0.044546
C5    C     C_R   0.127640 0.413177 0.773887 -0.094032
C6    C     C_R   0.872358 0.586822 0.226113 -0.094032
C7    C     C_R   0.190547 0.346483 0.852320 -0.121150
C8    C     C_R   0.809451 0.653517 0.147680 -0.121150
C9    C     C_R   0.261524 0.241514 0.824852 -0.110816
C10   C     C_R   0.738473 0.758486 0.175148 -0.110815
C11   C     C_R   0.940552 0.454047 0.583358 -0.146770
C12   C     C_R   0.738008 0.503243 0.499736 0.546596
C13   C     C_R   0.059448 0.545952 0.416642 -0.146770
C14   C     C_R   0.871687 0.506273 0.499780 0.007249
C15   C     C_R   0.128313 0.493726 0.500220 0.007249
C16   C     C_R   0.501738 0.262079 0.500819 0.544802
C17   C     C_R   0.498262 0.737921 0.499181 0.544802
C18   C     C_R   0.931299 0.555201 0.416364 -0.030691
C19   C     C_R   0.068701 0.444798 0.583636 -0.030690
C20   C     C_2   0.475219 0.459079 0.030685 -0.176972
C21   C     C_2   0.524781 0.540921 0.969314 -0.176972
C22   C     C_1   0.521544 0.527221 0.852925 0.141836
C23   C     C_R   0.500232 0.871473 0.497645 -0.033235
C24   C     C_1   0.478456 0.472779 0.147075 0.141836
C25   C     C_R   0.884420 0.176537 0.702432 -0.117031
C26   C     C_R   0.115580 0.823462 0.297569 -0.117031
C27   C     C_R   0.797703 0.129905 0.626047 -0.091064
C28   C     C_R   0.202298 0.870093 0.373954 -0.091064
C29   C     C_R   0.671792 0.130915 0.646664 0.055050
C30   C     C_R   0.328208 0.869085 0.353336 0.055050
C31   C     C_R   0.633936 0.180139 0.744305 -0.046524
C32   C     C_R   0.366064 0.819863 0.255694 -0.046524
C33   C     C_R   0.720550 0.230565 0.819079 -0.104034
C34   C     C_R   0.499769 0.128526 0.502355 -0.033235
C35   C     C_R   0.279450 0.769436 0.180920 -0.104034
C36   C     C_R   0.845889 0.228153 0.798385 -0.107007
C37   C     C_R   0.154110 0.771846 0.201616 -0.107006
C38   C     C_R   0.583444 0.936240 0.568268 -0.054646
C39   C     C_R   0.416557 0.063759 0.431732 -0.054646
C40   C     C_1   0.673295 0.870524 0.635536 0.210707
C41   C     C_1   0.326705 0.129476 0.364464 0.210708
C42   C     C_R   0.417455 0.934868 0.428199 -0.063407
C43   C     C_R   0.582546 0.065132 0.571800 -0.063407
C44   C     C_R   0.269659 0.202948 0.718906 -0.108313
C45   C     C_R   0.730340 0.797052 0.281095 -0.108311
C46   C     C_R   0.207654 0.269771 0.640270 -0.071593
Cu1   Cu    Cu3+1 0.492140 0.492110 0.395880 1.011097
Cu2   Cu    Cu3+1 0.507860 0.507890 0.604120 1.011097
H1    H     H_    0.913221 0.265227 0.857001 0.116661
H2    H     H_    0.431430 0.378107 0.993337 0.122377
H3    H     H_    0.981515 0.172025 0.687302 0.127097
H4    H     H_    0.018486 0.827972 0.312700 0.127096
H5    H     H_    0.828890 0.089162 0.552382 0.103592
H6    H     H_    0.171112 0.910836 0.447619 0.103592
H7    H     H_    0.537828 0.178400 0.762811 0.108909
H8    H     H_    0.462171 0.821602 0.237187 0.108908
H9    H     H_    0.690773 0.269391 0.893800 0.108033
H10   H     H_    0.309226 0.730611 0.106198 0.108033
H11   H     H_    0.309884 0.189833 0.885669 0.106102
H12   H     H_    0.086779 0.734773 0.143000 0.116661
H13   H     H_    0.690113 0.810167 0.114332 0.106101
H14   H     H_    0.323644 0.121047 0.697610 0.106823
H15   H     H_    0.676355 0.878954 0.302391 0.106823
H16   H     H_    0.213955 0.238424 0.558527 0.104684
H17   H     H_    0.786046 0.761576 0.441473 0.104684
H18   H     H_    0.072621 0.494107 0.796133 0.110450
H19   H     H_    0.927377 0.505892 0.203867 0.110449
H20   H     H_    0.183975 0.375983 0.934434 0.108812
H21   H     H_    0.816022 0.624016 0.065566 0.108812
H22   H     H_    0.893872 0.416291 0.646852 0.143630
H23   H     H_    0.106128 0.583708 0.353148 0.143630
H24   H     H_    0.568570 0.621893 0.006662 0.122376
N1    N     N_1   0.480320 0.480250 0.239400 -0.181150
N2    N     N_1   0.519680 0.519750 0.760600 -0.181150
N3    N     N_1   0.744915 0.818350 0.688932 -0.297078
N4    N     N_1   0.255085 0.181649 0.311068 -0.297078
O1    O     O_R   0.313000 0.493330 0.412070 -0.494521
O2    O     O_R   0.687000 0.506670 0.587930 -0.494521
O3    O     O_R   0.326280 0.506660 0.587930 -0.490257
O4    O     O_R   0.673720 0.493340 0.412070 -0.490257
O5    O     O_R   0.493370 0.312980 0.412070 -0.486673
O6    O     O_R   0.506630 0.687020 0.587930 -0.486673
O7    O     O_R   0.506650 0.326310 0.587930 -0.502088
O8    O     O_R   0.493350 0.673690 0.412070 -0.502087

loop_
_geom_bond_atom_site_label_1
_geom_bond_atom_site_label_2
_ccdc_geom_bond_type
C38   C40   S    
C27   C29   A    
C1    O1    A    
C14   C18   A    
C2    H17   S    
C11   H22   S    
C39   C41   S    
C15   C19   A    
C11   C19   A    
C8    H21   S    
C17   C23   S    
C23   C42   A    
C13   C18   A    
C35   H10   S    
Cu2   O3    S    
C35   C37   A    
C11   C14   A    
C24   N1    T    
C33   C36   A    
C17   O6    A    
Cu2   O2    S    
C20   H2    S    
C16   C34   S    
C7    H20   S    
C20   C24   S    
C12   O2    A    
C31   C33   A    
C3    C19   S    
C1    C15   S    
C4    C18   S    
C21   C22   S    
C29   C43   S    
Cu1   O4    S    
Cu2   O7    S    
C44   C46   A    
C39   C42   A    
C2    C45   A    
C21   H24   S    
C34   C39   A    
C32   C35   A    
Cu2   N2    S    
Cu1   N1    S    
C4    C6    A    
C5    C7    A    
C28   H6    S    
C6    C8    A    
C13   H23   S    
C44   H14   S    
C45   H15   S    
C16   O7    A    
C46   H16   S    
C9    H11   S    
C2    C4    A    
C25   H3    S    
C26   H4    S    
Cu1   Cu2   S    
C10   C45   A    
Cu1   O8    S    
C6    H19   S    
C12   C14   S    
C13   C15   A    
C1    O3    A    
C10   H13   S    
Cu1   O1    S    
C7    C9    A    
C9    C44   A    
C33   H9    S    
C34   C43   A    
C5    H18   S    
C3    C5    A    
C27   H5    S    
C26   C37   A    
C25   C27   A    
C23   C38   A    
C3    C46   A    
C26   C28   A    
C40   N3    T    
C17   O8    A    
C28   C30   A    
C38   C43   A    
C29   C31   A    
C41   N4    T    
C30   C32   A    
C12   O4    A    
C16   O5    A    
Cu2   O6    S    
Cu1   O5    S    
C37   H12   S    
C25   C36   A    
C20   C21   D    
C8    C10   A    
C22   N2    T    
C30   C42   S    
C31   H7    S    
C32   H8    S    
C36   H1    S    
