data_mof_unit_41888.cif
_audit_creation_date              2012-12-11T14:07:40-0500
_audit_creation_method            fapswitch 2.2
_symmetry_space_group_name_H-M    P1
_symmetry_Int_Tables_number       1
_space_group_crystal_system       triclinic
_cell_length_a                    19.759617
_cell_length_b                    17.137711
_cell_length_c                    15.375536
_cell_angle_alpha                 89.999732
_cell_angle_beta                  53.526326
_cell_angle_gamma                 90.000054
_cell_volume                      4186.85490718

loop_
_atom_site_label
_atom_site_type_symbol
_atom_type_description
_atom_site_fract_x
_atom_site_fract_y
_atom_site_fract_z
_atom_type_partial_charge
C1    C     C_R   0.374517 0.196626 0.996084 -0.118972
C2    C     C_R   0.705714 0.848357 0.989654 0.160723
C3    C     C_R   0.205714 0.651642 0.989652 0.160724
C4    C     C_R   0.205713 0.348358 0.989655 0.160722
C5    C     C_R   0.612177 0.818297 0.694711 -0.001906
C6    C     C_R   0.612170 0.181709 0.694716 -0.001902
C7    C     C_R   0.112173 0.318293 0.694715 -0.001902
C8    C     C_R   0.112187 0.681703 0.694710 -0.001891
C9    C     C_3   0.199948 0.134666 0.518612 -0.398581
C10   C     C_3   0.199961 0.865344 0.518633 -0.398587
C11   C     C_3   0.699902 0.634670 0.518597 -0.398576
C12   C     C_R   0.374515 0.803374 0.996085 -0.118968
C13   C     C_3   0.699961 0.365346 0.518630 -0.398580
C14   C     C_3   0.144095 0.182104 0.623334 -0.409172
C15   C     C_3   0.144150 0.817899 0.623355 -0.409197
C16   C     C_3   0.644019 0.682110 0.623316 -0.409127
C17   C     C_3   0.644146 0.317904 0.623355 -0.409205
C18   C     C_3   0.310820 0.241333 0.442623 -0.404310
C19   C     C_3   0.310816 0.758659 0.442589 -0.404294
C20   C     C_3   0.810818 0.741296 0.442648 -0.404295
C21   C     C_3   0.810810 0.258655 0.442599 -0.404305
C22   C     C_3   0.698844 0.744199 0.411016 -0.404963
C23   C     C_R   0.874518 0.696627 0.996081 -0.118976
C24   C     C_3   0.698776 0.255882 0.411073 -0.404975
C25   C     C_3   0.198814 0.244157 0.411046 -0.404966
C26   C     C_3   0.198775 0.755881 0.411075 -0.404976
C27   C     C_3   0.257091 0.190708 0.421477 0.403534
C28   C     C_3   0.257078 0.809307 0.421482 0.403538
C29   C     C_3   0.757082 0.690710 0.421472 0.403525
C30   C     C_3   0.757079 0.309306 0.421483 0.403537
C31   C     C_3   0.660632 0.770541 0.597206 0.405404
C32   C     C_3   0.660626 0.229470 0.597215 0.405404
C33   C     C_3   0.160633 0.270537 0.597211 0.405409
C34   C     C_R   0.874516 0.303373 0.996084 -0.118969
C35   C     C_3   0.160637 0.729466 0.597211 0.405401
C36   C     C_3   0.754141 0.788949 0.545087 -0.392718
C37   C     C_3   0.754129 0.210941 0.544976 -0.392722
C38   C     C_3   0.254138 0.289014 0.545032 -0.392717
C39   C     C_3   0.254142 0.710944 0.544967 -0.392735
C40   C     C_R   0.354440 0.823803 0.218887 -0.141384
C41   C     C_R   0.354453 0.176209 0.218882 -0.141381
C42   C     C_R   0.854444 0.323800 0.218887 -0.141388
C43   C     C_R   0.854448 0.676204 0.218878 -0.141357
C44   C     C_3   0.640695 0.790696 0.515892 -0.409596
C45   C     C_R   0.664872 0.911626 0.059129 -0.157067
C46   C     C_3   0.640566 0.209442 0.515993 -0.409557
C47   C     C_3   0.140632 0.290624 0.515945 -0.409581
C48   C     C_3   0.140575 0.709434 0.515992 -0.409555
C49   C     C_2   0.277932 0.690534 0.970370 -0.205948
C50   C     C_2   0.277927 0.309463 0.970381 -0.205946
C51   C     C_2   0.777941 0.190529 0.970356 -0.205950
C52   C     C_2   0.777932 0.809465 0.970373 -0.205947
C53   C     C_2   0.807357 0.255513 0.910630 -0.215818
C54   C     C_2   0.807354 0.744487 0.910637 -0.215819
C55   C     C_2   0.307349 0.755517 0.910642 -0.215820
C56   C     C_R   0.664877 0.088371 0.059121 -0.157058
C57   C     C_2   0.307354 0.244488 0.910637 -0.215822
C58   C     C_R   0.364464 0.889698 0.897829 -0.155820
C59   C     C_R   0.364466 0.110304 0.897827 -0.155813
C60   C     C_R   0.864467 0.389697 0.897826 -0.155816
C61   C     C_R   0.864466 0.610303 0.897827 -0.155814
C62   C     C_R   0.365893 0.087673 0.316494 -0.134633
C63   C     C_R   0.365883 0.912338 0.316494 -0.134615
C64   C     C_R   0.865878 0.587667 0.316495 -0.134628
C65   C     C_R   0.865888 0.412334 0.316494 -0.134620
C66   C     C_R   0.345952 0.185902 0.934866 0.154947
C67   C     C_R   0.164871 0.411626 0.059131 -0.157066
C68   C     C_R   0.345949 0.814099 0.934868 0.154947
C69   C     C_R   0.845953 0.685902 0.934863 0.154945
C70   C     C_R   0.845953 0.314097 0.934863 0.154944
C71   C     C_R   0.316481 0.852597 0.322234 -0.005086
C72   C     C_R   0.316500 0.147421 0.322229 -0.005078
C73   C     C_R   0.816487 0.352592 0.322233 -0.005082
C74   C     C_R   0.816487 0.647418 0.322227 -0.005093
C75   C     C_R   0.657682 0.180182 0.958517 -0.126761
C76   C     C_R   0.657677 0.819813 0.958527 -0.126763
C77   C     C_R   0.157677 0.680185 0.958526 -0.126764
C78   C     C_R   0.164874 0.588372 0.059127 -0.157063
C79   C     C_R   0.157679 0.319816 0.958523 -0.126764
C80   C     C_R   0.602639 0.802341 0.789581 -0.147871
C81   C     C_R   0.602629 0.197662 0.789589 -0.147896
C82   C     C_R   0.102633 0.302339 0.789586 -0.147886
C83   C     C_R   0.102640 0.697659 0.789585 -0.147902
C84   C     C_R   0.594787 0.104025 0.694814 -0.143527
C85   C     C_R   0.594780 0.895978 0.694819 -0.143552
C86   C     C_R   0.094796 0.604020 0.694810 -0.143538
C87   C     C_R   0.094783 0.395976 0.694817 -0.143541
C88   C     C_R   0.705721 0.151638 0.989641 0.160718
H1    H     H_    0.383709 0.251399 0.022404 0.078178
H2    H     H_    0.576654 0.331565 0.662971 0.158529
H3    H     H_    0.076607 0.168479 0.662869 0.158544
H4    H     H_    0.076657 0.831554 0.662972 0.158531
H5    H     H_    0.159165 0.164159 0.679490 0.145569
H6    H     H_    0.159299 0.835808 0.679445 0.145587
H7    H     H_    0.659004 0.664119 0.679543 0.145546
H8    H     H_    0.659296 0.335811 0.679444 0.145589
H9    H     H_    0.352382 0.203909 0.451651 0.153025
H10   H     H_    0.352374 0.796071 0.451639 0.153038
H11   H     H_    0.852377 0.703848 0.451654 0.153005
H12   H     H_    0.383705 0.748601 0.022409 0.078178
H13   H     H_    0.852365 0.296066 0.451655 0.153040
H14   H     H_    0.769554 0.775342 0.602371 0.153858
H15   H     H_    0.769617 0.224397 0.602222 0.153873
H16   H     H_    0.269590 0.275486 0.602295 0.153867
H17   H     H_    0.269632 0.724405 0.602209 0.153874
H18   H     H_    0.736169 0.786588 0.343761 0.145470
H19   H     H_    0.736058 0.213461 0.343849 0.145508
H20   H     H_    0.236113 0.286563 0.343806 0.145488
H21   H     H_    0.236056 0.713465 0.343846 0.145506
H22   H     H_    0.660782 0.708696 0.393985 0.156919
H23   H     H_    0.883713 0.751400 0.022397 0.078177
H24   H     H_    0.660758 0.291426 0.394009 0.156892
H25   H     H_    0.160776 0.208628 0.394002 0.156908
H26   H     H_    0.160749 0.791424 0.394024 0.156894
H27   H     H_    0.573707 0.777238 0.552170 0.155259
H28   H     H_    0.573600 0.223055 0.552330 0.155315
H29   H     H_    0.073655 0.277084 0.552253 0.155287
H30   H     H_    0.073606 0.723038 0.552335 0.155314
H31   H     H_    0.651219 0.853552 0.494165 0.144736
H32   H     H_    0.650917 0.146580 0.494310 0.144684
H33   H     H_    0.151065 0.353484 0.494241 0.144710
H34   H     H_    0.883706 0.248600 0.022408 0.078177
H35   H     H_    0.150936 0.646573 0.494303 0.144686
H36   H     H_    0.352192 0.281376 0.373189 0.155738
H37   H     H_    0.352193 0.718638 0.373129 0.155725
H38   H     H_    0.852193 0.781354 0.373236 0.155752
H39   H     H_    0.852189 0.218634 0.373141 0.155725
H40   H     H_    0.337773 0.772770 0.194589 0.088683
H41   H     H_    0.337793 0.227241 0.194576 0.088679
H42   H     H_    0.837776 0.272768 0.194588 0.088684
H43   H     H_    0.837789 0.727235 0.194566 0.088677
H44   H     H_    0.767079 0.852183 0.524920 0.156882
H45   H     H_    0.159968 0.099406 0.504561 0.155902
H46   H     H_    0.766984 0.147717 0.524706 0.156882
H47   H     H_    0.267028 0.352244 0.524815 0.156881
H48   H     H_    0.267002 0.647720 0.524698 0.156881
H49   H     H_    0.296210 0.672778 0.021350 0.120553
H50   H     H_    0.296192 0.327211 0.021377 0.120553
H51   H     H_    0.796219 0.172772 0.021335 0.120555
H52   H     H_    0.796205 0.827218 0.021359 0.120553
H53   H     H_    0.790813 0.272248 0.857479 0.123496
H54   H     H_    0.790813 0.727756 0.857480 0.123496
H55   H     H_    0.290805 0.772251 0.857491 0.123496
H56   H     H_    0.159952 0.900600 0.504628 0.155917
H57   H     H_    0.290821 0.227762 0.857472 0.123497
H58   H     H_    0.359651 0.915698 0.837578 0.089021
H59   H     H_    0.359654 0.084305 0.837574 0.089022
H60   H     H_    0.859655 0.415696 0.837573 0.089022
H61   H     H_    0.859653 0.584303 0.837575 0.089022
H62   H     H_    0.667349 0.231222 0.911304 0.087163
H63   H     H_    0.667340 0.768771 0.911322 0.087162
H64   H     H_    0.167340 0.731227 0.911318 0.087163
H65   H     H_    0.167344 0.268775 0.911315 0.087165
H66   H     H_    0.606354 0.746348 0.818706 0.083948
H67   H     H_    0.659942 0.599418 0.504506 0.155885
H68   H     H_    0.606321 0.253656 0.818731 0.083970
H69   H     H_    0.106337 0.246346 0.818721 0.083961
H70   H     H_    0.106334 0.753651 0.818727 0.083971
H71   H     H_    0.590768 0.072430 0.637313 0.082764
H72   H     H_    0.590732 0.927569 0.637339 0.082786
H73   H     H_    0.090778 0.572425 0.637309 0.082768
H74   H     H_    0.090750 0.427569 0.637326 0.082774
H75   H     H_    0.681780 0.938249 0.107193 0.087397
H76   H     H_    0.681787 0.061747 0.107182 0.087396
H77   H     H_    0.181777 0.438248 0.107197 0.087396
H78   H     H_    0.659956 0.400601 0.504619 0.155919
H79   H     H_    0.181783 0.561748 0.107188 0.087397
H80   H     H_    0.237510 0.093134 0.529455 0.142350
H81   H     H_    0.237536 0.906880 0.529447 0.142335
H82   H     H_    0.737444 0.593133 0.529469 0.142366
H83   H     H_    0.737536 0.406882 0.529444 0.142331
H84   H     H_    0.363179 0.061764 0.382215 0.079028
H85   H     H_    0.363172 0.938247 0.382212 0.079027
H86   H     H_    0.863150 0.561756 0.382226 0.079027
H87   H     H_    0.863180 0.438241 0.382211 0.079027
H88   H     H_    0.576533 0.668534 0.662770 0.158558
N1    N     N_R   0.408680 0.130160 0.995800 -0.041599
N2    N     N_R   0.403730 0.078230 0.935950 -0.038652
N3    N     N_R   0.903730 0.421770 0.935950 -0.038652
N4    N     N_R   0.903730 0.578230 0.935950 -0.038652
N5    N     N_R   0.426630 0.075970 0.212960 -0.034165
N6    N     N_R   0.426630 0.924030 0.212960 -0.034169
N7    N     N_R   0.926630 0.575970 0.212960 -0.034167
N8    N     N_R   0.926630 0.424030 0.212960 -0.034167
N9    N     N_R   0.591320 0.134600 0.004200 -0.048309
N10   N     N_R   0.591320 0.865400 0.004200 -0.048309
N11   N     N_R   0.091320 0.634600 0.004200 -0.048310
N12   N     N_R   0.408680 0.869840 0.995800 -0.041598
N13   N     N_R   0.091320 0.365400 0.004200 -0.048309
N14   N     N_R   0.578320 0.867660 0.846880 -0.033357
N15   N     N_R   0.578320 0.132340 0.846880 -0.033359
N16   N     N_R   0.078320 0.367660 0.846880 -0.033358
N17   N     N_R   0.078320 0.632340 0.846880 -0.033358
N18   N     N_R   0.573370 0.074390 0.787040 -0.032848
N19   N     N_R   0.573370 0.925610 0.787040 -0.032849
N20   N     N_R   0.073370 0.574390 0.787040 -0.032846
N21   N     N_R   0.073370 0.425610 0.787040 -0.032848
N22   N     N_R   0.596270 0.927870 0.064040 -0.040808
N23   N     N_R   0.908680 0.630160 0.995800 -0.041600
N24   N     N_R   0.596270 0.072130 0.064040 -0.040808
N25   N     N_R   0.096270 0.427870 0.064040 -0.040807
N26   N     N_R   0.096270 0.572130 0.064040 -0.040808
N27   N     N_R   0.908680 0.369840 0.995800 -0.041599
N28   N     N_R   0.421680 0.867580 0.153120 -0.036625
N29   N     N_R   0.421680 0.132420 0.153120 -0.036622
N30   N     N_R   0.921680 0.367580 0.153120 -0.036624
N31   N     N_R   0.921680 0.632420 0.153120 -0.036626
N32   N     N_R   0.403730 0.921770 0.935950 -0.038652
Ni1   Ni    Ni4+2 0.500000 0.131190 0.000000 0.204876
Ni2   Ni    Ni4+2 0.500000 0.868810 0.000000 0.204878
Ni3   Ni    Ni4+2 0.000000 0.631190 0.000000 0.204874
Ni4   Ni    Ni4+2 1.000000 0.368810 0.000000 0.204877
Ni5   Ni    Ni4+2 0.488650 1.000000 0.862740 0.205539
Ni6   Ni    Ni4+2 0.988650 0.500000 0.862740 0.205541
Ni7   Ni    Ni4+2 0.511350 1.000000 0.137260 0.207416
Ni8   Ni    Ni4+2 0.011350 0.500000 0.137260 0.207417

loop_
_geom_bond_atom_site_label_1
_geom_bond_atom_site_label_2
_ccdc_geom_bond_type
C6    C32   S    
N32   Ni5   S    
C40   C71   A    
C49   H49   S    
C8    C83   A    
N7    N31   A    
C23   C69   A    
C13   H83   S    
N5    N29   A    
C24   H24   S    
C57   C66   S    
C48   H35   S    
C55   C68   S    
C3    C49   S    
C65   C73   A    
C16   C31   S    
C20   H38   S    
C12   C68   A    
N11   N26   A    
C20   H11   S    
C78   H79   S    
C81   H68   S    
N6    N28   A    
C19   C39   S    
C22   C29   S    
C57   H57   S    
C10   C15   S    
C36   H44   S    
C59   C66   A    
C56   C88   A    
C83   H70   S    
C53   C70   S    
C75   H62   S    
C10   C28   S    
C12   N12   A    
C23   N23   A    
N24   Ni7   S    
N8    N30   A    
C36   H14   S    
N1    Ni1   S    
C46   H28   S    
N16   Ni4   S    
C81   N15   A    
C38   H16   S    
C86   N20   A    
C15   H4    S    
C64   N7    A    
N12   Ni2   S    
C19   H10   S    
C7    C87   A    
C40   N28   A    
C44   H27   S    
C84   N18   A    
C22   H22   S    
C25   H20   S    
C18   H9    S    
C58   N32   A    
C21   H39   S    
C34   C70   A    
C14   H5    S    
N23   Ni3   S    
C11   H67   S    
C20   C29   S    
C21   H13   S    
C67   H77   S    
C43   C74   A    
C31   C36   S    
C34   H34   S    
C63   N6    A    
C65   H87   S    
N31   Ni3   S    
C7    C33   S    
N29   Ni1   S    
C75   N9    A    
C82   N16   A    
N18   Ni5   S    
N22   Ni7   S    
C77   H64   S    
C15   C35   S    
C84   H71   S    
C52   C54   D    
C63   H85   S    
C39   H48   S    
C59   N2    A    
C2    C45   A    
C59   H59   S    
C22   C44   S    
C6    C84   A    
C31   C44   S    
C17   H2    S    
C43   N31   A    
C13   C30   S    
C55   H55   S    
C4    C79   A    
N5    Ni7   S    
C23   H23   S    
C17   H8    S    
C30   C73   S    
C85   N19   A    
C76   N10   A    
C48   H30   S    
C29   C74   S    
C44   H31   S    
N13   N25   A    
C45   N22   A    
C38   H47   S    
C19   H37   S    
C11   H82   S    
C4    C50   S    
C10   H81   S    
C8    C35   S    
C83   N17   A    
C35   C39   S    
C9    C14   S    
C26   H26   S    
N25   Ni8   S    
C14   C33   S    
C67   N25   A    
C25   H25   S    
C79   H65   S    
N20   Ni6   S    
C11   C16   S    
C18   C38   S    
C60   C70   A    
C34   N27   A    
N17   N20   A    
C49   C55   D    
C7    C82   A    
C50   H50   S    
C1    C66   A    
C46   H32   S    
C42   H42   S    
C24   H19   S    
C10   H56   S    
C32   C37   S    
C5    C80   A    
C19   C28   S    
C26   H21   S    
C35   C48   S    
C2    C52   S    
N14   N19   A    
N15   Ni1   S    
C41   C72   A    
C15   H6    S    
C58   C68   A    
C85   H72   S    
C63   C71   A    
N10   Ni2   S    
N26   Ni8   S    
N6    Ni7   S    
C77   N11   A    
N9    Ni1   S    
N27   Ni4   S    
C28   C71   S    
C87   N21   A    
C64   H86   S    
C3    C77   A    
C60   N3    A    
C2    C76   A    
C9    C27   S    
C37   H15   S    
C80   N14   A    
N11   Ni3   S    
C61   C69   A    
N7    Ni8   S    
C39   H17   S    
C25   C47   S    
N12   N32   A    
C42   C73   A    
C1    H1    S    
N2    Ni5   S    
C54   H54   S    
C45   H75   S    
C50   C57   D    
C32   C46   S    
C9    H80   S    
C9    H45   S    
C18   C27   S    
C78   N26   A    
N28   Ni2   S    
N3    N27   A    
N13   Ni4   S    
C51   C88   S    
C5    C31   S    
C4    C67   A    
C58   H58   S    
C80   H66   S    
C26   C48   S    
C25   C27   S    
C62   H84   S    
C21   C30   S    
C56   H76   S    
C26   C28   S    
C33   C38   S    
C76   H63   S    
C13   C17   S    
C62   C72   A    
C24   C46   S    
C43   H43   S    
N14   Ni2   S    
N15   N18   A    
C5    C85   A    
N4    N23   A    
C22   H18   S    
N16   N21   A    
C62   N5    A    
C41   H41   S    
C16   H7    S    
C8    C86   A    
C16   H88   S    
C13   H78   S    
C82   H69   S    
C54   C69   S    
C61   H61   S    
C33   C47   S    
N3    Ni6   S    
N4    Ni6   S    
C52   H52   S    
C42   N30   A    
C53   H53   S    
N9    N24   A    
C41   N29   A    
C24   C30   S    
C14   H3    S    
C12   H12   S    
N17   Ni3   S    
N8    Ni8   S    
C86   H73   S    
N21   Ni6   S    
C47   H33   S    
C20   C36   S    
N30   Ni4   S    
C75   C88   A    
C47   H29   S    
C87   H74   S    
C21   C37   S    
C11   C29   S    
C61   N4    A    
N1    N2    A    
C79   N13   A    
C18   H36   S    
C6    C81   A    
C17   C32   S    
C64   C74   A    
C37   H46   S    
N10   N22   A    
C60   H60   S    
C51   C53   D    
C3    C78   A    
C1    N1    A    
C27   C72   S    
N19   Ni5   S    
C51   H51   S    
C56   N24   A    
C65   N8    A    
C40   H40   S    
