data_mof_unit_66059.cif
_audit_creation_date              2012-12-10T20:48:27-0500
_audit_creation_method            fapswitch 2.2
_symmetry_space_group_name_H-M    P1
_symmetry_Int_Tables_number       1
_space_group_crystal_system       triclinic
_cell_length_a                    16.054325
_cell_length_b                    19.144421
_cell_length_c                    19.254632
_cell_angle_alpha                 94.642595
_cell_angle_beta                  95.147422
_cell_angle_gamma                 90.408773
_cell_volume                      5874.10329386

loop_
_atom_site_label
_atom_site_type_symbol
_atom_type_description
_atom_site_fract_x
_atom_site_fract_y
_atom_site_fract_z
_atom_type_partial_charge
Br1   Br    Br    0.489048 0.741077 0.351392 0.005024
C1    C     C_R   0.508680 0.310442 0.492980 0.516433
C2    C     C_R   0.460774 0.805871 0.562886 -0.167365
C3    C     C_R   0.443322 0.119696 0.464243 -0.069215
C4    C     C_R   0.489648 0.689336 0.505628 0.517560
C5    C     C_R   0.443089 0.192246 0.460870 -0.146731
C6    C     C_R   0.511820 0.087291 0.499148 0.241054
C7    C     C_R   0.510683 0.233571 0.492697 0.028850
C8    C     C_R   0.579378 0.201021 0.526443 -0.138975
C9    C     C_R   0.580173 0.128416 0.528825 -0.097594
C10   C     C_R   0.486550 0.490534 0.233163 0.028560
C11   C     C_R   0.542663 0.531189 0.200976 -0.143551
C12   C     C_1   0.111324 0.485832 0.484170 0.024575
C13   C     C_R   0.537759 0.530895 0.128406 -0.082699
C14   C     C_R   0.476136 0.489816 0.086544 0.228438
C15   C     C_R   0.419831 0.449840 0.118805 -0.102127
C16   C     C_R   0.507684 0.507070 0.689840 0.543936
C17   C     C_R   0.425176 0.449691 0.191513 -0.141745
C18   C     C_R   0.441364 0.509276 0.874047 -0.079487
C19   C     C_R   0.434817 0.506394 0.800769 0.021231
C20   C     C_R   0.520215 0.511603 0.912880 0.200730
C21   C     C_R   0.509130 0.507791 0.766144 0.010063
C22   C     C_R   0.587231 0.510959 0.805324 -0.160361
C23   C     C_1   0.888773 0.518587 0.521676 -0.028491
C24   C     C_R   0.592552 0.513474 0.877984 -0.103630
C25   C     C_R   0.491260 0.492176 0.309886 0.511033
C26   C     C_R   0.724074 0.509822 0.509970 0.510586
C27   C     C_R   0.275961 0.490130 0.490129 0.522820
C28   C     C_1   0.813526 0.514669 0.515648 0.032483
C29   C     C_2   0.979034 0.523243 0.530037 0.050508
C30   C     C_2   0.021397 0.485602 0.482765 -0.136932
C31   C     C_2   0.349905 0.498548 0.762950 0.591771
C32   C     C_2   0.019287 0.568831 0.590629 0.608554
C33   C     C_2   0.427741 0.918572 0.628652 0.610894
C34   C     C_1   0.186519 0.486979 0.486168 0.073137
C35   C     C_2   0.474174 0.905612 0.372199 0.611794
C36   C     C_R   0.478637 0.765475 0.502237 -0.018292
C37   C     C_R   0.481313 0.797449 0.438759 0.001143
C38   C     C_R   0.469896 0.870392 0.437851 0.047723
C39   C     C_R   0.453313 0.910529 0.499851 0.173824
C40   C     C_R   0.447149 0.878130 0.562612 0.035522
H1    H     H_    0.987153 0.453400 0.440367 0.113475
H2    H     H_    0.390367 0.089051 0.439261 0.172637
H3    H     H_    0.457227 0.780431 0.610846 0.183393
H4    H     H_    0.632594 0.231691 0.550960 0.145092
H5    H     H_    0.633735 0.104123 0.554859 0.137358
H6    H     H_    0.226724 0.518719 0.763514 0.356173
H7    H     H_    0.124651 0.604566 0.648155 0.353742
H8    H     H_    0.387943 0.008582 0.676162 0.348504
H9    H     H_    0.424479 0.976259 0.308631 0.343844
H10   H     H_    0.384879 0.508323 0.900824 0.180090
H11   H     H_    0.371820 0.418430 0.087352 0.133488
H12   H     H_    0.380797 0.418215 0.215083 0.144703
H13   H     H_    0.644436 0.512351 0.779531 0.143385
H14   H     H_    0.581626 0.563300 0.105361 0.148546
H15   H     H_    0.653459 0.515985 0.907314 0.139437
H16   H     H_    0.590394 0.563394 0.231866 0.149413
H17   H     H_    0.389463 0.216087 0.434442 0.144322
N1    N     N_2   0.445812 0.983999 0.499024 -0.151646
N2    N     N_2   0.515675 0.013642 0.502981 -0.210561
N3    N     N_2   0.467557 0.488340 0.012402 -0.237670
N4    N     N_2   0.529318 0.512571 0.986932 -0.237915
O1    O     O_3   0.500000 0.500000 0.500000 -0.451007
O2    O     O_R   0.688130 0.469010 0.547620 -0.538208
O3    O     O_R   0.315580 0.449250 0.449280 -0.548011
O4    O     O_R   0.680710 0.547310 0.468650 -0.531704
O5    O     O_R   0.315580 0.534430 0.534450 -0.496834
O6    O     O_2   0.339159 0.464682 0.706160 -0.492432
O7    O     O_R   0.281282 0.527977 0.793811 -0.688740
O8    O     O_2   0.975388 0.603926 0.628418 -0.491020
O9    O     O_R   0.106191 0.571802 0.605429 -0.679950
O10   O     O_2   0.436270 0.891389 0.684174 -0.504412
O11   O     O_R   0.398800 0.987273 0.627928 -0.652104
O12   O     O_R   0.456860 0.545290 0.655940 -0.502212
O13   O     O_2   0.530707 0.892343 0.334885 -0.488744
O14   O     O_R   0.414372 0.955237 0.353859 -0.681277
O15   O     O_R   0.446440 0.450430 0.339790 -0.545465
O16   O     O_R   0.557290 0.347960 0.537250 -0.539079
O17   O     O_R   0.539410 0.656320 0.467010 -0.523268
O18   O     O_R   0.456880 0.340240 0.450910 -0.540046
O19   O     O_R   0.446420 0.655480 0.544820 -0.541461
O20   O     O_R   0.557280 0.467820 0.657110 -0.538438
O21   O     O_R   0.539420 0.536460 0.347160 -0.542596
Zn1   Zn    Zn3+2 0.430910 0.557800 0.557800 1.005963
Zn2   Zn    Zn3+2 0.574380 0.447110 0.559460 0.965439
Zn3   Zn    Zn3+2 0.563780 0.559000 0.446630 0.961377
Zn4   Zn    Zn3+2 0.430930 0.436090 0.436110 0.953371

loop_
_geom_bond_atom_site_label_1
_geom_bond_atom_site_label_2
_ccdc_geom_bond_type
C6    C9    A    
C10   C17   A    
C8    H4    S    
C25   O21   A    
C30   H1    S    
C4    C36   S    
C26   C28   S    
C5    H17   S    
C18   C19   A    
C24   H15   S    
C18   C20   A    
C12   C34   T    
O18   Zn4   S    
C29   C30   D    
C14   C15   A    
C16   O20   A    
C23   C28   T    
H6    O7    S    
C35   O14   S    
C17   H12   S    
C27   C34   S    
C7    C8    A    
C9    H5    S    
C4    O17   A    
C8    C9    A    
C31   O6    D    
C13   H14   S    
N1    N2    D    
C39   N1    S    
O1    Zn2   S    
C33   C40   S    
C3    C6    A    
O3    Zn4   S    
C2    H3    S    
C25   O15   A    
C27   O5    A    
C3    C5    A    
O2    Zn2   S    
O12   Zn1   S    
C38   C39   A    
C5    C7    A    
C10   C25   S    
C36   C37   A    
C1    O16   A    
C35   O13   D    
H9    O14   S    
C4    O19   A    
C14   N3    S    
O15   Zn4   S    
C20   N4    S    
C32   O8    D    
C11   H16   S    
Br1   C37   S    
O16   Zn2   S    
C39   C40   A    
C11   C13   A    
O1    Zn3   S    
C16   O12   A    
H8    O11   S    
H7    O9    S    
C33   O10   D    
C6    N2    S    
O19   Zn1   S    
C22   H13   S    
C19   C31   S    
C20   C24   A    
C2    C40   A    
C29   C32   S    
O1    Zn4   S    
C13   C14   A    
C12   C30   S    
C35   C38   S    
C1    C7    S    
C15   H11   S    
C19   C21   A    
O4    Zn3   S    
C10   C11   A    
C31   O7    S    
C3    H2    S    
O20   Zn2   S    
C16   C21   S    
O1    Zn1   S    
C27   O3    A    
C26   O4    A    
C37   C38   A    
C22   C24   A    
N3    N4    D    
C23   C29   S    
C1    O18   A    
C26   O2    A    
C32   O9    S    
C33   O11   S    
C18   H10   S    
O5    Zn1   S    
O21   Zn3   S    
C2    C36   A    
C15   C17   A    
C21   C22   A    
O17   Zn3   S    
