data_mof_unit_26755.cif
_audit_creation_date              2012-12-10T17:22:42-0500
_audit_creation_method            fapswitch 2.2
_symmetry_space_group_name_H-M    P1
_symmetry_Int_Tables_number       1
_space_group_crystal_system       triclinic
_cell_length_a                    10.63342
_cell_length_b                    10.790408
_cell_length_c                    9.625553
_cell_angle_alpha                 90.36356
_cell_angle_beta                  90.295308
_cell_angle_gamma                 92.843889
_cell_volume                      1103.0268241

loop_
_atom_site_label
_atom_site_type_symbol
_atom_type_description
_atom_site_fract_x
_atom_site_fract_y
_atom_site_fract_z
_atom_type_partial_charge
C1    C     C_R   0.493277 0.262552 0.499885 0.826723
C2    C     C_3   0.963386 0.617390 0.488065 -0.185863
C3    C     C_3   0.042240 0.548939 0.379546 -0.112109
C4    C     C_3   0.122906 0.500758 0.498798 -0.035844
C5    C     C_R   0.315743 0.120660 0.680029 -0.228744
C6    C     C_R   0.236672 0.053188 0.770854 0.032101
C7    C     C_R   0.235420 0.923664 0.767947 -0.087161
C8    C     C_R   0.313962 0.862671 0.677580 -0.218264
C9    C     C_R   0.399957 0.929875 0.591158 0.095996
C10   C     C_R   0.400041 0.060946 0.591408 0.124274
C11   C     C_R   0.482224 0.128088 0.499944 -0.072250
C12   C     C_R   0.259693 0.500483 0.499599 0.815164
C13   C     C_R   0.558031 0.066233 0.407194 -0.148571
C14   C     C_R   0.558879 0.938634 0.408001 -0.177004
C15   C     C_R   0.483326 0.870192 0.500968 -0.078741
C16   C     C_R   0.669859 0.662971 0.145553 -0.133663
C17   C     C_R   0.754943 0.740719 0.074756 -0.303372
C18   C     C_R   0.755978 0.741225 0.930943 0.018802
C19   C     C_R   0.669842 0.662858 0.858334 -0.103146
C20   C     C_R   0.583444 0.580141 0.926458 0.164104
C21   C     C_R   0.583404 0.580162 0.075710 0.195731
C22   C     C_R   0.420534 0.422988 0.071268 0.047030
C23   C     C_R   0.494293 0.736896 0.500412 0.772115
C24   C     C_R   0.420924 0.423917 0.923929 -0.061971
C25   C     C_R   0.740287 0.500016 0.500419 0.808072
C26   C     C_3   0.035829 0.384435 0.511527 -0.034758
C27   C     C_3   0.953496 0.431284 0.392480 -0.101739
C28   C     C_3   0.876971 0.499724 0.501365 -0.080821
C29   C     C_3   0.958254 0.452104 0.619401 -0.055127
C30   C     C_3   0.046293 0.569600 0.607471 -0.174757
Cu1   Cu    Cu3+1 0.499990 0.499990 0.640660 0.955936
Cu2   Cu    Cu3+1 0.500010 0.500010 0.359340 0.975920
H1    H     H_    0.913377 0.374504 0.304812 0.168285
H2    H     H_    0.172228 0.869160 0.834159 0.165981
H3    H     H_    0.304362 0.762647 0.675448 0.161063
H4    H     H_    0.621690 0.893180 0.337923 0.150707
H5    H     H_    0.676256 0.672126 0.255157 0.200309
H6    H     H_    0.820105 0.801584 0.133332 0.154659
H7    H     H_    0.673856 0.670222 0.748854 0.222720
H8    H     H_    0.356292 0.361942 0.866698 0.115847
H9    H     H_    0.086339 0.626389 0.695166 0.173559
H10   H     H_    0.930627 0.713009 0.477812 0.181081
H11   H     H_    0.079198 0.588911 0.280991 0.173647
H12   H     H_    0.620177 0.117281 0.336568 0.170140
H13   H     H_    0.307766 0.219858 0.677898 0.132051
N1    N     N_R   0.501210 0.501210 0.147910 -0.242024
N2    N     N_R   0.501250 0.501290 0.852040 -0.200279
O1    O     O_R   0.499990 0.319640 0.618810 -0.573653
O2    O     O_R   0.500000 0.319660 0.381240 -0.556200
O3    O     O_R   0.316850 0.499960 0.618770 -0.615013
O4    O     O_R   0.316860 0.499980 0.381190 -0.548777
O5    O     O_R   0.500000 0.680340 0.618760 -0.608311
O6    O     O_R   0.500010 0.680360 0.381190 -0.602534
O7    O     O_R   0.683140 0.500020 0.618810 -0.577977
O8    O     O_R   0.683150 0.500040 0.381230 -0.609814
C31   C     C_2   0.331838 0.333697 0.138029 0.904008
O9    O     O_2   0.224453 0.362625 0.162368 -0.567734
O10   O     O_R   0.367267 0.212524 0.160973 -0.749518
H14   H     H_    0.297130 0.158053 0.202939 0.368619
C32   C     C_2   0.847800 0.824870 0.857769 0.381224
H15   H     H_    0.914053 0.883916 0.917121 0.130762
O11   O     O_2   0.850893 0.828898 0.731065 -0.573174
C33   C     C_2   0.075334 0.253660 0.520229 0.325175
H16   H     H_    0.043262 0.195142 0.605294 0.091528
O12   O     O_2   0.141331 0.211527 0.429924 -0.525918
C34   C     C_2   0.911397 0.398517 0.754031 0.837624
O13   O     O_2   0.842970 0.304108 0.753435 -0.582751
O14   O     O_R   0.945887 0.457189 0.879303 -0.758625
H17   H     H_    0.907786 0.413009 0.962905 0.343676
C35   C     C_2   0.154855 0.120018 0.866711 0.379597
H18   H     H_    0.152255 0.220370 0.861963 0.064371
O15   O     O_2   0.090369 0.064408 0.952902 -0.542393

loop_
_geom_bond_atom_site_label_1
_geom_bond_atom_site_label_2
_ccdc_geom_bond_type
C34   O14   S    
C33   O12   D    
C16   C21   A    
C19   C20   A    
C1    C11   S    
Cu1   O5    S    
C7    C8    A    
C27   H1    S    
C25   C28   S    
C3    H11   S    
C26   C27   S    
C28   C29   S    
C14   H4    S    
C5    C6    A    
C31   O9    D    
C32   O11   D    
C18   C19   A    
C8    C9    A    
C30   H9    S    
C35   H18   S    
C4    C12   S    
C9    C10   A    
Cu2   O8    S    
C16   H5    S    
C15   C23   S    
C34   O13   D    
Cu1   N2    S    
C13   C14   A    
C23   O6    A    
C35   O15   D    
C25   O7    A    
O14   H17   S    
C22   C31   S    
O10   H14   S    
C5    H13   S    
C33   H16   S    
C32   H15   S    
C8    H3    S    
C26   C33   S    
Cu2   O4    S    
C29   C30   S    
C4    C26   S    
Cu1   Cu2   S    
C17   C18   A    
C19   H7    S    
C18   C32   S    
C22   N1    A    
Cu1   O1    S    
C7    H2    S    
C22   C24   A    
Cu1   O3    S    
C3    C4    S    
Cu2   O6    S    
C12   O4    A    
C21   N1    A    
C6    C35   S    
C24   N2    A    
Cu2   N1    S    
C25   O8    A    
C12   O3    A    
C1    O1    A    
C6    C7    A    
C2    C30   S    
C3    C27   S    
C2    C3    S    
C9    C15   A    
C5    C10   A    
C11   C13   A    
C23   O5    A    
C16   C17   A    
C2    H10   S    
C24   H8    S    
C31   O10   S    
C17   H6    S    
Cu1   O7    S    
Cu2   O2    S    
C20   N2    A    
C10   C11   A    
C29   C34   S    
C20   C21   A    
C26   C29   S    
C27   C28   S    
C14   C15   A    
C2    C28   S    
C1    O2    A    
C13   H12   S    
C4    C30   S    
