data_mof_unit_54494.cif
_audit_creation_date              2013-03-05T16:03:01-0500
_audit_creation_method            fapswitch 2.2
_symmetry_space_group_name_H-M    P1
_symmetry_Int_Tables_number       1
_space_group_crystal_system       triclinic
_cell_length_a                    15.04341
_cell_length_b                    14.146119
_cell_length_c                    10.850268
_cell_angle_alpha                 90.602568
_cell_angle_beta                  87.675125
_cell_angle_gamma                 89.558474
_cell_volume                      2306.89609874

loop_
_atom_site_label
_atom_site_type_symbol
_atom_site_description
_atom_site_fract_x
_atom_site_fract_y
_atom_site_fract_z
_atom_type_partial_charge
O1    O     O_R   0.367850 0.580280 0.500030 -0.615485
O2    O     O_R   0.632150 0.419720 0.499970 -0.607971
O3    O     O_R   0.632150 0.580280 0.499970 -0.625940
O4    O     O_R   0.367850 0.419720 0.500030 -0.618820
C1    C     C_R   0.326455 0.500800 0.499836 1.032355
C2    C     C_R   0.673443 0.499717 0.501600 1.042247
O5    O     O_R   0.499970 0.580260 0.313950 -0.584464
O6    O     O_R   0.500030 0.419740 0.686050 -0.585768
O7    O     O_R   0.500030 0.580260 0.686050 -0.613811
O8    O     O_R   0.499970 0.419740 0.313950 -0.615544
C3    C     C_R   0.502841 0.498971 0.257440 1.064829
C4    C     C_R   0.498181 0.500807 0.742472 1.090184
Zn1   Zn    Zn3+2 0.500000 0.607200 0.500000 1.058515
Zn2   Zn    Zn3+2 0.500000 0.392800 0.500000 1.063942
C5    C     C_3   0.495988 0.585752 0.045965 0.200586
C6    C     C_3   0.507573 0.412859 0.953275 0.196442
C7    C     C_3   0.569272 0.549871 0.954083 0.248728
C8    C     C_3   0.434609 0.448302 0.045192 0.239315
C9    C     C_3   0.424070 0.538922 0.969688 -0.274399
C10   C     C_3   0.579643 0.459225 0.029984 -0.269852
C11   C     C_3   0.498031 0.503037 0.876506 -0.285500
C12   C     C_3   0.505407 0.495559 0.123102 -0.280873
C13   C     C_R   0.818355 0.521377 0.391771 0.214514
C14   C     C_R   0.180716 0.509868 0.617703 0.220477
C15   C     C_R   0.770105 0.501306 0.502190 -0.281660
C16   C     C_R   0.229545 0.506321 0.503703 -0.282559
C17   C     C_R   0.813811 0.492731 0.614211 0.265237
C18   C     C_R   0.187161 0.521883 0.392608 0.249535
C19   C     C_R   0.904032 0.517655 0.617661 -0.091958
C20   C     C_R   0.095406 0.541813 0.393780 -0.075192
C21   C     C_R   0.952657 0.533464 0.506318 -0.017105
C22   C     C_R   0.045889 0.535710 0.505916 -0.023380
C23   C     C_R   0.909114 0.543298 0.395283 -0.039107
C24   C     C_R   0.088896 0.529742 0.617943 -0.066807
C25   C     C_R   0.946397 0.534512 0.729490 0.300254
C26   C     C_R   0.051186 0.570335 0.287497 0.302034
C27   C     C_R   0.038341 0.549570 0.726755 -0.072475
C28   C     C_R   0.958164 0.576049 0.290912 -0.118232
C29   C     C_R   0.564648 0.797288 0.434507 0.046478
C30   C     C_R   0.435623 0.202981 0.566290 0.042139
C31   C     C_R   0.434814 0.798808 0.565082 0.063462
C32   C     C_R   0.565058 0.201173 0.434868 0.063579
N1    N     N_R   0.500000 0.750030 0.500000 -0.146471
N2    N     N_R   0.500000 0.249970 0.500000 -0.146250
C33   C     C_R   0.427783 0.899701 0.557035 -0.052686
C34   C     C_R   0.572261 0.100380 0.443548 -0.051258
C35   C     C_R   0.572069 0.897787 0.444389 -0.051165
C36   C     C_R   0.428215 0.102417 0.556993 -0.047653
C37   C     C_R   0.500013 0.949494 0.500710 0.075237
C38   C     C_R   0.500133 0.050649 0.500305 0.077968
C39   C     C_R   0.351321 0.952267 0.600238 -0.042976
C40   C     C_R   0.648866 0.047893 0.400851 -0.051287
C41   C     C_R   0.648911 0.947983 0.402002 -0.040467
C42   C     C_R   0.351555 0.052217 0.600034 -0.050321
C43   C     C_1   0.339811 0.589295 0.957655 0.555023
N3    N     N_1   0.273330 0.629921 0.951244 -0.054054
C44   C     C_1   0.662072 0.404454 0.038532 0.542470
N4    N     N_1   0.726042 0.358720 0.039804 -0.008407
N5    N     N_R   0.487509 0.683031 0.092867 0.224973
O9    O     O_R   0.540809 0.748295 0.051139 -0.322612
O10   O     O_R   0.419418 0.707500 0.164133 -0.325312
N6    N     N_R   0.515307 0.315860 0.904847 0.221462
O11   O     O_R   0.461226 0.250698 0.944921 -0.320298
O12   O     O_R   0.582641 0.291645 0.832010 -0.329852
N7    N     N_R   0.643099 0.609851 0.914771 0.284895
O13   O     O_R   0.697436 0.639428 0.996710 -0.258590
O14   O     O_R   0.646222 0.646828 0.805512 -0.314994
N8    N     N_R   0.362591 0.386340 0.085330 0.287175
O15   O     O_R   0.302354 0.364446 0.007459 -0.228024
O16   O     O_R   0.371353 0.333998 0.181946 -0.312456
N9    N     N_R   0.782241 0.497237 0.275288 0.196123
O17   O     O_R   0.829658 0.445561 0.197144 -0.325222
O18   O     O_R   0.700639 0.517805 0.251199 -0.458691
N10   N     N_R   0.220628 0.481307 0.730140 0.200014
O19   O     O_R   0.175339 0.432121 0.811290 -0.279465
O20   O     O_R   0.304947 0.492454 0.744772 -0.477076
N11   N     N_R   0.772555 0.443777 0.716998 0.236485
O21   O     O_R   0.816627 0.377818 0.771536 -0.311539
O22   O     O_R   0.688702 0.454961 0.746202 -0.398531
N12   N     N_R   0.234277 0.501548 0.278587 0.219216
O23   O     O_R   0.205427 0.434994 0.207412 -0.263079
O24   O     O_R   0.302058 0.552173 0.242821 -0.380935
N13   N     N_R   0.895098 0.554643 0.840525 0.221037
O25   O     O_R   0.842323 0.627808 0.844717 -0.311336
O26   O     O_R   0.913365 0.511670 0.941913 -0.275950
N14   N     N_R   0.099570 0.598209 0.177933 0.218963
O27   O     O_R   0.148892 0.673335 0.178288 -0.339528
O28   O     O_R   0.091002 0.550154 0.076431 -0.289433
C45   C     C_1   0.073003 0.615861 0.814404 0.363786
N15   N     N_1   0.099002 0.672184 0.881706 -0.079174
C46   C     C_1   0.914831 0.627907 0.195334 0.391410
N16   N     N_1   0.880311 0.670388 0.120014 -0.028972
C47   C     C_1   0.619084 0.744377 0.345899 0.321427
N17   N     N_1   0.663137 0.703848 0.273015 -0.070126
C48   C     C_1   0.381452 0.256659 0.654524 0.322773
N18   N     N_1   0.337887 0.298343 0.726894 -0.028760
C49   C     C_1   0.376694 0.745302 0.645763 0.280856
N19   N     N_1   0.329621 0.702698 0.710670 -0.176667
C50   C     C_1   0.622793 0.254687 0.353646 0.279494
N20   N     N_1   0.669415 0.297504 0.288347 -0.141550
C51   C     C_1   0.268072 0.905758 0.634230 0.210420
N21   N     N_1   0.201319 0.869665 0.661000 -0.148016
C52   C     C_1   0.731958 0.094526 0.366503 0.211806
N22   N     N_1   0.798601 0.130717 0.339444 -0.110327
C53   C     C_1   0.732412 0.898803 0.371470 0.203407
N23   N     N_1   0.799234 0.860391 0.347526 -0.158121
C54   C     C_1   0.268436 0.101466 0.632452 0.207455
N24   N     N_1   0.201875 0.139894 0.657929 -0.104192

loop_
_geom_bond_atom_site_label_1
_geom_bond_atom_site_label_2
_geom_bond_distance
_ccdc_geom_bond_type
C43   N3    1.154531 T    
C40   C52   1.454863 S    
C51   N21   1.157929 T    
C17   C19   1.406768 A    
C24   C27   1.402810 A    
C48   N18   1.156013 T    
O3    C2    1.294375 A    
C49   N19   1.155726 T    
C35   C37   1.417080 A    
N11   O21   1.301636 A    
O5    C3    1.297067 A    
C47   N17   1.155579 T    
N10   O20   1.295345 A    
C42   C54   1.455447 S    
N13   O25   1.298853 A    
O1    C1    1.289481 A    
C29   C35   1.430152 A    
C9    C11   1.551474 S    
C14   C16   1.412984 A    
N14   O28   1.299521 A    
C2    C15   1.454752 S    
C33   C39   1.425314 A    
C8    N8    1.454678 S    
C34   C40   1.424854 A    
C7    C10   1.541547 S    
C13   C23   1.404356 A    
C30   C36   1.430628 A    
C8    C9    1.539189 S    
C32   C34   1.433490 A    
O7    Zn1   2.058302 S    
C29   C47   1.437603 S    
N6    O12   1.300762 A    
C5    C9    1.538338 S    
C5    C12   1.541995 S    
C21   C22   1.402964 A    
N8    O15   1.300728 A    
N7    O14   1.300050 A    
C54   N24   1.157808 T    
C21   C23   1.402147 A    
C30   N2    1.364014 A    
O3    Zn1   2.021234 S    
C6    C10   1.539829 S    
C35   C41   1.424206 A    
C36   C38   1.417536 A    
N5    O9    1.300387 A    
C31   N1    1.363649 A    
O2    C2    1.295419 A    
C32   N2    1.362706 A    
O2    Zn2   2.026999 S    
C16   C18   1.404911 A    
N11   O22   1.296177 A    
N5    O10   1.300621 A    
N10   O19   1.301961 A    
C13   N9    1.434798 S    
N12   O24   1.299303 A    
O8    Zn2   2.058303 S    
C46   N16   1.156997 T    
N9    O18   1.296929 A    
C25   N13   1.429006 S    
N14   O27   1.300861 A    
O4    C1    1.300946 A    
C29   N1    1.364419 A    
C26   N14   1.429194 S    
C4    C11   1.454224 S    
C14   C24   1.407364 A    
C22   C24   1.402972 A    
C36   C42   1.424157 A    
N6    O11   1.300745 A    
C50   N20   1.155856 T    
C33   C37   1.420304 A    
O6    C4    1.293837 A    
N8    O16   1.300233 A    
N13   O26   1.300484 A    
C10   C12   1.555906 S    
C37   C38   1.431010 A    
C31   C49   1.437265 S    
O1    Zn1   2.027001 S    
C30   C48   1.438439 S    
Zn1   N1    2.020490 S    
C40   C41   1.413513 A    
Zn2   N2    2.020492 S    
C9    C43   1.460464 S    
C5    C7    1.535739 S    
C34   C38   1.420611 A    
O6    Zn2   2.050426 S    
C25   C27   1.400257 A    
C8    C12   1.538816 S    
C5    N5    1.465007 S    
N12   O23   1.299734 A    
C17   N11   1.440585 S    
C6    C11   1.539799 S    
C20   C26   1.415293 A    
C15   C17   1.411046 A    
C53   N23   1.157886 T    
C19   C25   1.412197 A    
C3    C12   1.456824 S    
C7    N7    1.455674 S    
C23   C28   1.410696 A    
C27   C45   1.443861 S    
C39   C42   1.413964 A    
C18   C20   1.406198 A    
C45   N15   1.156186 T    
N9    O17   1.300752 A    
C19   C21   1.407510 A    
C32   C50   1.437412 S    
C20   C22   1.404412 A    
C14   N10   1.441574 S    
C44   N4    1.156068 T    
C28   C46   1.449834 S    
C26   C28   1.400052 A    
C13   C15   1.408055 A    
O4    Zn2   2.021235 S    
C18   N12   1.426158 S    
O7    C4    1.285462 A    
C7    C11   1.538958 S    
O8    C3    1.283394 A    
C1    C16   1.458225 S    
C41   C53   1.455864 S    
O5    Zn1   2.050428 S    
C6    C8    1.530691 S    
N7    O13   1.300027 A    
C52   N22   1.157833 T    
C31   C33   1.434185 A    
C10   C44   1.463758 S    
C6    N6    1.466242 S    
C39   C51   1.455196 S    
