data_mof_unit_8454.cif
_audit_creation_date              2012-12-11T17:39:38-0500
_audit_creation_method            fapswitch 2.2
_symmetry_space_group_name_H-M    P1
_symmetry_Int_Tables_number       1
_space_group_crystal_system       triclinic
_cell_length_a                    15.127248
_cell_length_b                    15.053739
_cell_length_c                    15.180702
_cell_angle_alpha                 108.513558
_cell_angle_beta                  110.573506
_cell_angle_gamma                 110.004445
_cell_volume                      2638.00522713

loop_
_atom_site_label
_atom_site_type_symbol
_atom_type_description
_atom_site_fract_x
_atom_site_fract_y
_atom_site_fract_z
_atom_type_partial_charge
C1    C     C_R   0.910297 0.916409 0.714143 -0.100664
C2    C     C_R   0.999390 0.299175 0.434756 0.109155
C3    C     C_R   0.304351 0.324958 0.823043 0.140210
C4    C     C_R   0.707886 0.029443 0.531327 0.054044
C5    C     C_R   0.696201 0.701639 0.290609 -0.159244
C6    C     C_R   0.301711 0.090457 0.500929 -0.142728
C7    C     C_R   0.090928 0.779142 0.526606 -0.110397
C8    C     C_R   0.907422 0.950525 0.187667 -0.071743
C9    C     C_R   0.091801 0.031557 0.280602 -0.049135
C10   C     C_R   0.906730 0.685468 0.441569 -0.128996
C11   C     C_R   0.698908 0.793864 0.201175 -0.103304
C12   C     C_R   0.090941 0.298267 0.495134 -0.117662
C13   C     C_R   0.301322 0.002379 0.594725 -0.158670
C14   C     C_R   0.634293 0.702160 0.199122 0.132412
C15   C     C_R   0.361991 0.058876 0.561853 0.058365
C16   C     C_R   0.998691 0.676647 0.459321 0.052093
C17   C     C_R   0.998926 0.970894 0.178742 0.065791
C18   C     C_R   0.483649 0.672631 0.372333 -0.108484
C19   C     C_R   0.500465 0.777764 0.403737 -0.128712
C20   C     C_R   0.526551 0.844347 0.508740 0.102031
C21   C     C_R   0.533987 0.803688 0.581009 -0.170664
C22   C     C_R   0.518101 0.698940 0.549477 -0.121971
C23   C     C_R   0.268359 0.222353 0.813059 -0.147673
C24   C     C_R   0.493005 0.633453 0.445211 -0.085436
C25   C     C_R   0.464475 0.970246 0.559286 -0.232850
C26   C     C_R   0.463184 0.066133 0.575923 0.062124
C27   C     C_R   0.547627 0.155281 0.587314 0.025009
C28   C     C_R   0.629607 0.141933 0.574270 -0.233234
C29   C     C_R   0.625782 0.042431 0.550043 0.075587
C30   C     C_R   0.542496 0.955400 0.542720 0.023121
C31   C     C_R   0.571544 0.311414 0.551318 -0.164543
C32   C     C_R   0.566664 0.406150 0.568417 -0.092056
C33   C     C_R   0.539700 0.450076 0.643984 -0.074797
C34   C     C_R   0.738687 0.052928 0.461758 -0.150960
C35   C     C_R   0.519178 0.400273 0.703692 -0.104068
C36   C     C_R   0.526848 0.307443 0.689096 -0.136438
C37   C     C_R   0.550443 0.260333 0.610743 0.112465
C38   C     C_R   0.838048 0.159120 0.060853 0.561334
C39   C     C_R   0.907059 0.255165 0.161828 -0.229802
C40   C     C_R   0.865831 0.285438 0.228643 0.095681
C41   C     C_R   0.755478 0.218397 0.193757 -0.161507
C42   C     C_R   0.687557 0.121623 0.094036 -0.207008
C43   C     C_R   0.728710 0.092052 0.027559 -0.210342
C44   C     C_R   0.939544 0.485509 0.340829 0.144921
C45   C     C_R   0.265368 0.313847 0.720860 -0.134616
C46   C     C_R   0.001694 0.579352 0.445130 -0.021965
C47   C     C_R   0.064593 0.579620 0.539498 -0.002022
C48   C     C_R   0.067185 0.487607 0.529387 -0.258024
C49   C     C_R   0.002205 0.392871 0.429456 0.030885
C50   C     C_R   0.936711 0.388937 0.333822 -0.013077
C51   C     C_R   0.237926 0.730142 0.714200 -0.194621
C52   C     C_R   0.292560 0.815504 0.820423 -0.115494
C53   C     C_R   0.232450 0.841139 0.865490 -0.096827
C54   C     C_R   0.117696 0.781414 0.804402 -0.118465
C55   C     C_R   0.062678 0.697141 0.697616 -0.121334
C56   C     C_R   0.747854 0.967356 0.559537 -0.088660
C57   C     C_R   0.122572 0.671249 0.651731 0.150604
C58   C     C_2   0.378164 0.518131 0.932833 -0.130873
C59   C     C_2   0.378298 0.426525 0.923326 -0.222040
C60   C     C_2   0.467112 0.622579 0.028849 -0.112213
C61   C     C_2   0.517847 0.626815 0.123345 -0.219635
C62   C     C_R   0.386220 0.244771 0.117776 -0.092403
C63   C     C_R   0.288705 0.150505 0.077478 -0.172447
C64   C     C_R   0.187458 0.145358 0.030968 0.146313
C65   C     C_R   0.184791 0.235346 0.024196 -0.016406
C66   C     C_R   0.282947 0.330315 0.066210 -0.135164
C67   C     C_R   0.908307 0.208817 0.407165 -0.135166
C68   C     C_R   0.383531 0.335127 0.113685 -0.117624
C69   C     C_R   0.075393 0.059386 0.094410 0.467274
C70   C     C_R   0.001533 0.964207 0.084430 -0.085570
C71   C     C_R   0.929008 0.866546 0.984534 -0.002034
C72   C     C_R   0.931667 0.865776 0.894330 -0.239192
C73   C     C_R   0.011632 0.957686 0.906198 0.027304
C74   C     C_R   0.088901 0.052820 0.008153 -0.067770
C75   C     C_R   0.877817 0.715900 0.027776 -0.155036
C76   C     C_R   0.799670 0.632759 0.027940 -0.099738
C77   C     C_R   0.689167 0.602410 0.973701 -0.060256
C78   C     C_R   0.093504 0.006501 0.802033 -0.156386
C79   C     C_R   0.656364 0.653840 0.917606 -0.143840
C80   C     C_R   0.733899 0.735709 0.915694 -0.174649
C81   C     C_R   0.845487 0.768659 0.972494 0.153735
C82   C     C_R   0.004995 0.958794 0.810690 0.101582
H1    H     H_    0.826863 0.862273 0.689631 0.097805
H2    H     H_    0.329034 0.143916 0.470768 0.122232
H3    H     H_    0.175661 0.800096 0.559283 0.105416
H4    H     H_    0.822932 0.911578 0.124346 0.109787
H5    H     H_    0.176367 0.064435 0.301238 0.122380
H6    H     H_    0.822113 0.621010 0.397811 0.111938
H7    H     H_    0.671844 0.827532 0.151207 0.084528
H8    H     H_    0.329141 0.977041 0.653151 0.101370
H9    H     H_    0.480253 0.552163 0.420687 0.116053
H10   H     H_    0.462830 0.621194 0.291382 0.107955
H11   H     H_    0.493043 0.807215 0.346537 0.115744
H12   H     H_    0.175258 0.353790 0.523051 0.108980
H13   H     H_    0.553236 0.853652 0.662004 0.123990
H14   H     H_    0.524940 0.668483 0.605794 0.102234
H15   H     H_    0.397598 0.901164 0.547992 0.131244
H16   H     H_    0.696123 0.208415 0.582307 0.130655
H17   H     H_    0.589055 0.276591 0.489892 0.106550
H18   H     H_    0.582115 0.444557 0.521850 0.102023
H19   H     H_    0.534300 0.522409 0.656008 0.092105
H20   H     H_    0.496373 0.432885 0.760816 0.109760
H21   H     H_    0.511448 0.270691 0.736913 0.116173
H22   H     H_    0.675290 0.017692 0.949718 0.139869
H23   H     H_    0.288501 0.202743 0.877252 0.118675
H24   H     H_    0.991627 0.307007 0.187243 0.180857
H25   H     H_    0.722138 0.241476 0.243793 0.116425
H26   H     H_    0.602666 0.070129 0.067767 0.130562
H27   H     H_    0.114115 0.487678 0.602541 0.138171
H28   H     H_    0.285215 0.710530 0.680158 0.114307
H29   H     H_    0.381444 0.861404 0.867963 0.102307
H30   H     H_    0.274730 0.906770 0.947926 0.093627
H31   H     H_    0.071384 0.799990 0.840020 0.116888
H32   H     H_    0.717250 0.096776 0.421956 0.097887
H33   H     H_    0.973715 0.651538 0.651031 0.105353
H34   H     H_    0.321558 0.518152 0.864769 0.128523
H35   H     H_    0.437893 0.425869 0.988349 0.138866
H36   H     H_    0.501936 0.689459 0.015441 0.117592
H37   H     H_    0.478265 0.561793 0.136818 0.124855
H38   H     H_    0.459789 0.408720 0.147937 0.091240
H39   H     H_    0.464098 0.248705 0.154507 0.103504
H40   H     H_    0.292075 0.082483 0.085255 0.099288
H41   H     H_    0.107660 0.233415 0.990655 0.166481
H42   H     H_    0.281154 0.400613 0.063305 0.126489
H43   H     H_    0.282710 0.377379 0.699753 0.088402
H44   H     H_    0.872994 0.793101 0.815373 0.126841
H45   H     H_    0.963705 0.741125 0.072870 0.109190
H46   H     H_    0.825027 0.593099 0.071561 0.113566
H47   H     H_    0.628993 0.539206 0.975288 0.107091
H48   H     H_    0.570876 0.630808 0.876179 0.104428
H49   H     H_    0.707775 0.776625 0.874041 0.122961
H50   H     H_    0.738456 0.935699 0.612099 0.121502
H51   H     H_    0.823191 0.181829 0.356680 0.099153
H52   H     H_    0.177676 0.031223 0.854061 0.106447
H53   H     H_    0.665228 0.649301 0.320526 0.093876
N1    N     N_R   0.941940 0.944580 0.650780 -0.047079
N2    N     N_R   0.206190 0.054080 0.497260 -0.045657
N3    N     N_R   0.056380 0.847410 0.553580 -0.041698
N4    N     N_R   0.944890 0.999100 0.292900 -0.051582
N5    N     N_R   0.058060 0.055420 0.349220 -0.038432
N6    N     N_R   0.943200 0.791100 0.497260 -0.046383
N7    N     N_R   0.795540 0.849750 0.292910 -0.049518
N8    N     N_R   0.205730 0.996760 0.553580 -0.040324
N9    N     N_R   0.056800 0.208900 0.502740 -0.044096
N10   N     N_R   0.204460 0.150250 0.707090 -0.042948
N11   N     N_R   0.794270 0.003240 0.446420 -0.041540
N12   N     N_R   0.204920 0.207570 0.650770 -0.041993
N13   N     N_R   0.793810 0.945920 0.502740 -0.046662
N14   N     N_R   0.943620 0.152590 0.446420 -0.043002
N15   N     N_R   0.055110 0.000900 0.707100 -0.038308
N16   N     N_R   0.795080 0.792430 0.349230 -0.040668
Ni1   Ni    Ni4+2 0.869690 0.869690 0.500000 0.208337
Ni2   Ni    Ni4+2 0.130310 0.130310 0.500000 0.236952
Ni3   Ni    Ni4+2 0.129250 0.998840 0.629170 0.214236
Ni4   Ni    Ni4+2 0.870750 0.001160 0.370830 0.214270
Cl1   Cl    Cl    0.886757 0.124201 0.973865 -0.717115
C83   C     C_3   0.881609 0.490089 0.238655 -0.322932
C84   C     C_3   0.757565 0.439476 0.191848 -0.921870
H54   H     H_    0.713303 0.352942 0.128135 0.267726
H55   H     H_    0.736419 0.443989 0.255526 0.247793
H56   H     H_    0.727615 0.483012 0.153471 0.245299
H57   H     H_    0.916655 0.575411 0.254928 0.183660
H58   H     H_    0.897239 0.448443 0.176005 0.187762
Cl2   Cl    Cl    0.142537 0.191395 0.209265 -0.693774

loop_
_geom_bond_atom_site_label_1
_geom_bond_atom_site_label_2
_ccdc_geom_bond_type
C39   H24   S    
C66   C68   A    
C83   C84   S    
C13   H8    S    
C61   H37   S    
C34   N11   A    
C73   C74   A    
C3    C23   A    
C35   C36   A    
C69   Cl2   S    
C38   Cl1   S    
C33   H19   S    
C35   H20   S    
C2    C12   A    
C20   C30   S    
C53   C54   A    
C12   N9    A    
C23   N10   A    
C10   H6    S    
C26   C27   A    
C29   C30   A    
C8    N4    A    
C18   C24   A    
C36   C37   A    
C67   H51   S    
C38   C39   A    
C33   C35   A    
C11   C14   A    
C40   C50   S    
C67   N14   A    
C58   C60   S    
C23   H23   S    
C54   H31   S    
C18   C19   A    
C41   C42   A    
N9    Ni2   S    
C78   C82   A    
C43   H22   S    
C84   H56   S    
N10   N12   A    
C6    C15   A    
C54   C55   A    
N11   Ni4   S    
C47   C48   A    
C45   H43   S    
N16   Ni1   S    
C60   H36   S    
C70   C71   A    
C51   C57   A    
C31   H17   S    
N7    Ni4   S    
C1    N1    A    
C83   H58   S    
C75   H45   S    
C4    C29   S    
C19   H11   S    
N5    Ni2   S    
C72   C73   A    
N3    Ni3   S    
C13   N8    A    
C48   H27   S    
N2    N8    A    
C17   C70   S    
C59   H35   S    
C80   H49   S    
C21   C22   A    
C4    C56   A    
C84   H55   S    
C44   C83   S    
C12   H12   S    
N1    Ni1   S    
C44   C46   A    
N11   N13   A    
C77   C79   A    
C4    C34   A    
C6    H2    S    
C51   C52   A    
C76   C77   A    
C2    C67   A    
C16   C46   S    
C39   C40   A    
C6    N2    A    
C75   C81   A    
C15   C26   S    
C21   H13   S    
C52   H29   S    
C1    C82   A    
C63   C64   A    
C79   H48   S    
C3    C45   A    
C32   H18   S    
C72   H44   S    
C60   C61   D    
C10   N6    A    
N7    N16   A    
C56   N13   A    
C75   C76   A    
C62   C63   A    
C2    C49   S    
C28   H16   S    
C47   C57   S    
C11   H7    S    
C31   C32   A    
N4    Ni4   S    
N2    Ni2   S    
C69   C74   A    
C58   H34   S    
C55   C57   A    
C77   H47   S    
C9    C17   A    
C78   H52   S    
C5    C14   A    
C56   H50   S    
N10   Ni3   S    
C53   H30   S    
C25   H15   S    
C40   C41   A    
C49   C50   A    
C51   H28   S    
C36   H21   S    
C84   H54   S    
C76   H46   S    
C66   H42   S    
C22   C24   A    
C58   C59   D    
C34   H32   S    
C42   C43   A    
C24   H9    S    
C73   C82   S    
C63   H40   S    
C52   C53   A    
C78   N15   A    
C44   C50   A    
C25   C30   A    
C5    H53   S    
C46   C47   A    
C28   C29   A    
C41   H25   S    
N9    N14   A    
C45   N12   A    
C22   H14   S    
C7    C16   A    
N13   Ni1   S    
C80   C81   A    
N8    Ni3   S    
N3    N6    A    
C7    N3    A    
N1    N15   A    
N4    N5    A    
C1    H1    S    
C8    C17   A    
C5    N16   A    
C62   C68   A    
C18   H10   S    
C32   C33   A    
C19   C20   A    
C13   C15   A    
C25   C26   A    
C38   C43   A    
C10   C16   A    
C64   C65   A    
C14   C61   S    
C7    H3    S    
C55   H33   S    
C27   C37   S    
C48   C49   A    
C9    N5    A    
C8    H4    S    
C65   H41   S    
N14   Ni4   S    
C69   C70   A    
N12   Ni2   S    
C11   N7    A    
C79   C80   A    
C31   C37   A    
C71   C72   A    
C20   C21   A    
C65   C66   A    
N15   Ni3   S    
C27   C28   A    
C64   C74   S    
C42   H26   S    
C83   H57   S    
C62   H39   S    
C68   H38   S    
N6    Ni1   S    
C3    C59   S    
C71   C81   S    
C9    H5    S    
