data_mof_unit_45711.cif
_audit_creation_date              2012-10-26T21:24:49-0400
_audit_creation_method            fapswitch 2.2
_symmetry_space_group_name_H-M    P1
_symmetry_Int_Tables_number       1
_space_group_crystal_system       triclinic
_cell_length_a                    9.548525
_cell_length_b                    10.825687
_cell_length_c                    15.531543
_cell_angle_alpha                 89.717873
_cell_angle_beta                  74.111533
_cell_angle_gamma                 90.105845
_cell_volume                      1544.12288755

loop_
_atom_site_label
_atom_site_type_symbol
_atom_type_description
_atom_site_fract_x
_atom_site_fract_y
_atom_site_fract_z
_atom_type_partial_charge
C1    C     C_R   0.999066 0.262344 0.501776 0.537825
C2    C     C_R   0.233991 0.404406 0.051928 0.052037
C3    C     C_R   0.329716 0.460363 0.095901 -0.012959
C4    C     C_R   0.917470 0.499676 0.672289 0.568748
C5    C     C_R   0.087039 0.384070 0.098210 0.341369
C6    C     C_R   0.034780 0.418802 0.187548 -0.078710
C7    C     C_R   0.271360 0.502065 0.183799 -0.150237
C8    C     C_R   0.120943 0.063957 0.510170 0.076843
C9    C     C_R   0.994850 0.129224 0.510683 -0.029296
C10   C     C_R   0.863122 0.064056 0.523545 -0.150327
C11   C     C_R   0.863323 0.935228 0.523296 -0.146811
C12   C     C_R   0.675958 0.473266 0.910388 0.045737
C13   C     C_R   0.995268 0.870810 0.510096 -0.006147
C14   C     C_R   0.121241 0.936719 0.509491 -0.015388
C15   C     C_3   0.269334 0.931343 0.445059 -0.213032
C16   C     C_R   0.999361 0.737701 0.501428 0.546277
C17   C     C_3   0.269270 0.071447 0.446093 0.257847
C18   C     C_R   0.591627 0.594213 0.460095 0.166615
C19   C     C_R   0.553298 0.414056 0.547048 0.060741
C20   C     C_R   0.404408 0.414091 0.547087 0.051026
C21   C     C_R   0.444084 0.594449 0.460418 0.097566
C22   C     C_3   0.480562 0.631334 0.364392 -0.214494
C23   C     C_R   0.778435 0.500502 0.958602 0.020478
C24   C     C_3   0.639247 0.631814 0.363874 0.228523
C25   C     C_R   0.081958 0.496983 0.328005 0.549382
C26   C     C_R   0.870653 0.496918 0.770960 0.015663
C27   C     C_R   0.127313 0.476957 0.230939 -0.052326
C28   C     C_R   0.925970 0.516968 0.913372 -0.108420
C29   C     C_R   0.972288 0.511830 0.820323 -0.187182
C30   C     C_R   0.722259 0.481049 0.816253 0.344235
C31   C     C_R   0.529162 0.446024 0.958043 0.056060
C32   C     C_R   0.480481 0.472363 0.050867 0.020950
C33   C     C_R   0.585188 0.503484 0.096417 -0.116367
C34   C     C_R   0.732019 0.513486 0.051270 -0.066981
C35   C     C_R   0.431959 0.386931 0.917140 -0.098681
C36   C     C_R   0.287258 0.366479 0.963348 -0.121650
Cu1   Cu    Cu3+1 0.140670 0.499980 0.500000 0.972299
Cu2   Cu    Cu3+1 0.859330 0.500020 0.500000 1.046582
F1    F     F_    0.995605 0.325586 0.058340 -0.651149
F2    F     F_    0.370125 0.119050 0.486376 -0.638432
F3    F     F_    0.715854 0.540202 0.309159 -0.642159
F4    F     F_    0.622035 0.486663 0.768945 -0.656784
H1    H     H_    0.809150 0.534812 0.088966 0.168330
H2    H     H_    0.439125 0.724240 0.354054 0.067891
H3    H     H_    0.692002 0.724313 0.352719 0.108773
H4    H     H_    0.923629 0.396167 0.223447 0.214622
H5    H     H_    0.005440 0.535175 0.949968 0.154574
H6    H     H_    0.086889 0.524553 0.786968 0.150838
H7    H     H_    0.557883 0.514302 0.167942 0.143866
H8    H     H_    0.467431 0.348623 0.850742 0.189759
H9    H     H_    0.454319 0.557093 0.322603 0.178775
H10   H     H_    0.217070 0.320320 0.929271 0.177751
H11   H     H_    0.761431 0.111953 0.529517 0.165110
H12   H     H_    0.761712 0.886834 0.529171 0.148905
H13   H     H_    0.350737 0.889458 0.475622 0.170342
H14   H     H_    0.267292 0.892682 0.379222 0.083686
H15   H     H_    0.271535 0.115658 0.380938 0.123854
H16   H     H_    0.592516 0.343090 0.583789 0.139354
H17   H     H_    0.332088 0.343276 0.583943 0.162702
H18   H     H_    0.335959 0.555282 0.216974 0.116208
N1    N     N_R   0.648210 0.500930 0.499430 -0.208733
N2    N     N_R   0.352300 0.500890 0.499430 -0.236993
O1    O     O_R   0.118810 0.319640 0.500000 -0.480751
O2    O     O_R   0.881230 0.319680 0.499990 -0.515055
O3    O     O_R   0.055580 0.499970 0.629840 -0.525572
O4    O     O_R   0.818000 0.500010 0.629830 -0.428949
O5    O     O_R   0.118770 0.680320 0.500010 -0.502947
O6    O     O_R   0.881190 0.680360 0.500000 -0.517375
O7    O     O_R   0.182000 0.499990 0.370170 -0.516266
O8    O     O_R   0.944420 0.500030 0.370160 -0.431966

loop_
_geom_bond_atom_site_label_1
_geom_bond_atom_site_label_2
_ccdc_geom_bond_type
C19   H16   S    
C8    C9    A    
C4    C26   S    
Cu2   O8    S    
C18   N1    A    
C23   C28   A    
Cu1   Cu2   S    
C16   O6    A    
Cu1   O7    S    
C25   C27   S    
C18   C21   A    
C6    H4    S    
C9    C10   A    
Cu2   O2    S    
C8    C17   S    
C36   H10   S    
C6    C27   A    
C23   C34   A    
C15   H14   S    
Cu2   N1    S    
C35   H8    S    
C17   H15   S    
Cu1   N2    S    
C1    C9    S    
C28   H5    S    
C16   O5    A    
C13   C14   A    
C32   C33   A    
C20   H17   S    
C4    O4    A    
C24   F3    S    
C11   C13   A    
C12   C23   A    
C21   N2    A    
C4    O3    A    
C11   H12   S    
C35   C36   A    
C19   N1    A    
C18   C24   S    
C24   H3    S    
Cu1   O5    S    
C22   C24   S    
Cu1   O3    S    
C28   C29   A    
Cu1   O1    S    
C33   C34   A    
C26   C30   A    
C3    C7    A    
C5    F1    S    
C12   C31   A    
C20   N2    A    
C3    C32   A    
C31   C35   A    
C2    C5    A    
C25   O7    A    
C10   C11   A    
C29   H6    S    
C33   H7    S    
C1    O2    A    
C1    O1    A    
C7    H18   S    
C7    C27   A    
C26   C29   A    
C5    C6    A    
C13   C16   S    
C2    C36   A    
C15   C17   S    
C10   H11   S    
Cu2   O4    S    
C14   C15   S    
C30   F4    S    
C2    C3    A    
C25   O8    A    
C8    C14   A    
C12   C30   A    
C21   C22   S    
C31   C32   A    
C22   H2    S    
C34   H1    S    
C19   C20   A    
Cu2   O6    S    
C22   H9    S    
C17   F2    S    
C15   H13   S    
