data_mof_unit_17625.cif
_audit_creation_date              2012-12-11T15:41:23-0500
_audit_creation_method            fapswitch 2.2
_symmetry_space_group_name_H-M    P1
_symmetry_Int_Tables_number       1
_space_group_crystal_system       triclinic
_cell_length_a                    14.847955
_cell_length_b                    14.775348
_cell_length_c                    14.880558
_cell_angle_alpha                 109.228094
_cell_angle_beta                  109.791371
_cell_angle_gamma                 109.518693
_cell_volume                      2509.13916413

loop_
_atom_site_label
_atom_site_type_symbol
_atom_type_description
_atom_site_fract_x
_atom_site_fract_y
_atom_site_fract_z
_atom_type_partial_charge
C1    C     C_R   0.194768 0.995127 0.903652 -0.117194
C2    C     C_R   0.803954 0.922594 0.418161 -0.120215
C3    C     C_R   0.192690 0.312276 0.976997 -0.157305
C4    C     C_R   0.706150 0.821516 0.340062 -0.143710
C5    C     C_R   0.298705 0.347852 0.059980 0.100244
C6    C     C_R   0.707021 0.735159 0.263926 0.106628
C7    C     C_R   0.307840 0.304654 0.131970 -0.135947
C8    C     C_R   0.807768 0.751147 0.268714 -0.168516
C9    C     C_R   0.213144 0.229130 0.122316 -0.098571
C10   C     C_R   0.905404 0.852343 0.347201 -0.106463
C11   C     C_R   0.108474 0.196383 0.041322 -0.092915
C12   C     C_R   0.748445 0.933099 0.025910 -0.124764
C13   C     C_R   0.903466 0.938023 0.421678 -0.100030
C14   C     C_R   0.402437 0.529165 0.075081 -0.211589
C15   C     C_R   0.599966 0.530663 0.170374 -0.228644
C16   C     C_R   0.807054 0.207174 0.297790 -0.123797
C17   C     C_R   0.253150 0.775712 0.685442 -0.107075
C18   C     C_R   0.503184 0.622066 0.114385 0.050061
C19   C     C_R   0.499195 0.430600 0.105850 0.052605
C20   C     C_R   0.602559 0.628799 0.180441 0.030534
C21   C     C_R   0.400165 0.434538 0.076965 0.035212
C22   C     C_R   0.054008 0.471519 0.372886 -0.023878
C23   C     C_R   0.873223 0.299982 0.298652 0.067987
C24   C     C_R   0.138753 0.462710 0.566776 -0.019617
C25   C     C_R   0.140570 0.567320 0.471533 -0.141649
C26   C     C_R   0.043302 0.370742 0.471655 -0.145877
C27   C     C_R   0.173764 0.566322 0.571191 -0.024108
C28   C     C_R   0.992669 0.378815 0.378296 -0.027958
C29   C     C_R   0.600887 0.160627 0.623362 -0.169543
C30   C     C_R   0.400705 0.059722 0.429606 -0.164705
C31   C     C_R   0.600974 0.158701 0.529811 -0.167889
C32   C     C_R   0.400515 0.061486 0.523110 -0.157829
C33   C     C_R   0.500803 0.097056 0.429604 0.138604
C34   C     C_R   0.227027 0.671248 0.674796 0.055873
C35   C     C_R   0.500541 0.101849 0.616900 0.138157
C36   C     C_R   0.962406 0.837891 0.939729 -0.172195
C37   C     C_R   0.866436 0.935251 0.837179 -0.185635
C38   C     C_R   0.870650 0.839812 0.941802 -0.165061
C39   C     C_R   0.958257 0.933107 0.834805 -0.161268
C40   C     C_R   0.407813 0.974261 0.222547 -0.122007
C41   C     C_R   0.591810 0.096326 0.791721 -0.137824
C42   C     C_R   0.831070 0.900528 0.902229 0.138243
C43   C     C_R   0.013661 0.895452 0.896775 0.136855
C44   C     C_R   0.591658 0.315225 0.068507 -0.117377
C45   C     C_R   0.500542 0.052257 0.326074 0.037289
C46   C     C_R   0.409772 0.701287 0.008577 -0.131566
C47   C     C_R   0.592857 0.066824 0.314985 -0.129132
C48   C     C_R   0.408401 0.004594 0.699824 -0.137495
C49   C     C_R   0.407181 0.222730 0.973533 -0.122781
C50   C     C_R   0.592533 0.791827 0.096316 -0.148634
C51   C     C_R   0.805310 0.300393 0.208240 -0.152001
C52   C     C_R   0.249205 0.683902 0.778138 -0.137436
C53   C     C_R   0.195204 0.903328 0.995158 -0.149525
C54   C     C_R   0.748424 0.025563 0.933580 -0.136109
C55   C     C_R   0.130217 0.931692 0.932053 0.047923
C56   C     C_R   0.500187 0.067429 0.698299 0.051465
C57   C     C_R   0.773688 0.947128 0.947938 0.035786
C58   C     C_2   0.034548 0.468364 0.267216 0.474847
C59   C     C_2   0.202105 0.447835 0.656551 0.459621
C60   C     C_R   0.498949 0.326305 0.054602 0.052034
C61   C     C_R   0.502201 0.700747 0.073518 0.067256
C62   C     C_R   0.098172 0.236847 0.967923 -0.116170
H1    H     H_    0.166853 0.018923 0.842866 0.090189
H2    H     H_    0.982564 0.864491 0.350017 0.116149
H3    H     H_    0.325743 0.529624 0.042258 0.123259
H4    H     H_    0.676827 0.532495 0.210798 0.126603
H5    H     H_    0.179848 0.642777 0.470365 0.154325
H6    H     H_    0.007613 0.294328 0.472315 0.151495
H7    H     H_    0.679847 0.198708 0.696476 0.109855
H8    H     H_    0.321842 0.018515 0.355303 0.109731
H9    H     H_    0.679909 0.195328 0.534467 0.112788
H10   H     H_    0.321491 0.021440 0.517263 0.110505
H11   H     H_    0.998562 0.801262 0.982007 0.112949
H12   H     H_    0.758647 0.879676 0.058301 0.095529
H13   H     H_    0.832418 0.975653 0.798805 0.111628
H14   H     H_    0.834333 0.172005 0.347234 0.088747
H15   H     H_    0.245237 0.797643 0.622005 0.097511
H16   H     H_    0.839828 0.804449 0.985383 0.111990
H17   H     H_    0.991642 0.971923 0.794656 0.116252
H18   H     H_    0.322030 0.941770 0.200062 0.096154
H19   H     H_    0.676572 0.157546 0.825501 0.086508
H20   H     H_    0.677234 0.378945 0.123629 0.100148
H21   H     H_    0.325442 0.650810 0.986310 0.095014
H22   H     H_    0.678913 0.120435 0.378097 0.096570
H23   H     H_    0.016839 0.210290 0.904413 0.109038
H24   H     H_    0.323694 0.980805 0.648411 0.090061
H25   H     H_    0.321251 0.199684 0.937887 0.117487
H26   H     H_    0.678456 0.825278 0.152098 0.118654
H27   H     H_    0.828390 0.354277 0.176233 0.089810
H28   H     H_    0.234682 0.621750 0.802290 0.097533
H29   H     H_    0.167978 0.841776 0.018384 0.093113
H30   H     H_    0.758596 0.058047 0.880400 0.094087
H31   H     H_    0.035398 0.139593 0.035542 0.120485
H32   H     H_    0.979090 0.016372 0.482134 0.121484
H33   H     H_    0.993817 0.389546 0.192610 0.007730
H34   H     H_    0.802550 0.989004 0.475887 0.113284
H35   H     H_    0.288360 0.509533 0.716533 0.022287
H36   H     H_    0.182969 0.342780 0.919420 0.131835
H37   H     H_    0.629609 0.810780 0.338255 0.120927
H38   H     H_    0.388305 0.331038 0.196984 0.117399
H39   H     H_    0.810461 0.686129 0.210686 0.120016
H40   H     H_    0.220920 0.196975 0.178523 0.113441
N1    N     N_R   0.293810 0.002730 0.945950 -0.041548
N2    N     N_R   0.443210 0.997250 0.791090 -0.039579
N3    N     N_R   0.443180 0.152110 0.945950 -0.043677
N4    N     N_R   0.556820 0.847890 0.054050 -0.040663
N5    N     N_R   0.706170 0.208950 0.152090 -0.039658
N6    N     N_R   0.293830 0.791050 0.847910 -0.039588
N7    N     N_R   0.293800 0.945910 0.002760 -0.038490
N8    N     N_R   0.706200 0.054090 0.997240 -0.039296
N9    N     N_R   0.706190 0.997270 0.054050 -0.039756
N10   N     N_R   0.706160 0.152130 0.208910 -0.040442
N11   N     N_R   0.293840 0.847870 0.791090 -0.043098
N12   N     N_R   0.443140 0.945920 0.152090 -0.039949
N13   N     N_R   0.556860 0.054080 0.847910 -0.037002
N14   N     N_R   0.556830 0.208940 0.002760 -0.041525
N15   N     N_R   0.443170 0.791060 0.997240 -0.041396
N16   N     N_R   0.556790 0.002750 0.208910 -0.039298
Ni1   Ni    Ni4+2 0.369690 0.999990 0.869700 0.213172
Ni2   Ni    Ni4+2 0.630310 0.000010 0.130300 0.214217
Ni3   Ni    Ni4+2 0.369670 0.869670 0.000000 0.213640
Ni4   Ni    Ni4+2 0.630330 0.130330 0.000000 0.211295
O1    O     O_2   0.066542 0.553519 0.262668 -0.593469
O2    O     O_2   0.159867 0.365539 0.663131 -0.601678

loop_
_geom_bond_atom_site_label_1
_geom_bond_atom_site_label_2
_ccdc_geom_bond_type
C12   H12   S    
C33   C45   S    
N5    N10   A    
C49   H25   S    
N3    N14   A    
C52   H28   S    
C25   H5    S    
C24   C27   A    
N6    Ni3   S    
C11   C62   A    
C17   N11   A    
C32   H10   S    
C15   C19   A    
C58   O1    D    
C49   C60   A    
N14   Ni4   S    
C14   C21   A    
C19   C21   A    
C24   C26   A    
C38   C42   A    
C44   H20   S    
C48   N2    A    
C54   N8    A    
C48   C56   A    
C37   C42   A    
C2    C13   A    
N15   Ni3   S    
N8    N9    A    
N11   Ni1   S    
N12   Ni3   S    
C47   N16   A    
C40   N12   A    
C9    H40   S    
C22   C25   A    
C53   H29   S    
C40   H18   S    
C8    H39   S    
C1    N1    A    
C50   H26   S    
N2    Ni1   S    
C11   H31   S    
C31   H9    S    
C37   H13   S    
N13   Ni4   S    
C22   C28   A    
C40   C45   A    
C41   N13   A    
C1    H1    S    
C42   C57   S    
C17   H15   S    
C30   H8    S    
C29   H7    S    
C45   C47   A    
C27   C34   S    
C15   C20   A    
C37   C39   A    
C62   H23   S    
N1    Ni1   S    
C7    H38   S    
C46   C61   A    
C32   C35   A    
C4    C6    A    
C5    C7    A    
C39   C43   A    
C38   H16   S    
C23   C28   S    
C15   H4    S    
C46   N15   A    
N9    Ni2   S    
C39   H17   S    
N6    N11   A    
C2    C4    A    
C58   H33   S    
C41   C56   A    
C54   H30   S    
N2    N13   A    
C23   C51   A    
C41   H19   S    
C31   C33   A    
C47   H22   S    
C9    C11   A    
C44   N14   A    
N12   N16   A    
C12   C57   A    
C43   C55   S    
C16   C23   A    
C49   N3    A    
N4    N15   A    
C59   H35   S    
C48   H24   S    
C17   C34   A    
C53   C55   A    
C16   N10   A    
N10   Ni2   S    
C3    C62   A    
C53   N7    A    
C59   O2    D    
C7    C9    A    
C30   C33   A    
N4    Ni2   S    
C35   C56   S    
C16   H14   S    
C34   C52   A    
C14   C18   A    
C8    C10   A    
C10   H2    S    
C3    C5    A    
C10   C13   A    
C22   C58   S    
C6    C8    A    
C18   C61   S    
C19   C60   S    
C25   C27   A    
C6    C20   S    
C29   C35   A    
C26   C28   A    
C13   H32   S    
N1    N7    A    
C26   H6    S    
C2    H34   S    
C1    C55   A    
C29   C31   A    
N8    Ni4   S    
C30   C32   A    
C3    H36   S    
N7    Ni3   S    
C44   C60   A    
C24   C59   S    
C36   C38   A    
C14   H3    S    
C18   C20   A    
N16   Ni2   S    
C36   H11   S    
C46   H21   S    
C5    C21   S    
C52   N6    A    
C51   N5    A    
C4    H37   S    
C50   N4    A    
C50   C61   A    
N3    Ni1   S    
C36   C43   A    
N5    Ni4   S    
C12   N9    A    
C51   H27   S    
C54   C57   A    
