data_mof_unit_9071.cif
_audit_creation_date              2012-10-26T19:59:15-0400
_audit_creation_method            fapswitch 2.2
_symmetry_space_group_name_H-M    P1
_symmetry_Int_Tables_number       1
_space_group_crystal_system       triclinic
_cell_length_a                    7.441
_cell_length_b                    8.754539
_cell_length_c                    15.961504
_cell_angle_alpha                 95.292247
_cell_angle_beta                  75.694645
_cell_angle_gamma                 103.018267
_cell_volume                      980.899800723

loop_
_atom_site_label
_atom_site_type_symbol
_atom_type_description
_atom_site_fract_x
_atom_site_fract_y
_atom_site_fract_z
_atom_type_partial_charge
C1    C     C_R   0.542462 0.799671 0.505196 0.556453
C2    C     C_R   0.614871 0.507793 0.333524 0.520674
C3    C     C_R   0.316224 0.483520 0.762522 -0.017760
C4    C     C_R   0.684423 0.517844 0.237631 -0.013353
C5    C     C_R   0.079167 0.365557 0.886243 -0.128957
C6    C     C_R   0.922207 0.636841 0.114432 -0.122322
C7    C     C_R   0.126988 0.409730 0.800569 -0.017773
C8    C     C_R   0.873814 0.591916 0.199968 -0.024022
C9    C     C_R   0.444904 0.536751 0.817297 0.017039
C10   C     C_R   0.556451 0.464973 0.182555 -0.027737
C11   C     C_R   0.390549 0.497925 0.905921 0.003030
C12   C     C_R   0.457538 0.200329 0.494804 0.555280
C13   C     C_R   0.611903 0.503811 0.093947 -0.042091
C14   C     C_R   0.218298 0.388420 0.934237 -0.035535
C15   C     C_R   0.783637 0.613938 0.066134 -0.005184
C16   C     C_R   0.512215 0.547347 0.964413 -0.022256
C17   C     C_R   0.492482 0.452686 0.034631 -0.099654
C18   C     C_1   0.360583 0.390569 0.218916 0.280781
C19   C     C_1   0.641047 0.609668 0.780339 0.303208
C20   C     C_1   0.017366 0.641908 0.249211 0.255019
C21   C     C_1   0.983173 0.358866 0.751536 0.247189
C22   C     C_R   0.353075 0.310843 0.042908 0.301845
C23   C     C_R   0.648935 0.689719 0.956366 0.307291
C24   C     C_R   0.200422 0.293272 0.004228 0.311247
C25   C     C_R   0.802153 0.708866 0.995996 0.247270
C26   C     C_2   0.555902 0.966804 0.516932 0.250077
C27   C     C_2   0.444100 0.033197 0.483068 0.249181
C28   C     C_R   0.385228 0.492545 0.666509 0.517851
Cu1   Cu    Cu3+1 0.322120 0.483240 0.490330 1.148199
Cu2   Cu    Cu3+1 0.677880 0.516760 0.509670 1.146947
H1    H     H_    0.935348 0.303739 0.912340 0.112713
H2    H     H_    0.065889 0.273496 0.409210 0.342193
H3    H     H_    0.066008 0.699046 0.088691 0.140866
H4    H     H_    0.982727 0.134451 0.983707 0.330436
H5    H     H_    0.019829 0.867425 0.016243 0.367278
H6    H     H_    0.502213 0.193807 0.085816 0.322500
H7    H     H_    0.715909 0.908812 0.922817 0.365151
H8    H     H_    0.732836 0.985097 0.591954 0.338500
H9    H     H_    0.267167 0.014904 0.408046 0.338540
H10   H     H_    0.934517 0.727145 0.590228 0.342247
N1    N     N_2   0.945180 0.542040 0.524240 0.108593
N2    N     N_2   0.054820 0.457960 0.475760 0.108250
N3    N     N_1   0.204172 0.330908 0.246972 -0.224085
N4    N     N_1   0.797692 0.668246 0.751934 -0.239577
N5    N     N_1   0.132529 0.682910 0.288428 -0.208857
N6    N     N_1   0.867820 0.317111 0.712478 -0.216328
O1    O     O_R   0.384450 0.714270 0.493720 -0.408534
O2    O     O_3   0.957414 0.828238 0.968396 -0.693609
O3    O     O_3   0.368355 0.182053 0.082621 -0.632732
O4    O     O_3   0.621109 0.812246 0.915327 -0.671378
O5    O     O_3   0.674597 0.055156 0.566498 -0.677760
O6    O     O_3   0.325407 0.944846 0.433501 -0.678135
O7    O     O_3   0.031046 0.663122 0.567541 -0.546098
O8    O     O_3   0.969119 0.337191 0.432204 -0.546871
O9    O     O_R   0.615550 0.285730 0.506280 -0.408624
O10   O     O_R   0.684880 0.742590 0.510050 -0.557110
O11   O     O_R   0.315120 0.257410 0.489950 -0.557135
O12   O     O_R   0.265540 0.477900 0.617090 -0.469702
O13   O     O_R   0.734460 0.522100 0.382910 -0.472240
O14   O     O_R   0.565970 0.506210 0.633420 -0.513462
O15   O     O_R   0.434030 0.493790 0.366580 -0.510492
O16   O     O_3   0.049260 0.169994 0.030540 -0.646470

loop_
_geom_bond_atom_site_label_1
_geom_bond_atom_site_label_2
_ccdc_geom_bond_type
C2    C4    S    
C6    H3    S    
Cu2   N1    S    
Cu1   Cu2   S    
C3    C9    A    
C28   O12   A    
Cu1   N2    S    
Cu2   O9    S    
C17   C22   A    
C2    O15   A    
C13   C17   A    
C4    C8    A    
Cu2   O13   S    
C28   O14   A    
H9    O6    S    
C5    C14   A    
Cu1   O15   S    
C7    C21   S    
C26   O5    S    
C27   O6    S    
H7    O4    S    
C9    C11   A    
C25   O2    S    
N1    O7    S    
C26   C27   D    
C8    C20   S    
Cu1   O1    S    
C22   O3    S    
C6    C8    A    
H5    O2    S    
Cu1   O12   S    
H2    O8    S    
C3    C28   S    
C1    O10   A    
Cu1   O11   S    
H10   O7    S    
C16   C23   A    
C3    C7    A    
C23   C25   A    
C13   C15   A    
C1    C26   S    
C10   C18   S    
C11   C14   A    
C22   C24   A    
C15   C25   A    
C12   O9    A    
C12   O11   A    
C12   C27   S    
C4    C10   A    
H4    O16   S    
C19   N4    T    
C21   N6    T    
N1    N2    D    
C14   C24   A    
C5    C7    A    
C2    O13   A    
C1    O1    A    
C23   O4    S    
C24   O16   S    
H8    O5    S    
C6    C15   A    
C18   N3    T    
Cu2   O10   S    
C9    C19   S    
C11   C16   A    
N2    O8    S    
H6    O3    S    
C20   N5    T    
C16   C17   A    
C5    H1    S    
C10   C13   A    
Cu2   O14   S    
