data_mof_unit_19310.cif
_audit_creation_date              2012-12-11T14:56:26-0500
_audit_creation_method            fapswitch 2.2
_symmetry_space_group_name_H-M    P1
_symmetry_Int_Tables_number       1
_space_group_crystal_system       triclinic
_cell_length_a                    10.530817
_cell_length_b                    10.712945
_cell_length_c                    17.16619
_cell_angle_alpha                 80.178736
_cell_angle_beta                  89.924401
_cell_angle_gamma                 119.223092
_cell_volume                      1657.2915661

loop_
_atom_site_label
_atom_site_type_symbol
_atom_type_description
_atom_site_fract_x
_atom_site_fract_y
_atom_site_fract_z
_atom_type_partial_charge
C1    C     C_R   0.224245 0.855399 0.129035 0.550132
C2    C     C_R   0.827239 0.451658 0.252266 -0.067246
C3    C     C_R   0.812481 0.433568 0.173533 -0.037851
C4    C     C_R   0.671694 0.370615 0.146826 -0.012899
C5    C     C_1   0.669022 0.848361 0.205398 -0.022948
C6    C     C_1   0.680432 0.838600 0.274726 -0.024125
C7    C     C_1   0.183169 0.828001 0.211555 -0.027036
C8    C     C_1   0.153471 0.822006 0.279991 -0.022910
C9    C     C_1   0.645350 0.324477 0.778150 -0.028385
C10   C     C_1   0.653069 0.346383 0.707661 -0.067190
C11   C     C_R   0.619834 0.707430 0.807322 0.017564
C12   C     C_R   0.639921 0.285531 0.083887 0.549988
C13   C     C_R   0.588695 0.696189 0.729806 0.065360
C14   C     C_R   0.667460 0.820447 0.667747 0.008291
C15   C     C_R   0.762535 0.957529 0.687200 -0.054641
C16   C     C_R   0.773370 0.969958 0.766380 -0.161358
C17   C     C_R   0.696079 0.846382 0.826387 -0.031412
C18   C     C_R   0.224788 0.967334 0.758177 0.065210
C19   C     C_R   0.220625 0.955176 0.679778 -0.133343
C20   C     C_R   0.164715 0.819166 0.659530 -0.025000
C21   C     C_R   0.131259 0.695581 0.717365 -0.090139
C22   C     C_R   0.145069 0.706336 0.796653 0.049483
C23   C     C_R   0.640569 0.858430 0.125389 0.546184
C24   C     C_R   0.190211 0.843007 0.818071 0.064199
C25   C     C_R   0.686642 0.809483 0.357067 0.545910
C26   C     C_R   0.725337 0.456433 0.382741 0.544995
C27   C     C_R   0.104189 0.810714 0.359287 0.541845
C28   C     C_R   0.677931 0.797807 0.586998 0.550031
C29   C     C_R   0.679040 0.382689 0.624617 0.549193
C30   C     C_R   0.101989 0.802673 0.584927 0.543974
C31   C     C_R   0.225590 0.865169 0.898241 0.557668
C32   C     C_R   0.637583 0.284805 0.860877 0.565427
C33   C     C_R   0.649126 0.865711 0.900742 0.539885
C34   C     C_R   0.556210 0.363992 0.190457 -0.146279
C35   C     C_R   0.573587 0.400396 0.265192 -0.043835
C36   C     C_R   0.706838 0.433950 0.299851 -0.027694
Cr1   Cr    Cr6+3 0.402240 0.783890 0.019450 1.068677
Cr2   Cr    Cr6+3 0.382360 0.097900 0.991800 1.078344
Cr3   Cr    Cr6+3 0.715380 0.118170 0.988700 1.055488
Cr4   Cr    Cr6+3 0.936650 0.882420 0.465510 1.068841
Cr5   Cr    Cr6+3 0.605770 0.565620 0.493360 1.044567
Cr6   Cr    Cr6+3 0.921340 0.550490 0.496380 1.073701
H1    H     H_    0.449589 0.322712 0.168105 0.151778
H2    H     H_    0.246962 0.051363 0.635107 0.149103
H3    H     H_    0.085605 0.588899 0.701898 0.167879
H4    H     H_    0.833785 0.077494 0.780931 0.153957
O1    O     O_R   0.521780 0.757110 0.108900 -0.498301
O2    O     O_R   0.513330 0.228330 0.898660 -0.464780
O3    O     O_R   0.739230 0.266130 0.888050 -0.507394
O4    O     O_R   0.712580 0.991850 0.918770 -0.504198
O5    O     O_3   0.499990 0.999980 0.999980 -0.274770
O6    O     O_R   0.083770 0.911170 0.376030 -0.498153
O7    O     O_R   0.808770 0.880340 0.383890 -0.491389
O8    O     O_R   0.584340 0.689460 0.394160 -0.498495
O9    O     O_R   0.614320 0.443940 0.423590 -0.487031
O10   O     O_R   0.805020 0.410040 0.421340 -0.479955
O11   O     O_R   0.049240 0.685450 0.403290 -0.500111
O12   O     O_R   0.275160 0.783810 0.101120 -0.470249
O13   O     O_R   0.077520 0.903010 0.551800 -0.509627
O14   O     O_R   0.802980 0.872780 0.546830 -0.483372
O15   O     O_R   0.578090 0.681300 0.569920 -0.528112
O16   O     O_R   0.608530 0.436370 0.586530 -0.518169
O17   O     O_R   0.798770 0.401880 0.597100 -0.481916
O18   O     O_R   0.043450 0.677890 0.566230 -0.507106
O19   O     O_3   0.821250 0.666180 0.485090 -0.293729
O20   O     O_R   0.237900 0.972600 0.090980 -0.513608
O21   O     O_R   0.511190 0.220540 0.061620 -0.495470
O22   O     O_R   0.736920 0.257720 0.063840 -0.503138
O23   O     O_R   0.710450 0.984050 0.081720 -0.494486
O24   O     O_R   0.524090 0.765520 0.933110 -0.507292
O25   O     O_R   0.277300 0.791600 0.938160 -0.509019
O26   O     O_R   0.240210 0.981010 0.915190 -0.468566
N1    N     N_3   0.103488 0.575389 0.853985 -0.607934
H5    H     H_    0.196873 0.580410 0.877584 0.273395
H6    H     H_    0.031527 0.566425 0.899412 0.251343
C37   C     C_1   0.447710 0.391161 0.305467 0.253282
N2    N     N_1   0.346526 0.383598 0.337321 -0.235757
C38   C     C_1   0.963033 0.474683 0.284342 0.237596
N3    N     N_1   0.070859 0.490414 0.309315 -0.235706
C39   C     C_1   0.941241 0.472114 0.121952 0.226693
N4    N     N_1   0.043011 0.501640 0.080764 -0.269414
C40   C     C_1   0.555799 0.576313 0.868777 0.250094
N5    N     N_1   0.503626 0.473520 0.918787 -0.266036
N6    N     N_3   0.470304 0.559676 0.717355 -0.620615
H7    H     H_    0.510111 0.505658 0.689078 0.268246
H8    H     H_    0.394858 0.577786 0.684943 0.257672
C41   C     C_1   0.843392 0.088725 0.627383 0.218763
N7    N     N_1   0.908531 0.193540 0.579469 -0.253003
N8    N     N_3   0.259472 0.106151 0.775910 -0.565312
H9    H     H_    0.177901 0.129603 0.756586 0.234196
H10   H     H_    0.357629 0.186109 0.743161 0.227552

loop_
_geom_bond_atom_site_label_1
_geom_bond_atom_site_label_2
_ccdc_geom_bond_type
Cr3   O5    S    
C41   N7    T    
C29   O17   A    
Cr4   O14   S    
C30   O18   A    
N1    H6    S    
N1    H5    S    
C23   O23   A    
C19   C20   A    
Cr5   O15   S    
C26   O9    A    
C7    C8    T    
Cr2   O26   S    
C20   C30   S    
C27   O6    A    
C12   O22   A    
C13   N6    S    
C18   C24   A    
C25   O7    A    
C18   C19   A    
C5    C6    T    
Cr1   O5    S    
C6    C25   S    
C15   C16   A    
C34   C35   A    
Cr3   O22   S    
Cr5   O9    S    
C9    C32   S    
Cr6   O10   S    
Cr2   O20   S    
C16   C17   A    
Cr6   O19   S    
C4    C12   S    
C9    C10   T    
Cr2   O2    S    
Cr1   O12   S    
C28   O15   A    
C31   O25   A    
Cr4   O13   S    
C13   C14   A    
C32   O2    A    
C17   C33   S    
Cr5   O16   S    
C3    C39   S    
Cr6   O11   S    
C21   H3    S    
C28   O14   A    
C11   C40   S    
Cr5   O8    S    
C12   O21   A    
C4    C34   A    
C35   C37   S    
C23   O1    A    
C25   O8    A    
N6    H7    S    
C27   O11   A    
C16   H4    S    
C38   N3    T    
Cr5   O19   S    
Cr2   O5    S    
C33   O4    A    
Cr4   O6    S    
C40   N5    T    
C35   C36   A    
C2    C38   S    
C5    C23   S    
C30   O13   A    
C20   C21   A    
C1    O20   A    
Cr3   O23   S    
C37   N2    T    
C33   O24   A    
C26   C36   S    
C31   O26   A    
Cr3   O3    S    
Cr4   O7    S    
Cr4   O19   S    
Cr1   O25   S    
C22   C24   A    
Cr1   O1    S    
C3    C4    A    
Cr6   O18   S    
C19   H2    S    
C15   C41   S    
C2    C36   A    
C29   O16   A    
C11   C17   A    
C1    C7    S    
C18   N8    S    
C34   H1    S    
N6    H8    S    
C39   N4    T    
C26   O10   A    
Cr1   O24   S    
C2    C3    A    
C24   C31   S    
C1    O12   A    
C11   C13   A    
C10   C29   S    
C32   O3    A    
Cr3   O4    S    
Cr2   O21   S    
N8    H10   S    
C8    C27   S    
C14   C15   A    
C22   N1    S    
C14   C28   S    
N8    H9    S    
C21   C22   A    
Cr6   O17   S    
