data_mof_unit_27886.cif
_audit_creation_date              2012-12-10T16:55:05-0500
_audit_creation_method            fapswitch 2.2
_symmetry_space_group_name_H-M    P1
_symmetry_Int_Tables_number       1
_space_group_crystal_system       triclinic
_cell_length_a                    9.735739
_cell_length_b                    10.929967
_cell_length_c                    15.515258
_cell_angle_alpha                 89.843569
_cell_angle_beta                  73.856169
_cell_angle_gamma                 90.325492
_cell_volume                      1585.85302685

loop_
_atom_site_label
_atom_site_type_symbol
_atom_type_description
_atom_site_fract_x
_atom_site_fract_y
_atom_site_fract_z
_atom_type_partial_charge
C1    C     C_R   0.001911 0.265755 0.495105 0.831334
C2    C     C_R   0.674678 0.512827 0.908696 0.089131
C3    C     C_R   0.772208 0.482619 0.958183 0.168308
C4    C     C_R   0.528126 0.533769 0.954370 0.065108
C5    C     C_R   0.478512 0.512858 0.048694 0.081006
C6    C     C_R   0.579835 0.483012 0.095492 -0.224656
C7    C     C_R   0.723717 0.469099 0.050905 -0.246862
C8    C     C_R   0.430300 0.577430 0.909084 -0.218093
C9    C     C_R   0.287677 0.595382 0.953760 -0.227988
C10   C     C_R   0.236300 0.569987 0.044949 0.120355
C11   C     C_R   0.329854 0.526200 0.093246 0.091646
C12   C     C_R   0.917012 0.499606 0.672114 0.797805
C13   C     C_R   0.091875 0.590427 0.088286 -0.213221
C14   C     C_R   0.036318 0.569036 0.180375 0.169161
C15   C     C_R   0.271028 0.497396 0.184477 -0.303452
C16   C     C_2   0.891025 0.932802 0.497217 -0.162252
C17   C     C_2   0.997213 0.865960 0.511486 -0.327006
C18   C     C_2   0.892146 0.065980 0.505260 -0.170921
C19   C     C_2   0.010805 0.135610 0.475689 0.039530
C20   C     C_2   0.419604 0.402848 0.510544 0.011610
C21   C     C_2   0.579761 0.401731 0.493771 -0.099448
C22   C     C_R   0.999143 0.734386 0.502687 0.847144
C23   C     C_R   0.082610 0.504623 0.327802 0.800772
C24   C     C_R   0.870980 0.498040 0.770741 -0.052932
C25   C     C_R   0.127547 0.521155 0.229254 -0.066683
C26   C     C_R   0.917575 0.465029 0.914176 -0.212287
C27   C     C_R   0.966999 0.473916 0.821026 -0.195510
C28   C     C_R   0.726616 0.517356 0.814686 -0.249569
Cu1   Cu    Cu3+1 0.138640 0.500020 0.499980 0.933635
Cu2   Cu    Cu3+1 0.861360 0.499980 0.500020 0.925870
H1    H     H_    0.022765 0.626260 0.050255 0.141174
H2    H     H_    0.085228 0.908645 0.530602 0.169132
H3    H     H_    0.790773 0.107879 0.539555 0.134279
H4    H     H_    0.634432 0.315285 0.477016 0.153596
H5    H     H_    0.335022 0.455548 0.222756 0.159975
H6    H     H_    0.216953 0.630010 0.916423 0.146565
H7    H     H_    0.992746 0.442636 0.951757 0.142961
H8    H     H_    0.079201 0.458563 0.788362 0.157380
H9    H     H_    0.552556 0.473000 0.167332 0.144385
N1    N     N_2   0.346430 0.498660 0.500980 -0.133982
N2    N     N_2   0.652550 0.498630 0.501000 -0.289202
O1    O     O_R   0.117050 0.321960 0.499980 -0.578677
O2    O     O_R   0.882890 0.321920 0.500020 -0.593823
O3    O     O_R   0.052910 0.500040 0.629810 -0.573498
O4    O     O_R   0.818750 0.499990 0.629840 -0.579909
O5    O     O_R   0.117110 0.678080 0.499980 -0.587692
O6    O     O_R   0.882950 0.678040 0.500020 -0.581050
O7    O     O_R   0.181250 0.500010 0.370160 -0.591912
O8    O     O_R   0.947090 0.499960 0.370190 -0.564633
H10   H     H_    0.797497 0.445951 0.089315 0.157843
H11   H     H_    0.797920 0.889659 0.484363 0.165170
C29   C     C_3   0.150649 0.089896 0.414272 -0.847840
H12   H     H_    0.197625 0.160388 0.362567 0.223692
H13   H     H_    0.228013 0.072339 0.453564 0.222899
H14   H     H_    0.136062 0.006606 0.376982 0.247825
H15   H     H_    0.363301 0.317057 0.530619 0.124738
C30   C     C_3   0.419565 0.601476 0.446348 -0.487667
H16   H     H_    0.353939 0.637596 0.404536 0.228182
H17   H     H_    0.434528 0.677691 0.490050 0.153219
H18   H     H_    0.521191 0.575605 0.396606 0.167043
H19   H     H_    0.595844 0.571438 0.534412 0.217028
C31   C     C_3   0.882259 0.602062 0.223886 -0.847468
H20   H     H_    0.875849 0.669500 0.278240 0.242664
H21   H     H_    0.831401 0.644446 0.175383 0.219693
H22   H     H_    0.819452 0.518637 0.251200 0.242072
H23   H     H_    0.655771 0.531937 0.773530 0.153330
H24   H     H_    0.460910 0.603126 0.839290 0.140974

loop_
_geom_bond_atom_site_label_1
_geom_bond_atom_site_label_2
_ccdc_geom_bond_type
C8    C9    A    
C9    H6    S    
C28   H23   S    
C29   H14   S    
Cu2   N2    S    
Cu1   Cu2   S    
C21   H4    S    
Cu1   O1    S    
C23   O7    A    
C1    O2    A    
C9    C10   A    
C12   C24   S    
Cu2   O4    S    
C2    C4    A    
C17   C22   S    
C31   H22   S    
C16   H11   S    
N2    H19   S    
Cu1   O5    S    
C20   H15   S    
C24   C27   A    
C22   O6    A    
C26   C27   A    
C26   H7    S    
C13   C14   A    
C29   H12   S    
C30   H16   S    
C31   H20   S    
C21   N2    D    
C14   C25   A    
Cu1   N1    S    
C15   H5    S    
C22   O5    A    
Cu2   O8    S    
C29   H13   S    
C5    C11   A    
C6    C7    A    
C2    C3    A    
C23   C25   S    
Cu1   O3    S    
C5    C6    A    
C20   N1    D    
C18   H3    S    
Cu2   O2    S    
C15   C25   A    
C30   H17   S    
C23   O8    A    
C10   C11   A    
C27   H8    S    
C31   H21   S    
C14   C31   S    
C1    O1    A    
C1    C19   S    
C20   C21   S    
C8    H24   S    
C16   C18   S    
C18   C19   D    
C12   O3    A    
C4    C8    A    
C12   O4    A    
C17   H2    S    
C6    H9    S    
C4    C5    A    
C30   H18   S    
C2    C28   A    
N1    C30   S    
Cu1   O7    S    
C3    C7    A    
Cu2   O6    S    
C11   C15   A    
C19   C29   S    
C13   H1    S    
C3    C26   A    
C24   C28   A    
C7    H10   S    
C16   C17   D    
C10   C13   A    
