data_mof_unit_28288.cif
_audit_creation_date              2013-03-05T15:58:05-0500
_audit_creation_method            fapswitch 2.2
_symmetry_space_group_name_H-M    P1
_symmetry_Int_Tables_number       1
_space_group_crystal_system       triclinic
_cell_length_a                    15.072644
_cell_length_b                    13.777006
_cell_length_c                    10.743904
_cell_angle_alpha                 90.30187
_cell_angle_beta                  88.840136
_cell_angle_gamma                 90.429596
_cell_volume                      2230.48609529

loop_
_atom_site_label
_atom_site_type_symbol
_atom_site_description
_atom_site_fract_x
_atom_site_fract_y
_atom_site_fract_z
_atom_type_partial_charge
O1    O     O_R   0.370250 0.582280 0.500040 -0.579326
O2    O     O_R   0.370250 0.417720 0.500040 -0.563357
C1    C     C_R   0.329011 0.499767 0.496785 0.816306
O3    O     O_R   0.499970 0.582270 0.317700 -0.593076
O4    O     O_R   0.499970 0.417730 0.317700 -0.593375
C2    C     C_R   0.501111 0.499726 0.259876 0.751009
Cu1   Cu    Cu3+1 0.499990 0.597420 0.500010 0.943133
Cu2   Cu    Cu3+1 0.499990 0.402580 0.500010 0.952837
O5    O     O_R   0.629730 0.582260 0.499980 -0.583312
O6    O     O_R   0.629730 0.417740 0.499980 -0.587445
O7    O     O_R   0.500000 0.582270 0.682320 -0.614985
O8    O     O_R   0.500000 0.417730 0.682320 -0.556652
C3    C     C_R   0.671247 0.500547 0.497025 0.819766
C4    C     C_R   0.500738 0.500023 0.740072 0.857923
C5    C     C_3   0.580236 0.561948 0.070908 -0.430157
C6    C     C_3   0.413009 0.540909 0.075739 -0.427438
H1    H     H_    0.643822 0.532408 0.104766 0.156291
H2    H     H_    0.356711 0.496397 0.113150 0.153090
H3    H     H_    0.575094 0.637559 0.107261 0.164136
H4    H     H_    0.403758 0.616035 0.112131 0.174336
C7    C     C_3   0.579440 0.564155 0.926421 -0.040420
C8    C     C_3   0.412931 0.543105 0.931401 -0.046986
H5    H     H_    0.567483 0.640527 0.897682 0.145373
H6    H     H_    0.409533 0.620452 0.902685 0.146825
H7    H     H_    0.575649 0.362815 0.102681 0.166062
H8    H     H_    0.457125 0.347310 0.105931 0.179678
H9    H     H_    0.574161 0.361086 0.891177 0.171471
H10   H     H_    0.457182 0.346957 0.896522 0.176114
C9    C     C_3   0.512349 0.394471 0.070623 -0.389663
C10   C     C_3   0.501710 0.499320 0.122046 0.125085
C11   C     C_3   0.501405 0.499714 0.878128 0.135461
C12   C     C_3   0.512041 0.394450 0.928220 -0.370172
C13   C     C_R   0.815150 0.570724 0.417331 0.120182
C14   C     C_R   0.768091 0.502375 0.491687 -0.105726
C15   C     C_R   0.813829 0.435215 0.562803 -0.271130
C16   C     C_R   0.906223 0.436126 0.563403 0.123302
C17   C     C_R   0.953952 0.504376 0.490073 0.025129
C18   C     C_R   0.908331 0.571572 0.416888 0.050147
C19   C     C_R   0.951524 0.370216 0.637238 -0.193936
C20   C     C_R   0.043797 0.371363 0.638432 -0.193812
C21   C     C_R   0.091907 0.437678 0.564687 0.136807
C22   C     C_R   0.047373 0.504990 0.489915 -0.010826
C23   C     C_R   0.095995 0.572094 0.414812 -0.036925
C24   C     C_R   0.049110 0.643723 0.348503 0.310860
C25   C     C_R   0.956571 0.640703 0.347638 -0.251368
C26   C     C_R   0.183979 0.438143 0.566099 -0.272885
C27   C     C_R   0.232745 0.500049 0.488043 -0.114306
C28   C     C_R   0.189424 0.563080 0.405492 0.154809
H11   H     H_    0.777137 0.383321 0.619853 0.157931
H12   H     H_    0.915550 0.317937 0.694350 0.142892
H13   H     H_    0.077645 0.319844 0.696405 0.141055
H14   H     H_    0.218015 0.390172 0.628505 0.150037
H15   H     H_    0.922483 0.695847 0.295806 0.214353
C29   C     C_R   0.443758 0.794645 0.579703 0.352222
C30   C     C_R   0.438655 0.208418 0.573377 0.337004
N1    N     N_R   0.499930 0.743810 0.499950 -0.204099
N2    N     N_R   0.499930 0.256190 0.499950 -0.179242
C31   C     C_R   0.553237 0.794189 0.417843 -0.037695
C32   C     C_R   0.556331 0.206072 0.422672 -0.046212
C33   C     C_R   0.553739 0.897215 0.416052 0.023220
C34   C     C_R   0.554910 0.103682 0.418829 0.021980
C35   C     C_R   0.492616 0.948817 0.491937 0.000353
C36   C     C_R   0.492201 0.052415 0.492815 0.036713
C37   C     C_R   0.433240 0.896628 0.568666 -0.038775
C38   C     C_R   0.429808 0.104466 0.567568 -0.120349
C39   C     C_R   0.613651 0.949627 0.339917 -0.181253
C40   C     C_R   0.614607 0.051639 0.341893 -0.186615
C41   C     C_R   0.361740 0.049672 0.630733 0.090206
C42   C     C_R   0.365001 0.947460 0.633015 0.189008
H16   H     H_    0.596811 0.754319 0.355247 0.127137
H17   H     H_    0.603126 0.246111 0.364494 0.132985
H18   H     H_    0.660790 0.911710 0.280137 0.139281
H19   H     H_    0.662512 0.089956 0.283446 0.135370
N3    N     N_3   0.237676 0.610792 0.305395 -0.497208
H20   H     H_    0.210491 0.586604 0.221864 0.206342
H21   H     H_    0.303702 0.589474 0.299100 0.205219
N4    N     N_R   0.093143 0.725088 0.290670 0.139980
O9    O     O_R   0.146171 0.779549 0.355451 -0.319648
O10   O     O_R   0.067808 0.755377 0.182606 -0.364758
N5    N     N_3   0.404716 0.749301 0.687256 -0.564000
H22   H     H_    0.367573 0.688086 0.665359 0.277041
H23   H     H_    0.454300 0.735591 0.751015 0.208624
N6    N     N_3   0.390161 0.265536 0.662214 -0.529332
H24   H     H_    0.400513 0.238942 0.751452 0.179220
H25   H     H_    0.323317 0.267795 0.640339 0.199581
N7    N     N_3   0.283136 0.092694 0.683694 -0.621151
H26   H     H_    0.250975 0.133723 0.616967 0.228397
H27   H     H_    0.296567 0.130919 0.765186 0.216938
N8    N     N_3   0.294294 0.894877 0.694790 -0.535771
H28   H     H_    0.290930 0.917009 0.788013 0.241845
H29   H     H_    0.234402 0.911787 0.652799 0.262222
N9    N     N_3   0.665229 0.534835 0.871384 -0.603608
H30   H     H_    0.686597 0.470491 0.911840 0.225433
H31   H     H_    0.712344 0.588227 0.892597 0.233039
N10   N     N_3   0.334756 0.493212 0.881321 -0.608456
H32   H     H_    0.326433 0.425170 0.922695 0.227038
H33   H     H_    0.278487 0.533685 0.905503 0.234313
N11   N     N_3   0.769666 0.638351 0.340278 -0.613392
H34   H     H_    0.738163 0.689537 0.397506 0.239413
H35   H     H_    0.722809 0.601164 0.287367 0.206322

loop_
_geom_bond_atom_site_label_1
_geom_bond_atom_site_label_2
_geom_bond_distance
_ccdc_geom_bond_type
C36   C38   1.420263 A    
C41   N7    1.434730 S    
C21   C22   1.412431 A    
N10   H32   1.045210 S    
C4    C11   1.483527 S    
Cu1   Cu2   2.684310 S    
N4    O9    1.301638 A    
C5    H3    1.113281 S    
C7    C11   1.563666 S    
C35   C36   1.427305 A    
N3    H21   1.040523 S    
N6    H24   1.043276 S    
C24   N4    1.436174 S    
C13   N11   1.436683 S    
C9    C12   1.530062 S    
O4    C2    1.291922 A    
Cu2   O6    1.965084 S    
O7    C4    1.294973 A    
N7    H27   1.041922 S    
N2    C32   1.364910 A    
C6    C10   1.550707 S    
C26   H14   1.083139 S    
C33   C35   1.411455 A    
C14   C15   1.397681 A    
C8    N10   1.469697 S    
C17   C22   1.408035 A    
C34   C36   1.410533 A    
O5    C3    1.292014 A    
C18   C25   1.401616 A    
C35   C37   1.401509 A    
C39   H18   1.083398 S    
C15   C16   1.392722 A    
C41   C42   1.409755 A    
C15   H11   1.085207 S    
C21   C26   1.388123 A    
C40   H19   1.083415 S    
N8    H29   1.045688 S    
C9    C10   1.552104 S    
C23   C28   1.416088 A    
C6    H4    1.113226 S    
C39   C40   1.405441 A    
C33   C39   1.404463 A    
Cu1   N1    2.016826 S    
O3    Cu1   1.968723 S    
C42   N8    1.437351 S    
C30   C38   1.438491 A    
C29   N5    1.430517 S    
N4    O10   1.301302 A    
H7    C9    1.113665 S    
C29   N1    1.383743 A    
C32   C34   1.411035 A    
C8    C11   1.562280 S    
C28   N3    1.444370 S    
H10   C12   1.108507 S    
N5    H23   1.042932 S    
N3    H20   1.045961 S    
C19   C20   1.391084 A    
N7    H26   1.044469 S    
C31   H16   1.081202 S    
C16   C19   1.399598 A    
O1    C1    1.292172 A    
Cu1   O7    1.970907 S    
C23   C24   1.420922 A    
C17   C18   1.409693 A    
Cu2   N2    2.016806 S    
C34   C40   1.407219 A    
C27   C28   1.416730 A    
Cu2   O8    1.968720 S    
C38   C41   1.431305 A    
N9    H31   1.046081 S    
C13   C14   1.415273 A    
C37   C42   1.415352 A    
O3    C2    1.293017 A    
C20   C21   1.400971 A    
N6    H25   1.039922 S    
O8    C4    1.289650 A    
N11   H35   1.045078 S    
C30   N2    1.369444 A    
C8    H6    1.112769 S    
C22   C23   1.420082 A    
C30   N6    1.427213 S    
C24   C25   1.395344 A    
C5    C10   1.552610 S    
C5    H1    1.112663 S    
C26   C27   1.394335 A    
C16   C17   1.413180 A    
C6    C8    1.551226 S    
C2    C10   1.480664 S    
H9    C12   1.111665 S    
O1    Cu1   1.965055 S    
C11   C12   1.560027 S    
O2    Cu2   1.968165 S    
N5    H22   1.037398 S    
O6    C3    1.297292 A    
O4    Cu2   1.970910 S    
N10   H33   1.046123 S    
C20   H13   1.083960 S    
C13   C18   1.404348 A    
C7    H5    1.115082 S    
O2    C1    1.295050 A    
C3    C14   1.459697 S    
C29   C37   1.420965 A    
C1    C27   1.455946 S    
N9    H30   1.045227 S    
N1    C31   1.369265 A    
C25   H15   1.083119 S    
Cu1   O5    1.968198 S    
C5    C7    1.553101 S    
C19   H12   1.083798 S    
H8    C9    1.113835 S    
C6    H2    1.112951 S    
N11   H34   1.043757 S    
N8    H28   1.045770 S    
C31   C33   1.419586 A    
C32   H17   1.082783 S    
C7    N9    1.469418 S    
