data_mof_unit_35635.cif
_audit_creation_date              2012-12-10T20:42:39-0500
_audit_creation_method            fapswitch 2.2
_symmetry_space_group_name_H-M    P1
_symmetry_Int_Tables_number       1
_space_group_crystal_system       triclinic
_cell_length_a                    8.896483
_cell_length_b                    10.695446
_cell_length_c                    9.925898
_cell_angle_alpha                 91.095629
_cell_angle_beta                  90.013073
_cell_angle_gamma                 90.9032
_cell_volume                      944.177461383

loop_
_atom_site_label
_atom_site_type_symbol
_atom_type_description
_atom_site_fract_x
_atom_site_fract_y
_atom_site_fract_z
_atom_type_partial_charge
C1    C     C_R   0.495743 0.260028 0.498747 0.927929
C2    C     C_R   0.417398 0.929153 0.390711 -0.293013
C3    C     C_R   0.473462 0.870183 0.504467 -0.094624
C4    C     C_R   0.504313 0.938881 0.621439 -0.005748
C5    C     C_3   0.635149 0.933193 0.715947 -0.588796
C6    C     C_3   0.639010 0.075545 0.711437 0.838461
C7    C     C_R   0.402299 0.424799 0.069275 0.176274
C8    C     C_R   0.605671 0.565945 0.074573 0.186829
C9    C     C_R   0.603837 0.568735 0.931076 0.387902
C10   C     C_R   0.402804 0.424181 0.927205 0.123294
C11   C     C_3   0.235311 0.427156 0.921138 -0.524627
C12   C     C_R   0.218912 0.499729 0.499953 0.929396
C13   C     C_3   0.235061 0.428823 0.074363 0.214785
C14   C     C_R   0.495757 0.739487 0.501184 0.887026
C15   C     C_R   0.781072 0.500085 0.500029 0.940603
C16   C     C_1   0.065455 0.499744 0.499929 -0.187340
C17   C     C_1   0.934523 0.499869 0.500011 -0.176239
C18   C     C_R   0.506357 0.066391 0.617993 0.063963
C19   C     C_R   0.477441 0.127554 0.498227 -0.206597
C20   C     C_R   0.420984 0.058933 0.385479 0.178266
H1    H     H_    0.186787 0.340066 0.874776 0.241836
H2    H     H_    0.191410 0.515934 0.122329 0.110381
H3    H     H_    0.380518 0.875280 0.302816 0.168554
H4    H     H_    0.601402 0.896117 0.815564 0.223203
H5    H     H_    0.734527 0.887597 0.669480 0.186116
H6    H     H_    0.193077 0.515215 0.878212 0.187473
N1    N     N_R   0.499010 0.499140 0.142800 -0.188269
N2    N     N_R   0.499010 0.499180 0.857150 -0.166817
O1    O     O_R   0.500020 0.316790 0.614690 -0.569968
O2    O     O_R   0.500000 0.316760 0.385350 -0.585777
O3    O     O_R   0.285350 0.500020 0.614650 -0.620015
O4    O     O_R   0.285340 0.499980 0.385310 -0.610043
O5    O     O_R   0.500000 0.683240 0.614650 -0.645778
O6    O     O_R   0.499980 0.683210 0.385310 -0.624429
O7    O     O_R   0.714660 0.500020 0.614690 -0.606283
O8    O     O_R   0.714650 0.499980 0.385350 -0.603036
Zn1   Zn    Zn3+2 0.500010 0.500020 0.653130 0.983431
Zn2   Zn    Zn3+2 0.499990 0.499980 0.346870 0.968985
N3    N     N_2   0.373185 0.117967 0.266047 -0.248019
H7    H     H_    0.268319 0.086881 0.234636 0.248074
C21   C     C_3   0.481509 0.112753 0.157354 -0.653948
H8    H     H_    0.437479 0.163240 0.069519 0.276094
H9    H     H_    0.501632 0.014223 0.125499 0.204338
H10   H     H_    0.589559 0.157719 0.189140 0.236450
O9    O     O_3   0.174577 0.318626 0.127401 -0.732429
H11   H     H_    0.063891 0.327892 0.124531 0.333296
O10   O     O_3   0.602314 0.133634 0.834526 -0.757019
H12   H     H_    0.690464 0.123107 0.894335 0.337802
O11   O     O_3   0.769872 0.127637 0.653482 -0.766443
H13   H     H_    0.787625 0.084514 0.565533 0.301233
N4    N     N_2   0.712300 0.639970 0.148405 -0.233281
H14   H     H_    0.705852 0.734013 0.128440 0.227468
C22   C     C_3   0.865188 0.595603 0.141502 -0.691607
H15   H     H_    0.914609 0.612012 0.040574 0.253066
H16   H     H_    0.868798 0.494111 0.162853 0.234441
H17   H     H_    0.934948 0.646795 0.217860 0.213709
O12   O     O_3   0.707919 0.645684 0.870580 -0.797811
H18   H     H_    0.679123 0.655738 0.776448 0.387275

loop_
_geom_bond_atom_site_label_1
_geom_bond_atom_site_label_2
_ccdc_geom_bond_type
C14   O6    A    
C7    C10   A    
O4    Zn2   S    
C21   H9    S    
C21   H8    S    
C19   C20   A    
C4    C18   A    
C14   O5    A    
O8    Zn2   S    
C2    C3    A    
N3    C21   S    
C12   O3    A    
C22   H15   S    
C12   O4    A    
C13   O9    S    
C11   C13   S    
C8    N4    S    
O12   H18   S    
C5    H4    S    
N2    Zn1   S    
C3    C14   S    
C5    H5    S    
C4    C5    S    
C1    O1    A    
C1    O2    A    
O7    Zn1   S    
C13   H2    S    
O11   H13   S    
C9    O12   S    
C22   H16   S    
C6    O11   S    
C5    C6    S    
C6    C18   S    
C21   H10   S    
C1    C19   S    
O1    Zn1   S    
C10   C11   S    
N1    Zn2   S    
C10   N2    A    
N4    H14   S    
N3    H7    S    
C12   C16   S    
C15   O8    A    
C7    C13   S    
C7    N1    A    
O2    Zn2   S    
C18   C19   A    
C6    O10   S    
C22   H17   S    
C15   O7    A    
C2    H3    S    
C15   C17   S    
C20   N3    S    
C16   C17   T    
C11   H6    S    
C8    N1    A    
O9    H11   S    
C2    C20   A    
C11   H1    S    
O5    Zn1   S    
C3    C4    A    
O10   H12   S    
C9    N2    A    
O3    Zn1   S    
C8    C9    A    
N4    C22   S    
O6    Zn2   S    
