data_mof_unit_53610.cif
_audit_creation_date              2012-12-10T21:00:34-0500
_audit_creation_method            fapswitch 2.2
_symmetry_space_group_name_H-M    P1
_symmetry_Int_Tables_number       1
_space_group_crystal_system       triclinic
_cell_length_a                    18.12821
_cell_length_b                    18.184299
_cell_length_c                    18.328524
_cell_angle_alpha                 119.947896
_cell_angle_beta                  89.976104
_cell_angle_gamma                 119.958143
_cell_volume                      4279.26876688

loop_
_atom_site_label
_atom_site_type_symbol
_atom_type_description
_atom_site_fract_x
_atom_site_fract_y
_atom_site_fract_z
_atom_type_partial_charge
C1    C     C_R   0.109287 0.220098 0.609773 0.784453
C2    C     C_3   0.449602 0.896832 0.948258 -0.063730
C3    C     C_3   0.473394 0.029553 0.072405 0.567752
C4    C     C_3   0.525549 0.970376 0.931704 0.569776
C5    C     C_3   0.412878 0.431171 0.447978 -0.135773
C6    C     C_3   0.587020 0.568475 0.551876 -0.134236
C7    C     C_3   0.481664 0.404406 0.447297 -0.183094
C8    C     C_3   0.518242 0.595239 0.552536 -0.174753
C9    C     C_3   0.550797 0.499995 0.449389 0.062217
C10   C     C_3   0.449118 0.499684 0.550485 0.061781
C11   C     C_3   0.482949 0.526814 0.449251 -0.186370
C12   C     C_R   0.890737 0.779898 0.390225 0.785151
C13   C     C_3   0.516948 0.472825 0.550595 -0.182974
C14   C     C_R   0.050935 0.139768 0.830909 -0.136962
C15   C     C_R   0.950993 0.861719 0.169453 -0.136447
C16   C     C_R   0.392750 0.780977 0.888180 0.833135
C17   C     C_R   0.607160 0.219016 0.113100 0.803815
C18   C     C_R   0.052346 0.097154 0.743382 -0.135984
C19   C     C_R   0.949374 0.904327 0.256913 -0.138256
C20   C     C_R   0.005651 0.098630 0.683578 0.155660
C21   C     C_R   0.994669 0.901353 0.316447 0.154617
C22   C     C_R   0.956877 0.142295 0.712026 -0.119905
C23   C     C_3   0.980470 0.427539 0.414076 -0.137430
C24   C     C_R   0.042280 0.856203 0.287780 -0.116670
C25   C     C_R   0.955102 0.184166 0.799484 -0.129366
C26   C     C_R   0.044236 0.814298 0.200381 -0.125470
C27   C     C_R   0.002185 0.182973 0.858862 -0.119533
C28   C     C_R   0.998548 0.816994 0.141282 -0.121925
C29   C     C_R   0.954862 0.943603 0.534852 -0.259735
C30   C     C_R   0.045243 0.056394 0.465141 -0.259702
C31   C     C_R   0.948631 0.892240 0.445101 -0.050738
C32   C     C_R   0.051470 0.107753 0.554892 -0.050144
C33   C     C_R   0.994899 0.949222 0.409689 -0.013620
C34   C     C_3   0.019514 0.572452 0.585929 -0.137489
C35   C     C_R   0.005246 0.050763 0.590300 -0.014173
C36   C     C_R   0.669425 0.784932 0.945881 -0.120753
C37   C     C_R   0.326510 0.203936 0.040593 -0.151909
C38   C     C_R   0.625450 0.692994 0.940928 -0.089877
C39   C     C_R   0.372914 0.299272 0.051257 -0.077175
C40   C     C_R   0.110750 0.500695 0.889587 0.789154
C41   C     C_R   0.889094 0.499155 0.110262 0.786920
C42   C     C_R   0.584389 0.686285 0.004422 0.145795
C43   C     C_R   0.417437 0.311456 0.991281 0.149426
C44   C     C_R   0.590129 0.773384 0.074249 -0.176545
C45   C     C_3   0.411375 0.962558 0.975408 -0.288500
C46   C     C_R   0.413718 0.226901 0.919856 -0.178223
C47   C     C_R   0.635377 0.865672 0.079712 -0.154004
C48   C     C_R   0.366244 0.131356 0.908767 -0.141945
C49   C     C_R   0.674349 0.871212 0.015204 -0.086529
C50   C     C_R   0.322772 0.119889 0.969102 -0.119927
C51   C     C_R   0.588156 0.586343 0.054798 -0.258758
C52   C     C_R   0.412258 0.413562 0.944737 -0.257773
C53   C     C_R   0.550068 0.497445 0.053999 -0.045480
C54   C     C_R   0.450262 0.502414 0.945583 -0.043960
C55   C     C_R   0.461180 0.409716 0.998464 -0.021549
C56   C     C_3   0.587182 0.036284 0.028502 -0.293744
C57   C     C_R   0.539536 0.589792 0.000400 -0.018635
C58   C     C_R   0.127654 0.788814 0.950626 -0.124801
C59   C     C_R   0.870228 0.207049 0.043935 -0.133632
C60   C     C_R   0.111247 0.727900 0.982078 -0.121387
C61   C     C_R   0.887243 0.269599 0.014156 -0.131404
C62   C     C_R   0.033571 0.625467 0.934845 0.141911
C63   C     C_R   0.964501 0.372410 0.063132 0.149147
C64   C     C_R   0.392358 0.499964 0.607700 0.773643
C65   C     C_R   0.607630 0.499930 0.392273 0.770248
C66   C     C_R   0.972149 0.585146 0.856640 -0.142573
C67   C     C_3   0.488575 0.036995 0.957849 -0.358308
C68   C     C_R   0.024731 0.411655 0.141605 -0.139053
C69   C     C_R   0.988797 0.646364 0.825478 -0.135901
C70   C     C_R   0.007344 0.348911 0.171242 -0.135213
C71   C     C_R   0.066571 0.748017 0.872312 -0.114846
C72   C     C_R   0.930096 0.246769 0.122540 -0.111592
C73   C     C_R   0.962254 0.555530 0.018897 -0.277598
C74   C     C_R   0.037009 0.443745 0.980391 -0.275807
C75   C     C_R   0.944880 0.497035 0.053080 -0.050385
C76   C     C_R   0.054582 0.502446 0.946400 -0.048589
C77   C     C_R   0.981836 0.439142 0.032518 -0.013893
C78   C     C_3   0.509770 0.962224 0.045647 -0.257268
C79   C     C_R   0.017263 0.559945 0.966589 -0.012423
C80   C     C_R   0.394061 0.501153 0.889614 0.795232
C81   C     C_R   0.606001 0.498760 0.110254 0.799713
C82   C     C_R   0.109000 0.500314 0.607785 0.772232
C83   C     C_R   0.890994 0.499681 0.392216 0.772078
C84   C     C_3   0.076612 0.522036 0.480536 -0.180341
C85   C     C_3   0.923372 0.477956 0.519470 -0.180277
C86   C     C_3   0.043993 0.593738 0.514494 -0.179971
C87   C     C_3   0.955991 0.406253 0.485513 -0.179553
C88   C     C_3   0.948686 0.499287 0.448876 0.061304
C89   C     C_3   0.549690 0.103056 0.055727 -0.116360
C90   C     C_3   0.051299 0.500704 0.551129 0.061165
C91   C     C_3   0.412719 0.114613 0.161190 0.116164
C92   C     C_3   0.335920 0.085107 0.198496 -0.877512
C93   C     C_3   0.615967 0.017451 0.853234 0.090061
C94   C     C_3   0.660774 0.982246 0.786179 -0.839807
H1    H     H_    0.079299 0.670707 0.525527 0.127854
H2    H     H_    0.078098 0.854089 0.333186 0.101642
H3    H     H_    0.917174 0.217417 0.821179 0.122378
H4    H     H_    0.081239 0.779866 0.178513 0.125750
H5    H     H_    0.918481 0.900152 0.561959 0.172527
H6    H     H_    0.081647 0.099863 0.438056 0.172460
H7    H     H_    0.708919 0.942537 0.019296 0.116966
H8    H     H_    0.285773 0.045723 0.960155 0.111229
H9    H     H_    0.700130 0.789484 0.896291 0.121908
H10   H     H_    0.292657 0.194867 0.087168 0.119988
H11   H     H_    0.622680 0.626839 0.887421 0.114155
H12   H     H_    0.920685 0.329286 0.474483 0.128051
H13   H     H_    0.374004 0.363393 0.105841 0.114531
H14   H     H_    0.560137 0.769899 0.124548 0.124763
H15   H     H_    0.446361 0.234652 0.872173 0.120476
H16   H     H_    0.140348 0.540152 0.465338 0.128057
H17   H     H_    0.859638 0.459844 0.534674 0.127826
H18   H     H_    0.640592 0.933067 0.134194 0.126740
H19   H     H_    0.362497 0.065929 0.852939 0.123275
H20   H     H_    0.656386 0.653876 0.098095 0.171768
H21   H     H_    0.344107 0.345940 0.901243 0.171994
H22   H     H_    0.079489 0.795170 0.847935 0.114072
H23   H     H_    0.001028 0.215481 0.926551 0.136213
H24   H     H_    0.916706 0.198364 0.145639 0.113926
H25   H     H_    0.187745 0.867514 0.986772 0.116395
H26   H     H_    0.810721 0.127825 0.006148 0.117580
H27   H     H_    0.159143 0.759992 0.042594 0.117786
H28   H     H_    0.840342 0.238329 0.953363 0.106115
H29   H     H_    0.912035 0.506271 0.819608 0.114400
H30   H     H_    0.084531 0.490803 0.179947 0.114420
H31   H     H_    0.941535 0.614895 0.764885 0.118805
H32   H     H_    0.053712 0.379511 0.232006 0.118072
H33   H     H_    0.932845 0.598430 0.032865 0.177307
H34   H     H_    0.999887 0.784489 0.073649 0.134688
H35   H     H_    0.066290 0.400703 0.966313 0.177557
H36   H     H_    0.963486 0.367719 0.342799 0.139901
H37   H     H_    0.036486 0.632269 0.657202 0.140179
H38   H     H_    0.481482 0.068282 0.921713 0.151652
H39   H     H_    0.515930 0.930712 0.081967 0.153960
H40   H     H_    0.339171 0.931982 0.954115 0.155579
H41   H     H_    0.659183 0.066064 0.049643 0.154579
H42   H     H_    0.467624 0.326180 0.402991 0.133234
H43   H     H_    0.532275 0.673469 0.596745 0.140810
H44   H     H_    0.340544 0.374725 0.406063 0.142282
H45   H     H_    0.087328 0.138917 0.876961 0.129365
H46   H     H_    0.659361 0.624887 0.593767 0.142987
H47   H     H_    0.470008 0.548852 0.406633 0.128810
H48   H     H_    0.529890 0.450784 0.593210 0.127666
H49   H     H_    0.386808 0.103418 0.098912 0.142807
H50   H     H_    0.467057 0.198124 0.210886 0.182049
H51   H     H_    0.360402 0.100157 0.263208 0.260994
H52   H     H_    0.309523 0.131995 0.209342 0.209239
H53   H     H_    0.280454 0.001518 0.150914 0.253257
H54   H     H_    0.669943 0.084125 0.919170 0.132755
H55   H     H_    0.582428 0.043932 0.831812 0.137394
H56   H     H_    0.915685 0.863746 0.123620 0.128649
H57   H     H_    0.609350 0.916985 0.718866 0.255547
H58   H     H_    0.711326 0.047670 0.783214 0.199695
H59   H     H_    0.695524 0.956302 0.806654 0.255219
H60   H     H_    0.089850 0.063223 0.722181 0.121912
H61   H     H_    0.912789 0.939418 0.278269 0.121950
H62   H     H_    0.919996 0.143243 0.666400 0.101679
O1    O     O_3   0.251620 0.500000 0.748430 -0.484692
O2    O     O_R   0.570330 0.268390 0.136490 -0.655282
O3    O     O_R   0.134680 0.268390 0.572240 -0.650630
O4    O     O_R   0.865320 0.731610 0.427760 -0.649920
O5    O     O_R   0.306670 0.731630 0.863510 -0.648320
O6    O     O_R   0.693330 0.268370 0.136490 -0.639817
O7    O     O_R   0.135450 0.439270 0.865360 -0.641556
O8    O     O_R   0.864550 0.560730 0.134640 -0.641241
O9    O     O_R   0.429670 0.560710 0.692610 -0.637394
O10   O     O_R   0.570330 0.439290 0.307390 -0.654531
O11   O     O_R   0.308540 0.439240 0.865360 -0.648690
O12   O     O_3   0.748380 0.500000 0.251570 -0.477956
O13   O     O_R   0.691460 0.560760 0.134640 -0.648366
O14   O     O_R   0.133580 0.439310 0.571150 -0.643664
O15   O     O_R   0.866420 0.560690 0.428850 -0.643613
O16   O     O_R   0.430770 0.560690 0.864590 -0.644085
O17   O     O_R   0.569230 0.439310 0.135410 -0.642539
O18   O     O_R   0.133580 0.560760 0.692610 -0.640130
O19   O     O_R   0.866420 0.439240 0.307390 -0.640116
O20   O     O_3   0.446479 0.055545 0.148922 -0.628814
O21   O     O_3   0.551383 0.933379 0.855723 -0.610099
O22   O     O_R   0.134680 0.560740 0.864590 -0.633163
O23   O     O_R   0.865320 0.439260 0.135410 -0.634203
O24   O     O_R   0.306670 0.439270 0.571150 -0.650275
O25   O     O_R   0.693330 0.560730 0.428850 -0.647060
O26   O     O_R   0.135450 0.268370 0.694460 -0.634235
O27   O     O_R   0.864550 0.731630 0.305540 -0.633883
O28   O     O_R   0.429670 0.731610 0.863510 -0.610495
Zn1   Zn    Zn3+2 0.207400 0.586780 0.791530 0.974832
Zn2   Zn    Zn3+2 0.792600 0.413220 0.208470 0.969530
Zn3   Zn    Zn3+2 0.208510 0.413230 0.792630 0.965825
Zn4   Zn    Zn3+2 0.791490 0.586770 0.207370 0.967680
Zn5   Zn    Zn3+2 0.383150 0.586740 0.791530 0.986699
Zn6   Zn    Zn3+2 0.616850 0.413260 0.208470 0.952608
Zn7   Zn    Zn3+2 0.207400 0.413250 0.618010 0.953618
Zn8   Zn    Zn3+2 0.792600 0.586750 0.381990 0.953862

loop_
_geom_bond_atom_site_label_1
_geom_bond_atom_site_label_2
_ccdc_geom_bond_type
C82   O14   A    
C59   H26   S    
O12   Zn4   S    
C83   O19   A    
C37   H10   S    
C19   H61   S    
C14   C18   A    
C93   H55   S    
C67   H38   S    
C76   C79   A    
C4    O21   S    
C8    H43   S    
C68   H30   S    
C6    C9    S    
C34   C90   S    
C56   C78   S    
C5    H44   S    
C47   C49   A    
O23   Zn2   S    
C22   H62   S    
C15   C19   A    
O2    Zn6   S    
C45   H40   S    
C93   C94   S    
C74   C76   A    
C36   H9    S    
C94   H59   S    
C53   C81   S    
C19   C21   A    
O1    Zn1   S    
C5    C11   S    
C24   H2    S    
O18   Zn1   S    
C49   H7    S    
C64   O24   A    
O25   Zn8   S    
C86   C88   S    
C58   C71   A    
C52   H21   S    
C66   C69   A    
C21   C33   S    
C91   O20   S    
C94   H58   S    
C47   H18   S    
C30   H6    S    
O17   Zn6   S    
C67   C89   S    
O12   Zn6   S    
C93   H54   S    
C60   C62   A    
C34   C86   S    
C61   C63   A    
O5    Zn1   S    
C20   C35   S    
C82   O18   A    
C74   C77   A    
C83   O15   A    
C45   C67   S    
O9    Zn5   S    
C31   C33   A    
C51   C57   A    
C81   O13   A    
C14   C27   A    
O1    Zn5   S    
C2    C16   S    
C80   O11   A    
C91   H49   S    
C18   H60   S    
C44   C47   A    
C59   C72   A    
C70   H32   S    
C85   C87   S    
C83   C88   S    
C69   H31   S    
C10   C13   S    
C23   C87   S    
C4    C56   S    
C92   H53   S    
C73   C75   A    
C84   C90   S    
C42   C57   S    
C78   H39   S    
C52   C54   A    
C54   C80   S    
C53   C55   A    
C2    C45   S    
C39   C43   A    
C37   C39   A    
C46   C48   A    
C59   C61   A    
C51   H20   S    
O12   Zn2   S    
C23   C84   S    
C29   H5    S    
C92   H52   S    
C32   C35   A    
O3    Zn7   S    
C62   C79   S    
C1    O3    A    
C17   C89   S    
O4    Zn8   S    
C40   O7    A    
C17   O6    A    
C91   C92   S    
O6    Zn2   S    
C62   C66   A    
C65   O25   A    
C85   H17   S    
C94   H57   S    
C73   H33   S    
O14   Zn7   S    
C22   C25   A    
C1    C32   S    
C84   H16   S    
C40   C76   S    
C23   H36   S    
C61   H28   S    
O10   Zn6   S    
C34   C85   S    
C81   O17   A    
C39   H13   S    
O1    Zn7   S    
C64   O9    A    
C2    C78   S    
C41   C75   S    
C75   C77   A    
C7    C13   S    
O11   Zn3   S    
C16   O28   A    
C73   C79   A    
C13   H48   S    
C12   O4    A    
C17   O2    A    
C11   H47   S    
C26   H4    S    
C40   O22   A    
C25   H3    S    
C56   C89   S    
C20   C22   A    
C34   H37   S    
C50   H8    S    
C23   C88   S    
C9    C11   S    
C12   C31   S    
O16   Zn5   S    
C21   C24   A    
C87   C90   S    
C41   O8    A    
C56   H41   S    
C5    C7    S    
C91   H50   S    
C63   C77   S    
C85   C88   S    
C43   C55   S    
C7    C9    S    
C63   C68   A    
C44   H14   S    
C93   O21   S    
C30   C33   A    
C92   H51   S    
C66   H29   S    
C41   O23   A    
C8    C10   S    
C10   C64   S    
O1    Zn3   S    
O13   Zn4   S    
C24   C26   A    
O8    Zn4   S    
O24   Zn7   S    
O12   Zn8   S    
C4    C67   S    
C6    C8    S    
C1    O26   A    
C52   C55   A    
C38   C42   A    
C16   O5    A    
C25   C27   A    
C29   C35   A    
C26   C28   A    
C69   C71   A    
C82   C90   S    
C3    C89   S    
O7    Zn3   S    
C38   H11   S    
C36   C38   A    
C42   C44   A    
C7    H42   S    
C29   C31   A    
O27   Zn4   S    
O19   Zn2   S    
C30   C32   A    
C37   C50   A    
C15   C28   A    
C87   H12   S    
C8    C11   S    
C2    C4    S    
C65   O10   A    
C48   C50   A    
C58   H25   S    
C3    C45   S    
O15   Zn8   S    
C18   C20   A    
O26   Zn3   S    
C6    H46   S    
C60   H27   S    
C43   C46   A    
C9    C65   S    
C71   H22   S    
C86   H1    S    
C12   O27   A    
C3    O20   S    
C5    C10   S    
C14   H45   S    
O22   Zn1   S    
C68   C70   A    
C74   H35   S    
C46   H15   S    
C72   H24   S    
C80   O16   A    
O28   Zn5   S    
C84   C86   S    
C70   C72   A    
C27   H23   S    
C51   C53   A    
C3    C78   S    
C58   C60   A    
C15   H56   S    
C36   C49   A    
C28   H34   S    
C48   H19   S    
C6    C13   S    
C54   C57   A    
