data_mof_unit_22304.cif
_audit_creation_date              2012-12-10T18:13:52-0500
_audit_creation_method            fapswitch 2.2
_symmetry_space_group_name_H-M    P1
_symmetry_Int_Tables_number       1
_space_group_crystal_system       triclinic
_cell_length_a                    10.804304
_cell_length_b                    9.481438
_cell_length_c                    23.468483
_cell_angle_alpha                 90.256528
_cell_angle_beta                  91.255306
_cell_angle_gamma                 90.255774
_cell_volume                      2403.49324458

loop_
_atom_site_label
_atom_site_type_symbol
_atom_type_description
_atom_site_fract_x
_atom_site_fract_y
_atom_site_fract_z
_atom_type_partial_charge
C1    C     C_R   0.260038 0.499661 0.496200 0.727998
C2    C     C_R   0.382449 0.708273 0.967990 -0.223557
C3    C     C_R   0.376269 0.707174 0.027498 -0.033828
C4    C     C_R   0.452485 0.612669 0.059654 -0.035700
C5    C     C_R   0.526361 0.514336 0.030102 -0.031224
C6    C     C_R   0.599515 0.415884 0.060532 -0.013524
C7    C     C_R   0.671065 0.317672 0.030864 -0.145006
C8    C     C_R   0.670804 0.316646 0.971544 -0.148937
C9    C     C_R   0.460798 0.613453 0.119971 0.548285
C10   C     C_R   0.598819 0.417179 0.120127 0.542983
C11   C     C_R   0.591813 0.607989 0.243757 0.022195
C12   C     C_R   0.498480 0.499713 0.391045 0.770938
C13   C     C_R   0.578808 0.602912 0.302994 -0.171684
C14   C     C_R   0.503839 0.500384 0.328381 -0.161732
C15   C     C_R   0.439053 0.400874 0.293618 -0.053999
C16   C     C_R   0.452121 0.406860 0.234405 -0.031668
C17   C     C_R   0.526618 0.509370 0.209418 0.214670
C18   C     C_R   0.424719 0.433555 0.762973 -0.036215
C19   C     C_R   0.413986 0.429626 0.703341 -0.044200
C20   C     C_R   0.504254 0.500019 0.671159 -0.142148
C21   C     C_R   0.603217 0.570036 0.698798 -0.061157
C22   C     C_R   0.613136 0.574615 0.758380 0.008751
C23   C     C_R   0.739689 0.500982 0.499533 0.761234
C24   C     C_R   0.522479 0.505746 0.790427 0.209422
C25   C     C_3   0.071377 0.649367 0.478866 -0.383066
C26   C     C_3   0.077721 0.466479 0.555108 -0.381958
C27   C     C_3   0.927861 0.649746 0.476238 -0.160085
C28   C     C_3   0.935778 0.480715 0.558392 -0.142123
C29   C     C_3   0.064213 0.388047 0.449616 0.008259
C30   C     C_3   0.121508 0.499059 0.494175 -0.023639
C31   C     C_3   0.877652 0.503494 0.497340 -0.100295
C32   C     C_3   0.920588 0.386353 0.455848 -0.332467
C33   C     C_3   0.611978 0.084056 0.532044 -0.070037
C34   C     C_3   0.617794 0.916862 0.526774 -0.038258
C35   C     C_3   0.387603 0.082572 0.527409 -0.146376
C36   C     C_3   0.394160 0.917117 0.532686 -0.156293
C37   C     C_3   0.501132 0.082638 0.442494 -0.219739
C38   C     C_3   0.491298 0.915984 0.442503 -0.212705
C39   C     C_R   0.499779 0.500075 0.608766 0.807746
C40   C     C_R   0.597060 0.414029 0.880774 0.535293
C41   C     C_R   0.457394 0.608454 0.879129 0.547872
C42   C     C_R   0.455971 0.611704 0.938918 -0.013333
C43   C     C_R   0.527196 0.513517 0.969877 -0.012265
C44   C     C_R   0.599258 0.414069 0.940579 -0.019678
Cu1   Cu    Cu3+1 0.499860 0.642410 0.500030 0.927768
Cu2   Cu    Cu3+1 0.499860 0.357590 0.500030 0.921996
H1    H     H_    0.325003 0.781799 0.944140 0.188205
H2    H     H_    0.111069 0.687888 0.438466 0.189014
H3    H     H_    0.109790 0.360157 0.568341 0.208905
H4    H     H_    0.102858 0.726475 0.512141 0.184385
H5    H     H_    0.121804 0.541570 0.586165 0.156017
H6    H     H_    0.896702 0.733279 0.506115 0.140929
H7    H     H_    0.916089 0.576838 0.584193 0.164324
H8    H     H_    0.871772 0.397322 0.413957 0.175137
H9    H     H_    0.887234 0.282782 0.471553 0.193381
H10   H     H_    0.695780 0.124332 0.510610 0.076280
H11   H     H_    0.693748 0.894245 0.496640 0.085379
H12   H     H_    0.367405 0.132938 0.568760 0.203431
H13   H     H_    0.398929 0.886858 0.578249 0.215568
H14   H     H_    0.422437 0.125153 0.416793 0.155402
H15   H     H_    0.402316 0.882718 0.421606 0.170152
H16   H     H_    0.306079 0.107510 0.500389 0.158866
H17   H     H_    0.305662 0.872636 0.515594 0.147158
H18   H     H_    0.727512 0.241004 0.053397 0.198947
H19   H     H_    0.726838 0.239236 0.950068 0.197265
H20   H     H_    0.629016 0.678052 0.329791 0.183641
H21   H     H_    0.401670 0.333695 0.206821 0.188031
H22   H     H_    0.356179 0.381859 0.788765 0.186538
N1    N     N_R   0.526761 0.510269 0.851509 -0.483861
N2    N     N_R   0.530438 0.514798 0.148352 -0.488481
N3    N     N_3   0.500250 0.143650 0.501250 -0.163130
N4    N     N_3   0.500250 0.856350 0.501250 -0.161008
O1    O     O_R   0.317570 0.620260 0.500030 -0.590481
O2    O     O_R   0.317570 0.379740 0.500030 -0.607198
O3    O     O_R   0.499840 0.620290 0.417900 -0.586579
O4    O     O_R   0.499840 0.379710 0.417900 -0.600634
O5    O     O_R   0.682190 0.620260 0.500010 -0.618194
O6    O     O_R   0.682190 0.379740 0.500010 -0.598066
O7    O     O_R   0.499920 0.620230 0.582140 -0.548632
O8    O     O_R   0.499920 0.379770 0.582140 -0.561786
O9    O     O_2   0.664119 0.318572 0.852028 -0.496816
O10   O     O_2   0.389589 0.702039 0.848727 -0.503216
O11   O     O_2   0.402638 0.712968 0.150445 -0.474070
O12   O     O_2   0.666438 0.322111 0.149850 -0.497738
C45   C     C_2   0.306795 0.355822 0.675629 0.438672
H23   H     H_    0.293171 0.357981 0.629818 0.048731
O13   O     O_2   0.231541 0.291650 0.703811 -0.501695
H24   H     H_    0.673860 0.619529 0.673549 0.201427
C46   C     C_2   0.717208 0.651726 0.786878 0.482462
H25   H     H_    0.724412 0.657099 0.833009 0.068686
O14   O     O_2   0.796433 0.710684 0.759162 -0.501562
C47   C     C_2   0.878981 0.692070 0.417794 0.423327
H26   H     H_    0.820916 0.621503 0.392348 0.070064
O15   O     O_2   0.902861 0.808616 0.398923 -0.505372
C48   C     C_2   0.884233 0.357385 0.590101 0.378863
H27   H     H_    0.893953 0.251573 0.573130 0.095327
O16   O     O_2   0.835130 0.375517 0.635923 -0.536878
C49   C     C_2   0.097088 0.429526 0.389076 0.269427
H28   H     H_    0.170882 0.504718 0.381552 0.058927
O17   O     O_2   0.046635 0.372580 0.347864 -0.483104
C50   C     C_2   0.111606 0.238460 0.458127 0.391621
H29   H     H_    0.175042 0.192713 0.427963 0.082574
O18   O     O_2   0.080128 0.167045 0.498582 -0.601239
C51   C     C_2   0.627676 0.134302 0.593446 0.517400
H30   H     H_    0.718989 0.159571 0.609499 0.073609
O19   O     O_2   0.544193 0.128952 0.627583 -0.498818
C52   C     C_2   0.661480 0.844037 0.581101 0.424833
H31   H     H_    0.748665 0.787720 0.581891 0.036472
O20   O     O_2   0.602908 0.850691 0.624911 -0.509107
C53   C     C_2   0.282915 0.801582 0.052464 0.497322
H32   H     H_    0.274726 0.909367 0.037494 0.053129
O21   O     O_2   0.208054 0.756965 0.086269 -0.456837
H33   H     H_    0.586919 0.115558 0.420656 0.176134
H34   H     H_    0.566202 0.872715 0.415859 0.176064
C54   C     C_2   0.674091 0.714864 0.218048 0.474950
H35   H     H_    0.687945 0.715884 0.172413 0.076685
O22   O     O_2   0.727973 0.803138 0.247553 -0.492823
C55   C     C_2   0.352504 0.295515 0.317460 0.429849
H36   H     H_    0.321984 0.304508 0.360851 0.037859
O23   O     O_2   0.312562 0.197487 0.288444 -0.492557

loop_
_geom_bond_atom_site_label_1
_geom_bond_atom_site_label_2
_ccdc_geom_bond_type
C50   H29   S    
C33   C51   S    
C41   C42   A    
C48   H27   S    
C36   H13   S    
C51   O19   D    
C7    C8    A    
Cu1   Cu2   S    
C37   C38   S    
C29   C49   S    
C35   H12   S    
C18   C24   A    
C34   C52   S    
C29   C32   S    
C5    C6    A    
C38   H34   S    
C37   H33   S    
C3    C53   S    
C18   H22   S    
C15   C16   A    
Cu1   O1    S    
C18   C19   A    
C32   H8    S    
C53   H32   S    
C1    C30   S    
C25   H4    S    
C19   C20   A    
C16   C17   A    
C54   O22   D    
C34   H11   S    
C52   H31   S    
C46   O14   D    
C36   H17   S    
C11   C54   S    
C32   H9    S    
C38   H15   S    
C33   H10   S    
C5    C43   A    
C21   H24   S    
C35   N3    S    
C8    H19   S    
C50   O18   D    
C21   C22   A    
C55   H36   S    
Cu1   N4    S    
C52   O20   D    
Cu2   O4    S    
C51   H30   S    
C24   N1    S    
C55   O23   D    
C13   H20   S    
C45   O13   D    
C38   N4    S    
C40   N1    A    
C27   C31   S    
C9    N2    A    
C26   H3    S    
Cu2   O6    S    
C20   C39   S    
C45   H23   S    
C35   C36   S    
C23   C31   S    
C43   C44   A    
C29   C30   S    
C31   C32   S    
C47   O15   D    
C33   C34   S    
C29   C50   S    
C27   C47   S    
Cu1   O7    S    
C16   H21   S    
C23   O5    A    
C25   H2    S    
Cu2   N3    S    
C9    O11   S    
C10   N2    A    
C12   C14   S    
C26   C30   S    
C49   O17   D    
C28   C48   S    
C12   O4    A    
C22   C24   A    
C42   C43   A    
C1    O2    A    
C3    C4    A    
C34   N4    S    
Cu2   O2    S    
C27   H6    S    
C41   N1    A    
C25   C30   S    
C11   C17   A    
C40   O9    S    
C28   C31   S    
C8    C44   A    
C4    C5    A    
C19   C45   S    
C6    C10   A    
C28   H7    S    
C48   O16   D    
C6    C7    A    
C2    H1    S    
C25   C27   S    
C26   C28   S    
C15   C55   S    
Cu1   O3    S    
C1    O1    A    
C39   O8    A    
C37   N3    S    
C2    C3    A    
C4    C9    A    
C26   H5    S    
Cu2   O8    S    
C11   C13   A    
C54   H35   S    
C2    C42   A    
C41   O10   S    
C10   O12   S    
C47   H26   S    
C22   C46   S    
C35   H16   S    
C23   O6    A    
C53   O21   D    
C7    H18   S    
C37   H14   S    
C33   N3    S    
C40   C44   A    
C20   C21   A    
C49   H28   S    
C12   O3    A    
C14   C15   A    
Cu1   O5    S    
C46   H25   S    
C13   C14   A    
C17   N2    S    
C36   N4    S    
C39   O7    A    
