data_mof_unit_65089.cif
_audit_creation_date              2012-12-10T19:19:45-0500
_audit_creation_method            fapswitch 2.2
_symmetry_space_group_name_H-M    P1
_symmetry_Int_Tables_number       1
_space_group_crystal_system       triclinic
_cell_length_a                    24.451236
_cell_length_b                    24.451236
_cell_length_c                    39.703778
_cell_angle_alpha                 90.000035
_cell_angle_beta                  89.999963
_cell_angle_gamma                 90.0
_cell_volume                      23737.4175207

loop_
_atom_site_label
_atom_site_type_symbol
_atom_type_description
_atom_site_fract_x
_atom_site_fract_y
_atom_site_fract_z
_atom_type_partial_charge
C1    C     C_R   0.271330 0.228670 0.250000 0.033722
C2    C     C_R   0.728672 0.228672 0.250000 0.033690
C3    C     C_R   0.500002 0.000011 0.621875 0.033208
C4    C     C_R   0.500011 0.000002 0.878125 0.033208
C5    C     C_R   0.500004 0.000001 0.121875 0.033211
C6    C     C_R   0.000002 0.500011 0.878124 0.033210
C7    C     C_R   0.000001 0.500004 0.121875 0.033211
C8    C     C_R   0.500000 0.000000 0.340975 0.500716
C9    C     C_R   0.500000 0.000003 0.659025 0.501135
C10   C     C_R   0.000000 0.500000 0.340975 0.500709
C11   C     C_R   0.000003 0.500000 0.659025 0.500276
C12   C     C_R   0.000000 0.500003 0.840975 0.500276
C13   C     C_R   0.771305 0.728648 0.749986 0.033684
C14   C     C_R   0.000000 0.500000 0.159025 0.500709
C15   C     C_R   0.500003 0.000000 0.840975 0.501135
C16   C     C_R   0.500000 0.000000 0.159025 0.500716
C17   C     C_R   0.605186 0.105186 0.250000 0.503271
C18   C     C_R   0.394814 0.894814 0.750000 0.502486
C19   C     C_R   0.894814 0.605186 0.250000 0.503271
C20   C     C_R   0.105184 0.394812 0.750001 0.502858
C21   C     C_R   0.394814 0.894814 0.250000 0.503275
C22   C     C_R   0.605186 0.105186 0.750000 0.502420
C23   C     C_R   0.105186 0.394814 0.250000 0.503271
C24   C     C_R   0.228672 0.271328 0.250000 0.033691
C25   C     C_R   0.894812 0.605185 0.749999 0.502859
C26   C     C_R   0.605184 0.894812 0.749999 0.502880
C27   C     C_R   0.394814 0.105186 0.250000 0.502414
C28   C     C_R   0.894814 0.394814 0.750000 0.503258
C29   C     C_R   0.105186 0.605186 0.250000 0.502412
C30   C     C_R   0.394812 0.105184 0.750001 0.502881
C31   C     C_R   0.605186 0.894814 0.250000 0.502414
C32   C     C_R   0.105186 0.605186 0.750000 0.503317
C33   C     C_R   0.894814 0.394814 0.250000 0.502415
C34   C     C_R   0.000016 0.500003 0.448780 0.038127
C35   C     C_R   0.728671 0.228671 0.750000 0.033722
C36   C     C_R   0.000024 0.500005 0.551220 0.038174
C37   C     C_R   0.500003 0.000016 0.448780 0.038134
C38   C     C_R   0.500005 0.000024 0.551220 0.038084
C39   C     C_R   0.500024 0.000005 0.948780 0.038084
C40   C     C_R   0.500016 0.000003 0.051220 0.038134
C41   C     C_R   0.000005 0.500024 0.948780 0.038174
C42   C     C_R   0.000003 0.500016 0.051220 0.038127
C43   C     C_1   0.000021 0.500005 0.484866 -0.030083
C44   C     C_1   0.000023 0.500005 0.515134 -0.030105
C45   C     C_1   0.500005 0.000021 0.484866 -0.029950
C46   C     C_R   0.271328 0.771328 0.250000 0.033690
C47   C     C_1   0.500005 0.000024 0.515134 -0.029927
C48   C     C_1   0.500024 0.000005 0.984866 -0.029927
C49   C     C_1   0.500021 0.000005 0.015134 -0.029950
C50   C     C_1   0.000005 0.500024 0.984866 -0.030105
C51   C     C_1   0.000005 0.500021 0.015134 -0.030083
C52   C     C_R   0.276330 0.192643 0.277386 -0.122915
C53   C     C_R   0.739732 0.823412 0.736735 -0.122682
C54   C     C_R   0.807360 0.276327 0.277385 -0.122916
C55   C     C_R   0.192633 0.723683 0.722618 -0.122682
C56   C     C_R   0.723667 0.807355 0.277388 -0.122915
C57   C     C_R   0.228648 0.271305 0.750014 0.033683
C58   C     C_R   0.260240 0.176549 0.736755 -0.122838
C59   C     C_R   0.192640 0.723673 0.277385 -0.122918
C60   C     C_R   0.823429 0.260255 0.736742 -0.122751
C61   C     C_R   0.260250 0.823437 0.736754 -0.122778
C62   C     C_R   0.739743 0.176572 0.263261 -0.122747
C63   C     C_R   0.807345 0.723658 0.722605 -0.122727
C64   C     C_R   0.176574 0.260258 0.263263 -0.122746
C65   C     C_R   0.723677 0.192636 0.722616 -0.122907
C66   C     C_R   0.260257 0.823427 0.263261 -0.122743
C67   C     C_R   0.192623 0.276306 0.722627 -0.122878
C68   C     C_R   0.771328 0.728672 0.250000 0.033691
C69   C     C_R   0.823425 0.739741 0.263266 -0.122748
C70   C     C_R   0.776297 0.692614 0.777370 -0.122879
C71   C     C_R   0.239742 0.323426 0.236737 -0.122748
C72   C     C_R   0.323437 0.760250 0.763246 -0.122778
C73   C     C_R   0.676573 0.239743 0.236739 -0.122747
C74   C     C_R   0.223649 0.307337 0.777399 -0.122726
C75   C     C_R   0.760259 0.676575 0.236734 -0.122747
C76   C     C_R   0.692636 0.223677 0.777384 -0.122907
C77   C     C_R   0.323427 0.760257 0.236739 -0.122743
C78   C     C_R   0.776327 0.307360 0.222615 -0.122916
C79   C     C_R   0.316314 0.152132 0.277264 -0.126202
C80   C     C_R   0.223683 0.692634 0.777382 -0.122682
C81   C     C_R   0.307357 0.223670 0.222613 -0.122915
C82   C     C_R   0.676545 0.760236 0.763238 -0.122837
C83   C     C_R   0.223673 0.692640 0.222615 -0.122918
C84   C     C_R   0.760255 0.323429 0.763258 -0.122751
C85   C     C_R   0.692645 0.776332 0.222612 -0.122916
C86   C     C_R   0.323408 0.239728 0.763272 -0.122683
C87   C     C_R   0.699352 0.863528 0.736509 -0.125553
C88   C     C_R   0.847871 0.316311 0.277263 -0.126202
C89   C     C_R   0.728650 0.771308 0.749985 0.033735
C90   C     C_R   0.152123 0.683698 0.722740 -0.125422
C91   C     C_R   0.683683 0.847866 0.277265 -0.126200
C92   C     C_R   0.300632 0.136445 0.736521 -0.126014
C93   C     C_R   0.152129 0.683689 0.277263 -0.126207
C94   C     C_R   0.863539 0.300641 0.736512 -0.125633
C95   C     C_R   0.300636 0.863548 0.736524 -0.125955
C96   C     C_R   0.699357 0.136463 0.263491 -0.125622
C97   C     C_R   0.847863 0.683680 0.722731 -0.125453
C98   C     C_R   0.136464 0.300644 0.263494 -0.125623
C99   C     C_R   0.683693 0.152125 0.722739 -0.126187
C100  C     C_R   0.771329 0.271329 0.250000 0.033723
C101  C     C_R   0.300643 0.863537 0.263491 -0.125616
C102  C     C_R   0.152119 0.316298 0.722745 -0.126187
C103  C     C_R   0.863534 0.699354 0.263496 -0.125624
C104  C     C_R   0.816289 0.652111 0.777252 -0.126188
C105  C     C_R   0.199356 0.363536 0.236506 -0.125624
C106  C     C_R   0.363548 0.800636 0.763476 -0.125956
C107  C     C_R   0.636463 0.199357 0.236509 -0.125622
C108  C     C_R   0.183671 0.347855 0.777272 -0.125452
C109  C     C_R   0.800646 0.636466 0.236504 -0.125623
C110  C     C_R   0.652125 0.183692 0.777261 -0.126187
C111  C     C_R   0.228672 0.728672 0.750000 0.033646
C112  C     C_R   0.363537 0.800643 0.236508 -0.125616
C113  C     C_R   0.816311 0.347871 0.222737 -0.126203
C114  C     C_R   0.183698 0.652123 0.777259 -0.125421
C115  C     C_R   0.347868 0.183685 0.222736 -0.126201
C116  C     C_R   0.636440 0.800628 0.763472 -0.126012
C117  C     C_R   0.183689 0.652129 0.222737 -0.126207
C118  C     C_R   0.800641 0.363539 0.763488 -0.125633
C119  C     C_R   0.652134 0.816317 0.222735 -0.126201
C120  C     C_R   0.363524 0.199348 0.763498 -0.125554
C121  C     C_R   0.352464 0.147535 0.250000 0.037535
C122  C     C_R   0.728670 0.771330 0.250000 0.033722
C123  C     C_R   0.647527 0.852455 0.749994 0.037825
C124  C     C_R   0.852464 0.352464 0.250000 0.037534
C125  C     C_R   0.147537 0.647537 0.750000 0.037907
C126  C     C_R   0.647535 0.852464 0.250000 0.037536
C127  C     C_R   0.352455 0.147527 0.750006 0.037822
C128  C     C_R   0.147536 0.647536 0.250000 0.037535
C129  C     C_R   0.852464 0.352464 0.750000 0.037654
C130  C     C_R   0.352465 0.852464 0.750000 0.038008
C131  C     C_R   0.647536 0.147536 0.250000 0.037648
C132  C     C_R   0.852454 0.647527 0.749994 0.037716
C133  C     C_R   0.271308 0.228650 0.750015 0.033735
C134  C     C_R   0.147536 0.352463 0.250000 0.037646
C135  C     C_R   0.647536 0.147536 0.750000 0.037540
C136  C     C_R   0.352464 0.852464 0.250000 0.037649
C137  C     C_R   0.147527 0.352455 0.750006 0.037719
C138  C     C_R   0.852463 0.647537 0.250000 0.037645
C139  C     C_R   0.000117 0.549555 0.431206 -0.116871
C140  C     C_R   0.000074 0.450452 0.568793 -0.116862
C141  C     C_R   0.450451 0.000117 0.431207 -0.116813
C142  C     C_R   0.549556 0.000074 0.568794 -0.116821
C143  C     C_R   0.999909 0.450451 0.431207 -0.116844
C144  C     C_R   0.228670 0.728671 0.250000 0.033724
C145  C     C_R   0.999971 0.549556 0.568794 -0.117045
C146  C     C_R   0.549555 0.999909 0.431206 -0.116841
C147  C     C_R   0.450452 0.999971 0.568792 -0.116635
C148  C     C_R   0.500074 0.049556 0.931206 -0.116822
C149  C     C_R   0.500117 0.950451 0.068793 -0.116813
C150  C     C_R   0.950452 0.500074 0.931207 -0.116862
C151  C     C_R   0.049555 0.500117 0.068794 -0.116871
C152  C     C_R   0.499971 0.950452 0.931208 -0.116635
C153  C     C_R   0.499909 0.049555 0.068794 -0.116841
C154  C     C_R   0.049556 0.499970 0.931205 -0.117045
C155  C     C_R   0.771328 0.271328 0.750000 0.033693
C156  C     C_R   0.950451 0.499909 0.068793 -0.116844
C157  C     C_R   0.000111 0.549617 0.396051 -0.127104
C158  C     C_R   0.000068 0.450387 0.603948 -0.127055
C159  C     C_R   0.450386 0.000111 0.396052 -0.127091
C160  C     C_R   0.549618 0.000068 0.603949 -0.127137
C161  C     C_R   0.999903 0.450386 0.396052 -0.127104
C162  C     C_R   0.999965 0.549618 0.603950 -0.127796
C163  C     C_R   0.549617 0.999903 0.396050 -0.127091
C164  C     C_R   0.450387 0.999965 0.603948 -0.126391
C165  C     C_R   0.500068 0.049618 0.896051 -0.127137
C166  C     C_R   0.271330 0.771330 0.750000 0.033786
C167  C     C_R   0.500111 0.950386 0.103948 -0.127092
C168  C     C_R   0.950387 0.500068 0.896051 -0.127054
C169  C     C_R   0.049617 0.500111 0.103949 -0.127104
C170  C     C_R   0.499965 0.950387 0.896052 -0.126391
C171  C     C_R   0.499903 0.049617 0.103950 -0.127091
C172  C     C_R   0.049618 0.499965 0.896050 -0.127796
C173  C     C_R   0.950386 0.499903 0.103948 -0.127104
C174  C     C_R   0.000004 0.500001 0.378125 0.033211
C175  C     C_R   0.000011 0.500002 0.621876 0.033211
C176  C     C_R   0.500001 0.000004 0.378125 0.033211
H1    H     H_    0.000201 0.588104 0.444669 0.109680
H2    H     H_    0.500201 0.911902 0.055329 0.109802
H3    H     H_    0.911903 0.500116 0.944671 0.109717
H4    H     H_    0.088104 0.500201 0.055331 0.109680
H5    H     H_    0.499932 0.911904 0.944672 0.110005
H6    H     H_    0.499829 0.088104 0.055331 0.109744
H7    H     H_    0.088106 0.499932 0.944668 0.109489
H8    H     H_    0.911902 0.499829 0.055329 0.109735
H9    H     H_    0.000193 0.588459 0.382946 0.132078
H10   H     H_    0.000109 0.411544 0.617052 0.132079
H11   H     H_    0.411544 0.000194 0.382948 0.132098
H12   H     H_    0.000117 0.411903 0.555329 0.109717
H13   H     H_    0.588460 0.000108 0.617054 0.132107
H14   H     H_    0.999816 0.411544 0.382948 0.132084
H15   H     H_    0.999921 0.588460 0.617055 0.131107
H16   H     H_    0.588459 0.999816 0.382946 0.132091
H17   H     H_    0.411545 0.999922 0.617051 0.133108
H18   H     H_    0.500108 0.088460 0.882946 0.132106
H19   H     H_    0.500194 0.911543 0.117052 0.132098
H20   H     H_    0.911544 0.500108 0.882948 0.132079
H21   H     H_    0.088459 0.500193 0.117054 0.132078
H22   H     H_    0.499922 0.911545 0.882949 0.133108
H23   H     H_    0.411902 0.000201 0.444671 0.109802
H24   H     H_    0.499816 0.088459 0.117054 0.132091
H25   H     H_    0.088460 0.499921 0.882945 0.131107
H26   H     H_    0.911544 0.499817 0.117052 0.132084
H27   H     H_    0.249802 0.196165 0.299112 0.105395
H28   H     H_    0.779811 0.833437 0.726923 0.105669
H29   H     H_    0.803840 0.249797 0.299110 0.105394
H30   H     H_    0.196147 0.750220 0.700896 0.105455
H31   H     H_    0.750193 0.803831 0.299114 0.105396
H32   H     H_    0.220165 0.166520 0.726939 0.104979
H33   H     H_    0.196160 0.750203 0.299110 0.105393
H34   H     H_    0.588106 0.000116 0.555331 0.109765
H35   H     H_    0.833455 0.220180 0.726926 0.105382
H36   H     H_    0.220170 0.833467 0.726946 0.105253
H37   H     H_    0.779817 0.166548 0.273080 0.105384
H38   H     H_    0.803829 0.750190 0.700881 0.105454
H39   H     H_    0.166550 0.220185 0.273084 0.105385
H40   H     H_    0.750210 0.196153 0.700893 0.105399
H41   H     H_    0.220183 0.833452 0.273080 0.105385
H42   H     H_    0.196144 0.249774 0.700903 0.105397
H43   H     H_    0.833447 0.779813 0.273089 0.105382
H44   H     H_    0.749758 0.696129 0.799091 0.105397
H45   H     H_    0.999829 0.411902 0.444671 0.109735
H46   H     H_    0.279815 0.333450 0.226916 0.105382
H47   H     H_    0.333467 0.720170 0.773054 0.105253
H48   H     H_    0.666548 0.279817 0.226920 0.105384
H49   H     H_    0.250174 0.303814 0.799125 0.105454
H50   H     H_    0.720187 0.666552 0.226911 0.105385
H51   H     H_    0.696153 0.250210 0.799107 0.105399
H52   H     H_    0.333452 0.720183 0.226920 0.105385
H53   H     H_    0.749797 0.303840 0.200890 0.105394
H54   H     H_    0.250220 0.696147 0.799104 0.105455
H55   H     H_    0.303835 0.250197 0.200888 0.105396
H56   H     H_    0.999932 0.588106 0.555331 0.109489
H57   H     H_    0.666513 0.720158 0.773048 0.104979
H58   H     H_    0.250203 0.696160 0.200890 0.105393
H59   H     H_    0.720179 0.333455 0.773074 0.105382
H60   H     H_    0.696169 0.749807 0.200886 0.105396
H61   H     H_    0.333429 0.279803 0.773090 0.105669
H62   H     H_    0.319439 0.124921 0.298707 0.129163
H63   H     H_    0.708923 0.903429 0.726226 0.130112
H64   H     H_    0.875084 0.319433 0.298705 0.129162
H65   H     H_    0.124904 0.680582 0.701301 0.129539
H66   H     H_    0.680557 0.875075 0.298709 0.129162
H67   H     H_    0.588104 0.999829 0.444669 0.109744
H68   H     H_    0.291073 0.096546 0.726230 0.128347
H69   H     H_    0.124916 0.680567 0.298705 0.129154
H70   H     H_    0.903437 0.291078 0.726222 0.130049
H71   H     H_    0.291067 0.903452 0.726244 0.128351
H72   H     H_    0.708919 0.096566 0.273784 0.130078
H73   H     H_    0.875083 0.680564 0.701292 0.129550
H74   H     H_    0.096568 0.291083 0.273788 0.130079
H75   H     H_    0.680574 0.124909 0.701298 0.129174
H76   H     H_    0.291081 0.903434 0.273784 0.130082
H77   H     H_    0.124911 0.319423 0.701301 0.129145
H78   H     H_    0.411904 0.999932 0.555328 0.110005
H79   H     H_    0.903429 0.708915 0.273793 0.130078
H80   H     H_    0.819407 0.624896 0.798693 0.129149
H81   H     H_    0.208917 0.403432 0.226211 0.130076
H82   H     H_    0.403452 0.791067 0.773756 0.128351
H83   H     H_    0.596566 0.208919 0.226216 0.130078
H84   H     H_    0.180548 0.375068 0.798714 0.129545
H85   H     H_    0.791085 0.596571 0.226207 0.130080
H86   H     H_    0.624909 0.180574 0.798702 0.129174
H87   H     H_    0.403434 0.791081 0.226215 0.130082
H88   H     H_    0.819433 0.375084 0.201295 0.129162
H89   H     H_    0.500116 0.088106 0.944669 0.109764
H90   H     H_    0.180582 0.624904 0.798699 0.129539
H91   H     H_    0.375079 0.180561 0.201293 0.129163
H92   H     H_    0.596538 0.791066 0.773757 0.128341
H93   H     H_    0.180567 0.624916 0.201295 0.129155
H94   H     H_    0.791078 0.403437 0.773778 0.130048
H95   H     H_    0.624925 0.819443 0.201291 0.129162
H96   H     H_    0.403421 0.208916 0.773787 0.130116
O1    O     O_3   0.500000 0.000000 0.250000 -0.429060
O2    O     O_R   0.454490 0.000000 0.675180 -0.545572
O3    O     O_R   0.000000 0.545510 0.324820 -0.546997
O4    O     O_R   1.000000 0.454490 0.675180 -0.546838
O5    O     O_R   0.954490 0.500000 0.824820 -0.546838
O6    O     O_R   0.045510 0.500000 0.175180 -0.546997
O7    O     O_R   0.500000 0.954490 0.824820 -0.545571
O8    O     O_R   0.500000 0.045510 0.175180 -0.546995
O9    O     O_R   0.045510 0.500000 0.824820 -0.548424
O10   O     O_R   0.954490 0.500000 0.175180 -0.546993
O11   O     O_R   0.500000 0.045510 0.824820 -0.547149
O12   O     O_3   0.500000 0.000000 0.750000 -0.429114
O13   O     O_R   0.500000 0.954490 0.175180 -0.546991
O14   O     O_R   0.609450 0.064000 0.269610 -0.546264
O15   O     O_R   0.390550 0.936000 0.730390 -0.547468
O16   O     O_R   0.936000 0.609450 0.269610 -0.546264
O17   O     O_R   0.064000 0.390550 0.730390 -0.547778
O18   O     O_R   0.390550 0.936000 0.269610 -0.546259
O19   O     O_R   0.609450 0.064000 0.730390 -0.547547
O20   O     O_R   0.064000 0.390550 0.269610 -0.546264
O21   O     O_R   0.936000 0.609450 0.730390 -0.545997
O22   O     O_R   0.609450 0.936000 0.730390 -0.546146
O23   O     O_3   0.000000 0.500000 0.250000 -0.429054
O24   O     O_R   0.390550 0.064000 0.269610 -0.547552
O25   O     O_R   0.936000 0.390550 0.730390 -0.546274
O26   O     O_R   0.064000 0.609450 0.269610 -0.547556
O27   O     O_R   0.390550 0.064000 0.730390 -0.547580
O28   O     O_R   0.609450 0.936000 0.269610 -0.547552
O29   O     O_R   0.064000 0.609450 0.730390 -0.546210
O30   O     O_R   0.936000 0.390550 0.269610 -0.547552
O31   O     O_R   0.109450 0.564000 0.769610 -0.546209
O32   O     O_R   0.890550 0.436000 0.230390 -0.547552
O33   O     O_R   0.436000 0.109450 0.769610 -0.546147
O34   O     O_3   0.000000 0.500000 0.750000 -0.429081
O35   O     O_R   0.564000 0.890550 0.230390 -0.547552
O36   O     O_R   0.890550 0.436000 0.769610 -0.546274
O37   O     O_R   0.109450 0.564000 0.230390 -0.547556
O38   O     O_R   0.564000 0.890550 0.769610 -0.547579
O39   O     O_R   0.436000 0.109450 0.230390 -0.547552
O40   O     O_R   0.109450 0.436000 0.230390 -0.546263
O41   O     O_R   0.890550 0.564000 0.769610 -0.547779
O42   O     O_R   0.436000 0.890550 0.230390 -0.546259
O43   O     O_R   0.564000 0.109450 0.769610 -0.547547
O44   O     O_R   0.890550 0.564000 0.230390 -0.546264
O45   O     O_R   0.454490 0.000000 0.324820 -0.546991
O46   O     O_R   0.109450 0.436000 0.769610 -0.545995
O47   O     O_R   0.564000 0.109450 0.230390 -0.546264
O48   O     O_R   0.436000 0.890550 0.769610 -0.547468
O49   O     O_R   0.545510 0.000000 0.675180 -0.547148
O50   O     O_R   0.000000 0.454490 0.324820 -0.546993
O51   O     O_R   1.000000 0.545510 0.675180 -0.548424
O52   O     O_R   0.545510 0.000000 0.324820 -0.546995
Zn1   Zn    Zn3+2 0.500000 0.064990 0.221970 0.932521
Zn2   Zn    Zn3+2 0.000000 0.435010 0.278030 0.932520
Zn3   Zn    Zn3+2 0.435010 0.000000 0.721970 0.932639
Zn4   Zn    Zn3+2 0.564990 0.000000 0.278030 0.932522
Zn5   Zn    Zn3+2 0.000000 0.435010 0.721970 0.932482
Zn6   Zn    Zn3+2 0.000000 0.564990 0.278030 0.932513
Zn7   Zn    Zn3+2 0.564990 0.000000 0.721970 0.932516
Zn8   Zn    Zn3+2 0.435010 0.000000 0.278030 0.932530
Zn9   Zn    Zn3+2 0.500000 0.935010 0.778030 0.932639
Zn10  Zn    Zn3+2 0.935010 0.500000 0.221970 0.932519
Zn11  Zn    Zn3+2 0.064990 0.500000 0.778030 0.932622
Zn12  Zn    Zn3+2 0.500000 0.935010 0.221970 0.932530
Zn13  Zn    Zn3+2 0.500000 0.064990 0.778030 0.932516
Zn14  Zn    Zn3+2 0.064990 0.500000 0.221970 0.932513
Zn15  Zn    Zn3+2 0.935010 0.500000 0.778030 0.932482
Zn16  Zn    Zn3+2 0.000000 0.564990 0.721970 0.932621

loop_
_geom_bond_atom_site_label_1
_geom_bond_atom_site_label_2
_ccdc_geom_bond_type
C10   C174  S    
C17   C131  S    
O31   Zn11  S    
C10   O3    A    
C27   C121  S    
O34   Zn16  S    
C68   C75   A    
C79   C121  A    
C97   C132  A    
C160  H13   S    
C74   H49   S    
C147  C164  A    
C13   C70   A    
C61   C166  A    
O32   Zn10  S    
C31   O35   A    
C105  H81   S    
O21   Zn16  S    
C42   C151  A    
C163  H16   S    
O42   Zn12  S    
C25   O21   A    
C14   O6    A    
C21   O42   A    
C165  H18   S    
C148  C165  A    
C57   C133  S    
C167  H19   S    
O22   Zn7   S    
C45   C47   T    
C34   C143  A    
O26   Zn6   S    
C53   H28   S    
O46   Zn11  S    
C84   H59   S    
C65   C99   A    
C99   H75   S    
C33   O32   A    
C97   H73   S    
C20   C137  S    
O36   Zn15  S    
C42   C156  A    
C43   C44   T    
C152  C170  A    
C13   C63   A    
C54   H29   S    
C150  C168  A    
C93   H69   S    
C3    C164  A    
C145  H56   S    
C72   C106  A    
C53   C89   A    
C36   C44   S    
C78   C113  A    
C26   C123  S    
C37   C45   S    
C106  C130  A    
C55   H30   S    
C30   C127  S    
C55   C111  A    
C72   C166  A    
C67   H42   S    
O43   Zn13  S    
C80   H54   S    
C120  H96   S    
C46   C77   A    
C117  H93   S    
C119  H95   S    
C8    O45   A    
O49   Zn7   S    
C22   C135  S    
C52   H27   S    
C102  H77   S    
C60   C155  A    
C16   O8    A    
C118  C129  A    
C6    C12   S    
C161  C174  A    
C83   C117  A    
C56   H31   S    
O23   Zn2   S    
C11   O51   A    
C117  C128  A    
C119  C126  A    
C153  H6    S    
C139  C157  A    
C77   H52   S    
C81   H55   S    
C82   H57   S    
C22   O43   A    
C21   O18   A    
C141  H23   S    
C152  H5    S    
C143  C161  A    
C150  H3    S    
C57   C74   A    
C54   C88   A    
C115  C121  A    
C116  C123  A    
O48   Zn9   S    
C88   C124  A    
C120  C127  A    
C6    C172  A    
C78   H53   S    
C113  C124  A    
O19   Zn7   S    
C82   C89   A    
C4    C170  A    
C139  H1    S    
O6    Zn14  S    
C157  H9    S    
C8    O52   A    
C55   C90   A    
C114  H90   S    
C108  C137  A    
C40   C49   S    
C107  H83   S    
O23   Zn6   S    
C159  H11   S    
C85   C119  A    
C95   H71   S    
C141  C159  A    
O5    Zn15  S    
C95   C130  A    
O41   Zn15  S    
C19   O44   A    
C52   C79   A    
C157  C174  A    
C61   H36   S    
O51   Zn16  S    
C28   O36   A    
C66   C101  A    
C153  C171  A    
C112  C136  A    
C60   H35   S    
O8    Zn1   S    
C69   C103  A    
C20   O46   A    
C6    C168  A    
C35   C76   A    
C87   H63   S    
O11   Zn13  S    
O34   Zn5   S    
C46   C144  S    
C162  C175  A    
O25   Zn5   S    
O24   Zn8   S    
C109  C138  A    
C102  C137  A    
C56   C122  A    
C29   C128  S    
C171  H24   S    
C3    C9    S    
C33   C124  S    
C58   H32   S    
C154  H7    S    
C23   O40   A    
C53   C87   A    
O7    Zn9   S    
C22   O19   A    
C2    C73   A    
C96   C131  A    
C159  C176  A    
C27   O39   A    
C40   C153  A    
O29   Zn16  S    
C92   C127  A    
C169  H21   S    
O3    Zn6   S    
C23   C134  S    
O12   Zn13  S    
O9    Zn11  S    
C34   C43   S    
C161  H14   S    
C116  H92   S    
C8    C176  S    
C151  C169  A    
C15   O7    A    
C16   O13   A    
C93   C128  A    
C63   C97   A    
C87   C123  A    
C17   O14   A    
O50   Zn2   S    
O13   Zn12  S    
C19   O16   A    
O15   Zn3   S    
C149  H2    S    
O4    Zn5   S    
C63   H38   S    
C11   O4    A    
O30   Zn2   S    
C31   O28   A    
C158  C175  A    
C1    C24   S    
C84   C118  A    
C105  C134  A    
C86   C120  A    
C79   H62   S    
C25   C132  S    
C58   C92   A    
C12   O5    A    
C59   H33   S    
C118  H94   S    
C60   C94   A    
C62   C96   A    
C103  H79   S    
C64   H39   S    
C149  C167  A    
O34   Zn11  S    
C156  H8    S    
C37   C141  A    
C46   C66   A    
O16   Zn6   S    
C70   C104  A    
C73   C107  A    
C35   C65   A    
C1    C81   A    
C88   H64   S    
C4    C165  A    
O35   Zn12  S    
C56   C91   A    
O47   Zn1   S    
C68   C69   A    
C39   C148  A    
O1    Zn8   S    
C37   C146  A    
C12   O9    A    
O38   Zn9   S    
C64   C98   A    
C24   C64   A    
C71   H46   S    
C17   O47   A    
C76   H51   S    
C18   O48   A    
C29   O37   A    
C158  H10   S    
C162  H15   S    
C115  H91   S    
O34   Zn15  S    
C58   C133  A    
C156  C173  A    
C9    O49   A    
C140  H12   S    
O23   Zn10  S    
C103  C138  A    
C68   C122  S    
C98   H74   S    
C41   C150  A    
C72   H47   S    
O37   Zn14  S    
C113  H88   S    
C29   O26   A    
C32   O29   A    
C86   C133  A    
C91   H66   S    
O52   Zn4   S    
C50   C51   T    
C99   C135  A    
C85   C122  A    
C94   H70   S    
O39   Zn1   S    
O17   Zn5   S    
C48   C49   T    
C71   C105  A    
C78   C100  A    
C62   H37   S    
O12   Zn3   S    
C109  H85   S    
C41   C50   S    
O2    Zn3   S    
O27   Zn3   S    
C69   H43   S    
O23   Zn14  S    
C35   C155  S    
O14   Zn4   S    
C61   C95   A    
O40   Zn14  S    
C18   O15   A    
C66   H41   S    
C11   C175  S    
C82   C116  A    
C151  H4    S    
C25   O41   A    
C26   O38   A    
C80   C111  A    
C32   O31   A    
C90   C125  A    
C40   C149  A    
O28   Zn4   S    
C10   O50   A    
C1    C52   A    
C38   C147  A    
C112  H87   S    
C74   C108  A    
C76   C110  A    
C104  C132  A    
C173  H26   S    
O12   Zn7   S    
C96   H72   S    
C39   C48   S    
C148  H89   S    
O1    Zn1   S    
C91   C126  A    
C77   C112  A    
C85   H60   S    
C15   O11   A    
C27   O24   A    
C14   O10   A    
O44   Zn10  S    
O10   Zn10  S    
C20   O17   A    
C30   O33   A    
C83   C144  A    
C84   C155  A    
C30   O27   A    
C145  C162  A    
C34   C139  A    
C86   H61   S    
C28   C129  S    
O33   Zn13  S    
C5    C16   S    
C7    C14   S    
C146  H67   S    
C21   C136  S    
C42   C51   S    
C140  C158  A    
C2    C100  S    
C38   C142  A    
C54   C100  A    
C110  C135  A    
C57   C67   A    
C163  C176  A    
O20   Zn2   S    
O45   Zn8   S    
C75   C109  A    
C94   C129  A    
C9    O2    A    
C65   H40   S    
C107  C131  A    
C23   O20   A    
C114  C125  A    
C164  H17   S    
C39   C152  A    
O1    Zn12  S    
C70   H44   S    
C32   C125  S    
C36   C145  A    
C83   H58   S    
C81   C115  A    
C5    C171  A    
C154  C172  A    
C111  C166  S    
O12   Zn9   S    
C36   C140  A    
C38   C47   S    
O1    Zn4   S    
C80   C114  A    
C59   C144  A    
C3    C160  A    
C108  H84   S    
C142  H34   S    
C28   O25   A    
C170  H22   S    
C41   C154  A    
C101  C136  A    
C73   H48   S    
C13   C89   S    
C75   H50   S    
C26   O22   A    
C142  C160  A    
C143  H45   S    
C146  C163  A    
C98   C134  A    
C147  H78   S    
C104  H80   S    
C4    C15   S    
C7    C169  A    
C33   O30   A    
C92   H68   S    
C19   C138  S    
C7    C173  A    
C5    C167  A    
C172  H25   S    
C110  H86   S    
C18   C130  S    
C101  H76   S    
C24   C71   A    
C168  H20   S    
C90   H65   S    
C106  H82   S    
C59   C93   A    
C31   C126  S    
C2    C62   A    
C67   C102  A    
O18   Zn8   S    
