data_mof_unit_23688.cif
_audit_creation_date              2012-12-11T16:50:57-0500
_audit_creation_method            fapswitch 2.2
_symmetry_space_group_name_H-M    P1
_symmetry_Int_Tables_number       1
_space_group_crystal_system       triclinic
_cell_length_a                    6.918448
_cell_length_b                    28.814167
_cell_length_c                    32.161602
_cell_angle_alpha                 100.934192
_cell_angle_beta                  89.619021
_cell_angle_gamma                 90.494053
_cell_volume                      6294.68285391

loop_
_atom_site_label
_atom_site_type_symbol
_atom_type_description
_atom_site_fract_x
_atom_site_fract_y
_atom_site_fract_z
_atom_type_partial_charge
O1    O     O_R   0.494350 0.453170 0.452520 -0.538813
O2    O     O_R   0.820980 0.455850 0.538220 -0.516418
O3    O     O_R   0.994300 0.546830 0.547480 -0.535517
C1    C     C_R   0.651844 0.446409 0.552339 0.751174
O4    O     O_R   0.823860 0.447590 0.452270 -0.549495
O5    O     O_R   0.997200 0.538510 0.460920 -0.531589
C2    C     C_R   0.654917 0.434715 0.436542 0.720851
O6    O     O_R   0.491440 0.461490 0.539080 -0.540600
O7    O     O_3   0.661790 0.529840 0.502940 -0.358634
V1    V     V_3+5 0.935470 0.494460 0.499450 1.528151
O8    O     O_R   0.327090 0.544150 0.461780 -0.504631
C3    C     C_R   0.159057 0.554689 0.448583 0.757513
O9    O     O_R   0.324210 0.552410 0.547730 -0.547565
C4    C     C_R   0.155306 0.565177 0.563448 0.765757
V2    V     V_3+5 0.435840 0.505540 0.500550 1.547882
O10   O     O_3   0.159650 0.470160 0.497060 -0.376246
C5    C     C_R   0.213677 0.869355 0.890513 -0.153721
H1    H     H_    0.331452 0.875772 0.912974 0.180598
C6    C     C_R   0.232113 0.832291 0.855556 0.401026
C7    C     C_R   0.079294 0.822740 0.825836 -0.106330
C8    C     C_R   0.911189 0.850087 0.832798 -0.106576
H2    H     H_    0.794281 0.843324 0.810115 0.190705
C9    C     C_R   0.894489 0.887799 0.867254 0.376837
C10   C     C_R   0.046372 0.897334 0.897357 -0.243983
C11   C     C_R   0.967052 0.746350 0.782622 -0.264668
H3    H     H_    0.864070 0.744188 0.807739 0.154579
C12   C     C_R   0.975311 0.709557 0.746802 0.456801
C13   C     C_R   0.110264 0.712301 0.714393 -0.022617
C14   C     C_R   0.234511 0.751605 0.718230 -0.169594
H4    H     H_    0.337813 0.753861 0.693196 0.210657
C15   C     C_R   0.226667 0.788413 0.753628 0.391076
C16   C     C_R   0.092361 0.785569 0.786741 -0.063518
C17   C     C_R   0.971533 0.667545 0.646262 0.470460
C18   C     C_R   0.982033 0.631926 0.610024 -0.210413
H5    H     H_    0.863367 0.627433 0.587763 0.165369
C19   C     C_R   0.145610 0.603131 0.601776 -0.196182
C20   C     C_R   0.298454 0.610173 0.630835 -0.095632
H6    H     H_    0.425053 0.587918 0.625235 0.165303
C21   C     C_R   0.288077 0.644370 0.668176 0.396210
C22   C     C_R   0.123193 0.674052 0.676088 -0.058850
C23   C     C_R   0.108586 0.655856 0.282834 0.691639
N1    N     N_R   0.109002 0.676015 0.324933 -0.550888
C24   C     C_R   0.096176 0.723894 0.337723 0.622249
C25   C     C_R   0.068549 0.753532 0.307882 -0.169598
C26   C     C_R   0.084325 0.733873 0.264185 -0.096694
C27   C     C_R   0.107331 0.684353 0.251190 -0.168946
C28   C     C_R   0.031265 0.802433 0.320677 0.347878
C29   C     C_R   0.029318 0.832140 0.290948 0.413733
C30   C     C_R   0.051773 0.813349 0.247052 -0.193577
C31   C     C_R   0.077762 0.763817 0.233682 -0.112599
C32   C     C_R   0.098121 0.744314 0.189902 -0.163638
C33   C     C_R   0.121329 0.694626 0.177082 0.365081
C34   C     C_R   0.127173 0.665128 0.207326 0.362378
C35   C     C_R   0.045614 0.842115 0.215833 0.767340
N2    N     N_R   0.068967 0.822893 0.173962 -0.556624
C36   C     C_R   0.095644 0.775509 0.160547 0.699529
O11   O     O_2   0.106515 0.608347 0.272065 -0.447591
O12   O     O_2   0.116688 0.742749 0.379190 -0.485423
O13   O     O_2   0.015378 0.888982 0.226700 -0.429291
O14   O     O_2   0.121231 0.759251 0.118790 -0.449723
C37   C     C_R   0.898513 0.851361 0.116799 -0.067868
H7    H     H_    0.781112 0.827211 0.120194 0.194005
C38   C     C_R   0.888495 0.878817 0.085294 0.356144
C39   C     C_R   0.040711 0.911232 0.081059 -0.232713
C40   C     C_R   0.203935 0.912458 0.107268 -0.237970
H8    H     H_    0.323246 0.936302 0.104500 0.188466
C41   C     C_R   0.215139 0.883578 0.137626 0.457189
C42   C     C_R   0.060714 0.853181 0.142913 0.189956
C43   C     C_R   0.980141 0.647386 0.387603 -0.048128
H9    H     H_    0.858042 0.670782 0.388100 0.164545
C44   C     C_R   0.994775 0.619947 0.419032 0.329329
C45   C     C_R   0.151030 0.587779 0.418052 -0.249093
C46   C     C_R   0.295095 0.586695 0.386226 0.342590
C47   C     C_R   0.281321 0.616154 0.356388 -0.107083
H10   H     H_    0.393320 0.615204 0.332547 0.184198
C48   C     C_R   0.123352 0.646242 0.356430 0.202815
C49   C     C_R   0.421106 0.208051 0.824527 0.685716
N3    N     N_R   0.564252 0.175382 0.824692 -0.561660
C50   C     C_R   0.710338 0.170616 0.795185 0.641264
C51   C     C_R   0.719488 0.200087 0.764894 -0.031397
C52   C     C_R   0.572592 0.233530 0.764111 -0.009444
C53   C     C_R   0.421111 0.237205 0.793859 -0.110886
C54   C     C_R   0.871837 0.196823 0.735449 -0.124945
C55   C     C_R   0.878056 0.226153 0.705565 -0.116475
C56   C     C_R   0.731856 0.259467 0.704251 0.028531
C57   C     C_R   0.577714 0.263296 0.733592 -0.051336
C58   C     C_R   0.429896 0.296777 0.732560 -0.133703
C59   C     C_R   0.275543 0.299303 0.762405 0.417889
C60   C     C_R   0.273427 0.269872 0.792427 -0.165877
C61   C     C_R   0.737434 0.289210 0.674297 0.618112
N4    N     N_R   0.596301 0.322213 0.673754 -0.559452
C62   C     C_R   0.444557 0.326471 0.702001 0.686595
O15   O     O_2   0.279358 0.212437 0.853996 -0.482874
O16   O     O_2   0.846222 0.137369 0.795083 -0.453468
H11   H     H_    0.987534 0.171747 0.735518 0.190019
H12   H     H_    0.998699 0.222748 0.683587 0.167070
O17   O     O_2   0.882900 0.284932 0.645686 -0.520150
O18   O     O_2   0.311130 0.359963 0.700839 -0.450627
H13   H     H_    0.154245 0.272689 0.814779 0.201007
C63   C     C_R   0.772631 0.383163 0.643244 -0.077033
H14   H     H_    0.886144 0.382830 0.666229 0.211690
C64   C     C_R   0.789374 0.413435 0.613984 0.337572
C65   C     C_R   0.640661 0.414854 0.584106 -0.143503
C66   C     C_R   0.476924 0.385657 0.585022 -0.204150
H15   H     H_    0.360446 0.385850 0.562716 0.167473
C67   C     C_R   0.462492 0.355246 0.614139 -0.061343
H16   H     H_    0.336159 0.332709 0.613692 0.165154
C68   C     C_R   0.610348 0.353635 0.643511 0.274888
C69   C     C_R   0.418685 0.109332 0.853688 0.444098
C70   C     C_R   0.410855 0.080494 0.884134 -0.225890
H17   H     H_    0.299768 0.053394 0.881848 0.168890
C71   C     C_R   0.548557 0.085218 0.916472 -0.198463
C72   C     C_R   0.694117 0.119734 0.918196 -0.176015
H18   H     H_    0.801184 0.123844 0.943093 0.159888
C73   C     C_R   0.699269 0.150505 0.889129 0.402413
C74   C     C_R   0.560215 0.145260 0.856092 0.168011
C75   C     C_R   0.725636 0.123828 0.115931 -0.145313
H19   H     H_    0.857642 0.112795 0.098734 0.122701
C76   C     C_R   0.736950 0.158727 0.152617 -0.132882
H20   H     H_    0.876603 0.173955 0.162656 0.126333
C77   C     C_R   0.569951 0.173688 0.176333 0.077347
C78   C     C_R   0.390406 0.154113 0.161759 -0.110401
H21   H     H_    0.259313 0.165173 0.179333 0.127184
C79   C     C_R   0.378674 0.119455 0.124847 -0.144199
H22   H     H_    0.238361 0.104645 0.114863 0.120235
C80   C     C_R   0.546444 0.103532 0.101653 -0.050554
C81   C     C_R   0.461999 0.250038 0.220122 -0.163828
H23   H     H_    0.359878 0.253343 0.195479 0.142502
C82   C     C_R   0.474403 0.286413 0.255617 -0.131254
H24   H     H_    0.381035 0.316709 0.257471 0.140178
C83   C     C_R   0.608689 0.284333 0.287768 -0.001474
C84   C     C_R   0.729005 0.244641 0.283703 -0.129153
H25   H     H_    0.830182 0.241648 0.308602 0.143012
C85   C     C_R   0.715358 0.207339 0.248744 0.375219
C86   C     C_R   0.582360 0.210328 0.215790 -0.024115
C87   C     C_R   0.801130 0.338252 0.343786 -0.120709
H26   H     H_    0.933777 0.322633 0.329790 0.104582
C88   C     C_R   0.812403 0.374353 0.379655 -0.141580
H27   H     H_    0.953452 0.385233 0.392500 0.118179
C89   C     C_R   0.643906 0.396158 0.398529 -0.049838
C90   C     C_R   0.464028 0.380932 0.380476 -0.127323
H28   H     H_    0.331079 0.396795 0.394076 0.122188
C91   C     C_R   0.452866 0.344886 0.344638 -0.117245
H29   H     H_    0.311777 0.333645 0.332037 0.104598
C92   C     C_R   0.621177 0.323030 0.325799 0.114275
O19   O     O_R   0.699170 0.038480 0.960880 -0.542989
O20   O     O_R   0.366800 0.052460 0.047690 -0.544852
O21   O     O_R   0.193520 0.961530 0.039110 -0.534147
C93   C     C_R   0.535725 0.065361 0.063383 0.694223
O22   O     O_R   0.369630 0.044100 0.961740 -0.537997
O23   O     O_R   0.196370 0.953120 0.952550 -0.536061
C94   C     C_R   0.539002 0.054003 0.948163 0.749073
O24   O     O_R   0.696320 0.046890 0.047450 -0.541395
O25   O     O_3   0.528890 0.970170 0.997080 -0.358973
V3    V     V_3+5 0.255190 0.005530 0.000540 1.451813
O26   O     O_R   0.866460 0.947530 0.952310 -0.536240
C95   C     C_R   0.035142 0.935406 0.935965 0.710742
O27   O     O_R   0.863630 0.955880 0.038270 -0.532072
C96   C     C_R   0.031897 0.944581 0.050801 0.736564
V4    V     V_3+5 0.754830 0.994440 0.999470 1.466166
O28   O     O_3   0.031000 0.029830 0.002920 -0.374651
O29   O     O_3   0.440802 0.646712 0.695988 -0.585933
H30   H     H_    0.408264 0.667683 0.723118 0.311076
O30   O     O_3   0.989867 0.822357 0.362191 -0.552172
H31   H     H_    0.890291 0.802060 0.372258 0.339389
Cl1   Cl    Cl    0.991942 0.892969 0.311594 -0.379862
Cl2   Cl    Cl    0.141677 0.666854 0.122964 -0.372563
Cl3   Cl    Cl    0.169370 0.603988 0.188360 -0.379853
O31   O     O_3   0.730398 0.871888 0.058932 -0.611490
H32   H     H_    0.773453 0.875240 0.030229 0.300835
O32   O     O_3   0.400824 0.806488 0.852155 -0.625640
H33   H     H_    0.388923 0.778498 0.829164 0.301646
Cl4   Cl    Cl    0.425473 0.885706 0.168395 -0.559450
O33   O     O_3   0.855166 0.626442 0.450382 -0.602326
H34   H     H_    0.913736 0.620743 0.476943 0.291643
Cl5   Cl    Cl    0.492227 0.547521 0.380724 -0.586197
Cl6   Cl    Cl    0.078016 0.338074 0.764555 -0.536623
Cl7   Cl    Cl    0.995436 0.450418 0.617769 -0.609198
Cl8   Cl    Cl    0.253543 0.098333 0.811608 -0.512845
O34   O     O_3   0.841050 0.185121 0.894460 -0.592135
H35   H     H_    0.816481 0.207540 0.875344 0.323816
O35   O     O_3   0.730567 0.915041 0.869277 -0.624526
H36   H     H_    0.765289 0.948042 0.881994 0.293590
O36   O     O_3   0.830850 0.168529 0.248858 -0.633375
H37   H     H_    0.776279 0.140927 0.229321 0.309561
O37   O     O_3   0.855229 0.670462 0.743042 -0.594338
H38   H     H_    0.768656 0.674160 0.768133 0.309601
O38   O     O_3   0.351522 0.826190 0.754118 -0.609655
H39   H     H_    0.318312 0.852033 0.777904 0.318109
Cl9   Cl    Cl    0.768232 0.704712 0.652410 -0.577512

loop_
_geom_bond_atom_site_label_1
_geom_bond_atom_site_label_2
_ccdc_geom_bond_type
O32   H33   S    
C75   H19   S    
C23   N1    A    
C6    C7    A    
C1    O6    A    
C66   C67   A    
N2    C42   S    
C62   O18   S    
C59   Cl6   S    
C49   N3    A    
V3    O28   S    
C13   C14   A    
C14   H4    S    
C53   C60   A    
C47   C48   A    
C60   H13   S    
O23   C95   A    
C19   C20   A    
O20   C93   A    
C81   C86   A    
C82   H24   S    
C43   H9    S    
C75   C76   A    
C33   Cl2   S    
C4    C19   S    
C2    C89   S    
C80   C93   S    
C38   O31   S    
O19   V4    S    
C67   H16   S    
C13   C22   S    
C30   C35   A    
C1    C65   S    
O36   H37   S    
C27   C34   A    
C43   C48   A    
C37   C38   A    
C18   H5    S    
C55   H12   S    
C43   C44   A    
C93   O24   A    
O33   H34   S    
C71   C72   A    
C49   C53   A    
C69   C74   A    
C70   H17   S    
O8    V2    S    
C54   C55   A    
C84   H25   S    
C40   C41   A    
C15   O38   S    
C28   C29   A    
C23   C27   A    
C71   C94   S    
O1    V2    S    
O21   V3    S    
O23   V3    S    
O20   V3    S    
O7    V1    S    
C61   O17   S    
C87   C92   A    
C24   O12   S    
C25   C28   A    
C11   C16   A    
C3    C45   S    
O1    C2    A    
C8    H2    S    
O27   V4    S    
C64   C65   A    
C51   C54   A    
N4    C62   A    
C66   H15   S    
C7    C16   S    
C52   C53   A    
C35   O13   S    
C76   C77   A    
C46   C47   A    
C20   C21   A    
C17   Cl9   S    
C63   C68   A    
C5    C10   A    
C77   C78   A    
C47   H10   S    
C38   C39   A    
C41   C42   A    
C17   C22   A    
O31   H32   S    
O26   V4    S    
C89   C90   A    
C50   O16   S    
C87   C88   A    
C85   O36   S    
C21   C22   A    
O4    C2    A    
C57   C58   A    
C45   C46   A    
C31   C32   A    
C11   H3    S    
C26   C27   A    
C77   C86   S    
C32   C33   A    
C72   C73   A    
O38   H39   S    
C12   O37   S    
O26   C95   A    
O2    C1    A    
C24   C25   A    
C81   C82   A    
O25   V4    S    
C20   H6    S    
C69   Cl8   S    
C34   Cl3   S    
C15   C16   A    
O9    V2    S    
C76   H20   S    
C54   H11   S    
C7    C8    A    
N2    C36   A    
C63   C64   A    
C5    H1    S    
O25   V3    S    
C52   C57   A    
C55   C56   A    
C21   O29   S    
O35   H36   S    
C56   C57   A    
O3    C4    A    
C88   C89   A    
C9    O35   S    
O19   C94   A    
C28   O30   S    
C29   C30   A    
C40   H8    S    
O6    V2    S    
O22   V3    S    
C8    C9    A    
O27   C96   A    
C64   Cl7   S    
O22   C94   A    
C11   C12   A    
N1    C24   A    
C78   C79   A    
C81   H23   S    
O2    V1    S    
C65   C66   A    
C58   C62   A    
C33   C34   A    
C79   C80   A    
C72   H18   S    
C75   C80   A    
C91   C92   A    
C35   N2    A    
O30   H31   S    
C10   C95   S    
N4    C68   S    
N3    C74   S    
C25   C26   A    
C32   C36   A    
C6    O32   S    
C51   C52   A    
C83   C84   A    
O5    V1    S    
C73   O34   S    
C56   C61   A    
C85   C86   A    
O29   H30   S    
N1    C48   S    
C44   O33   S    
V4    O28   S    
C46   Cl5   S    
C90   C91   A    
O7    V2    S    
C23   O11   S    
O4    V1    S    
C14   C15   A    
O3    V1    S    
V1    O10   S    
C90   H28   S    
C39   C40   A    
O5    C3    A    
N3    C50   A    
C37   C42   A    
C61   N4    A    
C67   C68   A    
C26   C31   A    
C41   Cl4   S    
V2    O10   S    
C39   C96   S    
C49   O15   S    
C63   H14   S    
C5    C6    A    
C17   C18   A    
C83   C92   S    
C18   C19   A    
C37   H7    S    
C70   C71   A    
C88   H27   S    
C9    C10   A    
C50   C51   A    
C36   O14   S    
C44   C45   A    
C29   Cl1   S    
C59   C60   A    
C58   C59   A    
C84   C85   A    
C30   C31   A    
C69   C70   A    
C12   C13   A    
C78   H21   S    
O24   V4    S    
C87   H26   S    
C73   C74   A    
O37   H38   S    
O9    C4    A    
O21   C96   A    
O34   H35   S    
C91   H29   S    
O8    C3    A    
C79   H22   S    
C82   C83   A    
