data_mof_unit_55382.cif
_audit_creation_date              2012-12-10T17:06:28-0500
_audit_creation_method            fapswitch 2.2
_symmetry_space_group_name_H-M    P1
_symmetry_Int_Tables_number       1
_space_group_crystal_system       triclinic
_cell_length_a                    21.847251
_cell_length_b                    21.847348
_cell_length_c                    47.26083
_cell_angle_alpha                 89.999708
_cell_angle_beta                  90.00003
_cell_angle_gamma                 89.999866
_cell_volume                      22557.8066169

loop_
_atom_site_label
_atom_site_type_symbol
_atom_type_description
_atom_site_fract_x
_atom_site_fract_y
_atom_site_fract_z
_atom_type_partial_charge
C1    C     C_R   0.880634 0.000002 0.500000 0.884139
C2    C     C_R   0.000002 0.880732 0.500000 0.884327
C3    C     C_R   0.119365 0.999999 0.500000 0.884368
C4    C     C_R   0.000001 0.119268 0.499999 0.884354
C5    C     C_R   0.380731 0.500000 1.000000 0.884107
C6    C     C_R   0.500000 0.380634 0.000000 0.883948
C7    C     C_R   0.619269 0.500001 0.000000 0.884129
C8    C     C_R   0.500001 0.619366 0.000000 0.883977
C9    C     C_R   0.028466 0.780297 0.522694 -0.117994
C10   C     C_R   0.220216 0.022799 0.524111 -0.100938
C11   C     C_R   0.971520 0.219700 0.522687 -0.118123
C12   C     C_R   0.779779 0.977272 0.524124 -0.100771
C13   C     C_R   0.028467 0.219702 0.477307 -0.118108
C14   C     C_R   0.220216 0.977210 0.475891 -0.100728
C15   C     C_R   0.971531 0.780299 0.477310 -0.118221
C16   C     C_R   0.779780 0.022730 0.475877 -0.100699
C17   C     C_R   0.522719 0.279778 0.024126 -0.100735
C18   C     C_R   0.719705 0.528448 0.022698 -0.118116
C19   C     C_R   0.477268 0.720220 0.024122 -0.100755
C20   C     C_R   0.280295 0.471552 0.022696 -0.118140
C21   C     C_R   0.522733 0.720220 0.975878 -0.100735
C22   C     C_R   0.719705 0.471552 0.977304 -0.118158
C23   C     C_R   0.477282 0.279779 0.975875 -0.100709
C24   C     C_R   0.280294 0.528443 0.977301 -0.118142
C25   C     C_R   0.000002 0.684858 0.499998 -0.088860
C26   C     C_R   0.315401 0.000004 0.500000 -0.094763
C27   C     C_R   0.999998 0.315141 0.500000 -0.088869
C28   C     C_R   0.684597 0.999999 0.500000 -0.094819
C29   C     C_R   0.500000 0.184597 0.000000 -0.094788
C30   C     C_R   0.815144 0.500001 0.000000 -0.088822
C31   C     C_R   0.500000 0.815403 1.000000 -0.094769
C32   C     C_R   0.184856 0.499999 0.999999 -0.088819
C33   C     C_R   0.000001 0.813288 0.500002 -0.158758
C34   C     C_R   0.186972 0.000001 0.500001 -0.162302
C35   C     C_R   0.999997 0.186712 0.499998 -0.158769
C36   C     C_R   0.813025 0.000002 0.500001 -0.162381
C37   C     C_R   0.500000 0.313024 0.000001 -0.162399
C38   C     C_R   0.686714 0.500001 0.000001 -0.158768
C39   C     C_R   0.500001 0.686975 0.000000 -0.162374
C40   C     C_R   0.313286 0.499999 0.999999 -0.158766
C41   C     C_R   0.027276 0.451795 0.370053 -0.109653
C42   C     C_R   0.549102 0.025710 0.370078 -0.111034
C43   C     C_R   0.972719 0.548208 0.370053 -0.109678
C44   C     C_R   0.450924 0.974280 0.370077 -0.111027
C45   C     C_R   0.027278 0.548201 0.629948 -0.109668
C46   C     C_R   0.549106 0.974285 0.629921 -0.111038
C47   C     C_R   0.972728 0.451786 0.629947 -0.109649
C48   C     C_R   0.450935 0.025728 0.629924 -0.111033
C49   C     C_R   0.525701 0.950910 0.870077 -0.111031
C50   C     C_R   0.048191 0.527297 0.870055 -0.109692
C51   C     C_R   0.474306 0.049106 0.870078 -0.111034
C52   C     C_R   0.951797 0.472706 0.870057 -0.109672
C53   C     C_R   0.525698 0.049097 0.129923 -0.111032
C54   C     C_R   0.048199 0.472712 0.129945 -0.109670
C55   C     C_R   0.474300 0.950903 0.129923 -0.111035
C56   C     C_R   0.951802 0.527296 0.129945 -0.109679
C57   C     C_R   0.029882 0.453530 0.399566 -0.231832
C58   C     C_R   0.547675 0.028025 0.399619 -0.236481
C59   C     C_R   0.970116 0.546474 0.399567 -0.231841
C60   C     C_R   0.452344 0.971968 0.399617 -0.236456
C61   C     C_R   0.029882 0.546469 0.600434 -0.231837
C62   C     C_R   0.547677 0.971968 0.600380 -0.236486
C63   C     C_R   0.970121 0.453523 0.600434 -0.231820
C64   C     C_R   0.452352 0.028039 0.600384 -0.236463
C65   C     C_R   0.528012 0.952328 0.899617 -0.236472
C66   C     C_R   0.046460 0.529898 0.899568 -0.231863
C67   C     C_R   0.471991 0.047682 0.899618 -0.236484
C68   C     C_R   0.953534 0.470103 0.899569 -0.231857
C69   C     C_R   0.528011 0.047676 0.100382 -0.236480
C70   C     C_R   0.046465 0.470107 0.100432 -0.231853
C71   C     C_R   0.471987 0.952325 0.100382 -0.236480
C72   C     C_R   0.953535 0.529897 0.100432 -0.231854
C73   C     C_R   1.000000 0.500002 0.414540 -0.003062
C74   C     C_R   0.500006 0.999999 0.414568 -0.002056
C75   C     C_R   0.000000 0.499998 0.585460 -0.003069
C76   C     C_R   0.500010 0.000001 0.585432 -0.002064
C77   C     C_R   0.500000 0.000003 0.914568 -0.002044
C78   C     C_R   0.999998 0.500000 0.914541 -0.003057
C79   C     C_R   0.499999 0.000000 0.085432 -0.002046
C80   C     C_R   1.000000 0.500000 0.085459 -0.003061
C81   C     C_R   0.999997 0.500001 0.354690 0.337906
C82   C     C_R   0.500014 0.999994 0.354733 0.341643
C83   C     C_R   0.000003 0.499993 0.645311 0.337898
C84   C     C_R   0.500023 0.000008 0.645267 0.341641
C85   C     C_R   0.500005 0.000010 0.854732 0.341657
C86   C     C_R   0.999993 0.500001 0.854693 0.337942
C87   C     C_R   0.500000 0.999999 0.145267 0.341657
C88   C     C_R   0.000001 0.500005 0.145308 0.337935
C89   C     C_R   0.500023 0.000013 0.735148 -0.065133
C90   C     C_R   0.999998 0.499994 0.735167 -0.065153
C91   C     C_R   0.500011 0.999994 0.264852 -0.065133
C92   C     C_R   0.999997 0.500002 0.264834 -0.065156
C93   C     C_R   0.999998 0.500003 0.235163 -0.065160
C94   C     C_R   0.500008 0.999995 0.235148 -0.065133
C95   C     C_R   0.999996 0.499996 0.764838 -0.065163
C96   C     C_R   0.500019 0.000014 0.764852 -0.065133
C97   C     C_R   1.000000 0.500001 0.445645 0.761415
C98   C     C_R   0.500002 1.000000 0.445655 0.760054
C99   C     C_R   0.000000 0.499999 0.554355 0.761415
C100  C     C_R   0.500003 0.000000 0.554345 0.760053
C101  C     C_R   0.500000 0.000001 0.945655 0.760058
C102  C     C_R   0.000000 0.500000 0.945646 0.761421
C103  C     C_R   0.500000 0.000000 0.054345 0.760057
C104  C     C_R   1.000000 0.500000 0.054354 0.761417
C105  C     C_R   0.000000 0.618298 0.499998 0.782462
C106  C     C_R   0.381786 0.000000 0.499999 0.792765
C107  C     C_R   1.000000 0.381702 0.500000 0.782456
C108  C     C_R   0.618213 1.000000 0.499999 0.792818
C109  C     C_R   0.500000 0.118213 1.000000 0.792826
C110  C     C_R   0.881703 0.500000 0.000000 0.782482
C111  C     C_R   0.500000 0.881787 1.000000 0.792814
C112  C     C_R   0.118297 0.500000 1.000000 0.782485
C113  C     C_R   0.466834 0.045206 0.720232 -0.053793
C114  C     C_R   0.954815 0.466807 0.720267 -0.052943
C115  C     C_R   0.533216 0.954820 0.720234 -0.053794
C116  C     C_R   0.045184 0.533178 0.720267 -0.052944
C117  C     C_R   0.466819 0.954802 0.279767 -0.053795
C118  C     C_R   0.954807 0.533180 0.279734 -0.052948
C119  C     C_R   0.533206 0.045185 0.279766 -0.053796
C120  C     C_R   0.045186 0.466822 0.279734 -0.052942
C121  C     C_R   0.966843 0.545211 0.220263 -0.052950
C122  C     C_R   0.454822 0.966793 0.220234 -0.053798
C123  C     C_R   0.033153 0.454795 0.220263 -0.052952
C124  C     C_R   0.545192 0.033197 0.220233 -0.053798
C125  C     C_R   0.966846 0.454784 0.779739 -0.052951
C126  C     C_R   0.454832 0.033218 0.779765 -0.053797
C127  C     C_R   0.033142 0.545211 0.779738 -0.052953
C128  C     C_R   0.545202 0.966811 0.779768 -0.053797
C129  C     C_R   0.424946 0.083898 0.735126 0.060883
C130  C     C_R   0.916160 0.424838 0.735132 0.060140
C131  C     C_R   0.575100 0.916130 0.735132 0.060886
C132  C     C_R   0.083838 0.575148 0.735133 0.060142
C133  C     C_R   0.424932 0.916112 0.264872 0.060884
C134  C     C_R   0.916145 0.575143 0.264869 0.060144
C135  C     C_R   0.575091 0.083875 0.264869 0.060886
C136  C     C_R   0.083847 0.424858 0.264869 0.060142
C137  C     C_R   0.924902 0.583896 0.235129 0.060149
C138  C     C_R   0.416140 0.924899 0.235131 0.060882
C139  C     C_R   0.075091 0.416107 0.235129 0.060149
C140  C     C_R   0.583877 0.075090 0.235128 0.060882
C141  C     C_R   0.924915 0.416089 0.764872 0.060149
C142  C     C_R   0.416153 0.075112 0.764867 0.060882
C143  C     C_R   0.075076 0.583902 0.764872 0.060155
C144  C     C_R   0.583885 0.924917 0.764873 0.060881
C145  C     C_R   0.521885 0.950480 0.690713 0.519779
C146  C     C_R   0.049604 0.521678 0.690786 0.520142
C147  C     C_R   0.478172 0.049544 0.690711 0.519767
C148  C     C_R   0.950399 0.478304 0.690785 0.520142
C149  C     C_R   0.521875 0.049524 0.309288 0.519778
C150  C     C_R   0.049602 0.478320 0.309215 0.520139
C151  C     C_R   0.478156 0.950462 0.309289 0.519769
C152  C     C_R   0.950391 0.521681 0.309215 0.520144
C153  C     C_R   0.021655 0.450387 0.190782 0.520143
C154  C     C_R   0.549530 0.021867 0.190711 0.519773
C155  C     C_R   0.978344 0.549621 0.190782 0.520143
C156  C     C_R   0.450478 0.978126 0.190713 0.519773
C157  C     C_R   0.021640 0.549620 0.809219 0.520143
C158  C     C_R   0.549539 0.978142 0.809290 0.519771
C159  C     C_R   0.978343 0.450380 0.809220 0.520144
C160  C     C_R   0.450487 0.021887 0.809287 0.519777
C161  C     C_R   0.065135 0.807564 0.544385 0.411412
C162  C     C_R   0.194151 0.055312 0.547570 0.404097
C163  C     C_R   0.934826 0.192429 0.544366 0.411602
C164  C     C_R   0.805835 0.944801 0.547598 0.404338
C165  C     C_R   0.065148 0.192433 0.455622 0.411547
C166  C     C_R   0.194152 0.944685 0.452436 0.404228
C167  C     C_R   0.934838 0.807569 0.455630 0.411625
C168  C     C_R   0.805836 0.055207 0.452405 0.404373
C169  C     C_R   0.555184 0.305833 0.047600 0.404394
C170  C     C_R   0.692439 0.565120 0.044387 0.411556
C171  C     C_R   0.444793 0.694163 0.047594 0.404362
C172  C     C_R   0.307560 0.434876 0.044384 0.411582
C173  C     C_R   0.555211 0.694164 0.952407 0.404370
C174  C     C_R   0.692440 0.434874 0.955618 0.411601
C175  C     C_R   0.444813 0.305835 0.952402 0.404427
C176  C     C_R   0.307558 0.565114 0.955611 0.411550
C177  C     C_R   0.073784 0.777737 0.570435 0.448341
C178  C     C_R   0.224080 0.053844 0.574102 0.428907
C179  C     C_R   0.926137 0.222249 0.570416 0.448338
C180  C     C_R   0.775910 0.946338 0.574128 0.428931
C181  C     C_R   0.073819 0.222257 0.429572 0.448346
C182  C     C_R   0.224078 0.946147 0.425904 0.428964
C183  C     C_R   0.926150 0.777746 0.429582 0.448333
C184  C     C_R   0.775912 0.053677 0.425875 0.428969
C185  C     C_R   0.553638 0.275910 0.074131 0.428933
C186  C     C_R   0.722271 0.573786 0.070435 0.448325
C187  C     C_R   0.446326 0.724085 0.074125 0.428931
C188  C     C_R   0.277728 0.426204 0.070432 0.448329
C189  C     C_R   0.553682 0.724087 0.925876 0.428948
C190  C     C_R   0.722272 0.426196 0.929571 0.448323
C191  C     C_R   0.446357 0.275914 0.925871 0.428953
C192  C     C_R   0.277724 0.573780 0.929564 0.448318
C193  C     C_R   0.053162 0.717040 0.573283 -0.352978
C194  C     C_R   0.283109 0.029176 0.575933 -0.329199
C195  C     C_R   0.946756 0.282947 0.573271 -0.353074
C196  C     C_R   0.716891 0.971033 0.575950 -0.329201
C197  C     C_R   0.053197 0.282955 0.426721 -0.353049
C198  C     C_R   0.283097 0.970837 0.424068 -0.329192
C199  C     C_R   0.946791 0.717057 0.426723 -0.353026
C200  C     C_R   0.716896 0.028975 0.424050 -0.329200
C201  C     C_R   0.528936 0.216894 0.075953 -0.329217
C202  C     C_R   0.782957 0.553137 0.073288 -0.352955
C203  C     C_R   0.471025 0.783101 0.075949 -0.329221
C204  C     C_R   0.217043 0.446856 0.073286 -0.352977
C205  C     C_R   0.528981 0.783102 0.924051 -0.329219
C206  C     C_R   0.782956 0.446852 0.926715 -0.352967
C207  C     C_R   0.471063 0.216900 0.924048 -0.329225
C208  C     C_R   0.217043 0.553120 0.926709 -0.352911
C209  C     C_R   0.029865 0.686049 0.549985 -0.228371
C210  C     C_R   0.314072 0.012656 0.551480 -0.243597
C211  C     C_R   0.970087 0.313941 0.549980 -0.228319
C212  C     C_R   0.685929 0.987506 0.551490 -0.243509
C213  C     C_R   0.029884 0.313946 0.450016 -0.228324
C214  C     C_R   0.314061 0.987372 0.448518 -0.243498
C215  C     C_R   0.970120 0.686063 0.450014 -0.228339
C216  C     C_R   0.685934 0.012491 0.448509 -0.243484
C217  C     C_R   0.512468 0.185932 0.051492 -0.243515
C218  C     C_R   0.813947 0.529826 0.049992 -0.228379
C219  C     C_R   0.487504 0.814065 0.051490 -0.243527
C220  C     C_R   0.186054 0.470172 0.049991 -0.228372
C221  C     C_R   0.512497 0.814065 0.948510 -0.243518
C222  C     C_R   0.813945 0.470172 0.950008 -0.228372
C223  C     C_R   0.487536 0.185936 0.948508 -0.243499
C224  C     C_R   0.186053 0.529811 0.950005 -0.228400
C225  C     C_R   0.019147 0.716681 0.524259 0.020032
C226  C     C_R   0.283645 0.011524 0.525222 0.013800
C227  C     C_R   0.980835 0.283314 0.524256 0.020045
C228  C     C_R   0.716353 0.988561 0.525230 0.013569
C229  C     C_R   0.019152 0.283317 0.475741 0.020055
C230  C     C_R   0.283641 0.988493 0.474778 0.013624
C231  C     C_R   0.980851 0.716686 0.475741 0.020074
C232  C     C_R   0.716355 0.011437 0.474770 0.013529
C233  C     C_R   0.511426 0.216353 0.025232 0.013553
C234  C     C_R   0.783319 0.519124 0.024263 0.020036
C235  C     C_R   0.488559 0.783645 0.025230 0.013581
C236  C     C_R   0.216681 0.480876 0.024263 0.020042
C237  C     C_R   0.511442 0.783645 0.974770 0.013573
C238  C     C_R   0.783319 0.480877 0.975737 0.020045
C239  C     C_R   0.488576 0.216355 0.974769 0.013528
C240  C     C_R   0.216680 0.519117 0.975735 0.020044
Cu1   Cu    Cu3+1 1.000000 0.000000 0.471880 1.120116
Cu2   Cu    Cu3+1 0.000000 0.000000 0.528120 1.120058
Cu3   Cu    Cu3+1 0.500000 0.500000 0.971880 1.120137
Cu4   Cu    Cu3+1 0.500000 0.500000 0.028120 1.120111
Cu5   Cu    Cu3+1 0.938170 0.500000 0.500000 0.955510
Cu6   Cu    Cu3+1 0.500000 0.938170 0.500000 0.953813
Cu7   Cu    Cu3+1 0.061830 0.500000 0.500000 0.955494
Cu8   Cu    Cu3+1 0.500000 0.061830 0.500000 0.953821
Cu9   Cu    Cu3+1 0.438170 0.000000 0.000000 0.953809
Cu10  Cu    Cu3+1 0.000000 0.438170 0.000000 0.955492
Cu11  Cu    Cu3+1 0.561830 0.000000 0.000000 0.953812
Cu12  Cu    Cu3+1 0.000000 0.561830 0.000000 0.955489
H1    H     H_    0.047152 0.412847 0.359293 0.152130
H2    H     H_    0.588524 0.044480 0.359251 0.149923
H3    H     H_    0.952842 0.587155 0.359292 0.152130
H4    H     H_    0.411504 0.955507 0.359248 0.149920
H5    H     H_    0.047153 0.587150 0.640709 0.152133
H6    H     H_    0.588528 0.955511 0.640748 0.149929
H7    H     H_    0.952855 0.412836 0.640707 0.152131
H8    H     H_    0.411519 0.044505 0.640753 0.149926
H9    H     H_    0.544460 0.911484 0.859248 0.149912
H10   H     H_    0.087130 0.547190 0.859293 0.152119
H11   H     H_    0.455550 0.088535 0.859250 0.149918
H12   H     H_    0.912857 0.452814 0.859296 0.152121
H13   H     H_    0.544457 0.088523 0.140751 0.149914
H14   H     H_    0.087141 0.452824 0.140707 0.152121
H15   H     H_    0.455541 0.911476 0.140751 0.149916
H16   H     H_    0.912861 0.547186 0.140706 0.152123
H17   H     H_    0.056334 0.692532 0.593060 0.158084
H18   H     H_    0.306020 0.025064 0.596132 0.162620
H19   H     H_    0.943552 0.307459 0.593046 0.158101
H20   H     H_    0.693986 0.975191 0.596150 0.162670
H21   H     H_    0.056387 0.307466 0.406945 0.158094
H22   H     H_    0.306002 0.974948 0.403866 0.162625
H23   H     H_    0.943597 0.692559 0.406944 0.158080
H24   H     H_    0.693993 0.024819 0.403850 0.162665
H25   H     H_    0.524770 0.193992 0.096153 0.162671
H26   H     H_    0.807456 0.556311 0.093068 0.158075
H27   H     H_    0.475183 0.806004 0.096149 0.162665
H28   H     H_    0.192544 0.443679 0.093065 0.158078
H29   H     H_    0.524826 0.806005 0.903851 0.162662
H30   H     H_    0.807453 0.443673 0.906935 0.158076
H31   H     H_    0.475229 0.193999 0.903847 0.162670
H32   H     H_    0.192551 0.556288 0.906927 0.158062
H33   H     H_    0.017827 0.638432 0.552495 0.153632
H34   H     H_    0.361199 0.998143 0.553372 0.155621
H35   H     H_    0.982120 0.361558 0.552494 0.153620
H36   H     H_    0.638804 0.002031 0.553375 0.155686
H37   H     H_    0.017849 0.361564 0.447503 0.153622
H38   H     H_    0.361185 0.001896 0.446624 0.155640
H39   H     H_    0.982163 0.638448 0.447498 0.153609
H40   H     H_    0.638811 0.997962 0.446623 0.155685
H41   H     H_    0.497939 0.138808 0.053377 0.155689
H42   H     H_    0.861561 0.517776 0.052505 0.153619
H43   H     H_    0.502032 0.861189 0.053376 0.155679
H44   H     H_    0.138439 0.482223 0.052504 0.153620
H45   H     H_    0.497968 0.861189 0.946623 0.155679
H46   H     H_    0.861559 0.482224 0.947495 0.153620
H47   H     H_    0.502067 0.138813 0.946622 0.155692
H48   H     H_    0.138440 0.517756 0.947492 0.153619
H49   H     H_    0.054209 0.417874 0.410659 0.135360
H50   H     H_    0.584441 0.050630 0.410794 0.137814
H51   H     H_    0.945791 0.582132 0.410659 0.135363
H52   H     H_    0.415578 0.949360 0.410791 0.137786
H53   H     H_    0.054206 0.582128 0.589342 0.135365
H54   H     H_    0.584438 0.949358 0.589205 0.137823
H55   H     H_    0.945796 0.417866 0.589341 0.135350
H56   H     H_    0.415590 0.050653 0.589211 0.137799
H57   H     H_    0.550604 0.915553 0.910791 0.137802
H58   H     H_    0.082113 0.554233 0.910661 0.135392
H59   H     H_    0.449398 0.084455 0.910793 0.137809
H60   H     H_    0.917884 0.445767 0.910663 0.135387
H61   H     H_    0.550604 0.084450 0.089207 0.137810
H62   H     H_    0.082117 0.445773 0.089339 0.135383
H63   H     H_    0.449393 0.915552 0.089208 0.137807
H64   H     H_    0.917883 0.554230 0.089338 0.135386
N1    N     N_R   0.500028 0.000011 0.676106 -0.446870
N2    N     N_R   0.000002 0.499991 0.676154 -0.446107
N3    N     N_R   0.500016 0.999993 0.323894 -0.446870
N4    N     N_R   0.999997 0.500001 0.323847 -0.446112
N5    N     N_R   0.000000 0.500004 0.176150 -0.446120
N6    N     N_R   0.500002 0.999997 0.176106 -0.446871
N7    N     N_R   0.999992 0.500000 0.823851 -0.446125
N8    N     N_R   0.500010 0.000013 0.823894 -0.446871
O1    O     O_R   0.909810 1.000000 0.476260 -0.528380
O2    O     O_R   1.000000 0.909810 0.476260 -0.551062
O3    O     O_R   0.090190 1.000000 0.476260 -0.528456
O4    O     O_R   0.000000 0.090190 0.476260 -0.551114
O5    O     O_R   0.909810 1.000000 0.523740 -0.528386
O6    O     O_R   0.000000 0.090190 0.523740 -0.551088
O7    O     O_R   0.090190 1.000000 0.523740 -0.528483
O8    O     O_R   0.000000 0.909810 0.523740 -0.551090
O9    O     O_R   0.409810 0.500000 0.976260 -0.551066
O10   O     O_R   0.500000 0.409810 0.976260 -0.528380
O11   O     O_R   0.590190 0.500000 0.976260 -0.551071
O12   O     O_R   0.500000 0.590190 0.976260 -0.528400
O13   O     O_R   0.409810 0.500000 0.023740 -0.551073
O14   O     O_R   0.500000 0.590190 0.023740 -0.528399
O15   O     O_R   0.590190 0.500000 0.023740 -0.551085
O16   O     O_R   0.500000 0.409810 0.023740 -0.528381
O17   O     O_R   0.947780 0.500010 0.458980 -0.579046
O18   O     O_R   0.499990 0.947780 0.458980 -0.578996
O19   O     O_R   0.052220 0.499990 0.458980 -0.579052
O20   O     O_R   0.500010 0.052220 0.458980 -0.578968
O21   O     O_R   0.947780 0.499990 0.541020 -0.579048
O22   O     O_R   0.499990 0.052220 0.541020 -0.578987
O23   O     O_R   0.052220 0.500010 0.541020 -0.579043
O24   O     O_R   0.500010 0.947780 0.541020 -0.578962
O25   O     O_R   0.447780 0.000010 0.958980 -0.578981
O26   O     O_R   0.999990 0.447780 0.958980 -0.579054
O27   O     O_R   0.552220 0.999990 0.958980 -0.578984
O28   O     O_R   0.000010 0.552220 0.958980 -0.579052
O29   O     O_R   0.447780 0.999990 0.041020 -0.578983
O30   O     O_R   0.999990 0.552220 0.041020 -0.579051
O31   O     O_R   0.552220 0.000010 0.041020 -0.578978
O32   O     O_R   0.000010 0.447780 0.041020 -0.579051
O33   O     O_R   0.947780 0.590160 0.500040 -0.582297
O34   O     O_R   0.409840 0.947780 0.500040 -0.582925
O35   O     O_R   0.052220 0.409840 0.500040 -0.582306
O36   O     O_R   0.590160 0.052220 0.500040 -0.582940
O37   O     O_R   0.947780 0.409840 0.499960 -0.582297
O38   O     O_R   0.409840 0.052220 0.499960 -0.582920
O39   O     O_R   0.052220 0.590160 0.499960 -0.582313
O40   O     O_R   0.590160 0.947780 0.499960 -0.582936
O41   O     O_R   0.447780 0.090160 0.000040 -0.582938
O42   O     O_R   0.909840 0.447780 0.000040 -0.582305
O43   O     O_R   0.552220 0.909840 0.000040 -0.582936
O44   O     O_R   0.090160 0.552220 0.000040 -0.582309
O45   O     O_R   0.447780 0.909840 0.999960 -0.582932
O46   O     O_R   0.909840 0.552220 0.999960 -0.582310
O47   O     O_R   0.552220 0.090160 0.999960 -0.582935
O48   O     O_R   0.090160 0.447780 0.999960 -0.582308
O49   O     O_2   0.529892 0.897158 0.676915 -0.574105
O50   O     O_2   0.103103 0.529281 0.677091 -0.575044
O51   O     O_2   0.470171 0.102866 0.676911 -0.574099
O52   O     O_2   0.896902 0.470697 0.677088 -0.575046
O53   O     O_2   0.529885 0.102844 0.323087 -0.574105
O54   O     O_2   0.103100 0.470720 0.322912 -0.575045
O55   O     O_2   0.470150 0.897141 0.323088 -0.574109
O56   O     O_2   0.896893 0.529280 0.322912 -0.575039
O57   O     O_2   0.029229 0.396887 0.177084 -0.575035
O58   O     O_2   0.602847 0.029888 0.176910 -0.574101
O59   O     O_2   0.970770 0.603122 0.177084 -0.575034
O60   O     O_2   0.397158 0.970105 0.176914 -0.574104
O61   O     O_2   0.029204 0.603122 0.822916 -0.575028
O62   O     O_2   0.602855 0.970120 0.823091 -0.574103
O63   O     O_2   0.970773 0.396880 0.822919 -0.575036
O64   O     O_2   0.397167 0.029911 0.823085 -0.574107
O65   O     O_3   0.901392 0.812414 0.407571 -0.594886
C241  C     C_3   0.870203 0.777896 0.386748 0.039548
H65   H     H_    0.828843 0.804290 0.380567 0.162626
H66   H     H_    0.852513 0.733117 0.394519 0.127050
C242  C     C_3   0.910509 0.770991 0.360428 -0.323636
H67   H     H_    0.920214 0.817060 0.351505 0.230055
H68   H     H_    0.954951 0.749588 0.366073 0.210982
C243  C     C_3   0.879127 0.732067 0.337957 -0.953204
H69   H     H_    0.871105 0.685118 0.346182 0.260684
H70   H     H_    0.908877 0.729281 0.318957 0.251153
H71   H     H_    0.834693 0.752782 0.331725 0.262779
O66   O     O_3   0.191585 0.928862 0.401962 -0.599890
C244  C     C_3   0.224960 0.887985 0.384514 0.023469
H72   H     H_    0.197660 0.845360 0.382382 0.164275
H73   H     H_    0.270330 0.873632 0.393104 0.123113
C245  C     C_3   0.232644 0.916260 0.355158 -0.312190
H74   H     H_    0.187029 0.929631 0.346761 0.233751
H75   H     H_    0.261461 0.958039 0.356648 0.208537
C246  C     C_3   0.262327 0.871281 0.334691 -0.951539
H76   H     H_    0.308793 0.858840 0.342273 0.262261
H77   H     H_    0.266009 0.892800 0.313489 0.250016
H78   H     H_    0.234155 0.829162 0.332759 0.262238
O67   O     O_3   0.098545 0.187579 0.407556 -0.595016
C247  C     C_3   0.129636 0.222090 0.386700 0.039544
H79   H     H_    0.170958 0.195685 0.380474 0.162596
H80   H     H_    0.147380 0.266860 0.394456 0.127103
C248  C     C_3   0.089200 0.229008 0.360423 -0.323622
H81   H     H_    0.079468 0.182945 0.351500 0.230010
H82   H     H_    0.044776 0.250388 0.366117 0.211002
C249  C     C_3   0.120460 0.267968 0.337929 -0.953337
H83   H     H_    0.128545 0.314897 0.346164 0.260650
H84   H     H_    0.090599 0.270804 0.318968 0.251174
H85   H     H_    0.164851 0.247252 0.331633 0.262786
O68   O     O_3   0.808400 0.070908 0.401924 -0.599811
C250  C     C_3   0.775040 0.111794 0.384473 0.023428
H86   H     H_    0.802347 0.154415 0.382346 0.164290
H87   H     H_    0.729665 0.126148 0.393057 0.123051
C251  C     C_3   0.767364 0.083524 0.355117 -0.312123
H88   H     H_    0.812975 0.070107 0.346731 0.233789
H89   H     H_    0.738502 0.041775 0.356601 0.208506
C252  C     C_3   0.737751 0.128534 0.334642 -0.951568
H90   H     H_    0.691301 0.141045 0.342219 0.262247
H91   H     H_    0.734047 0.107009 0.313442 0.250011
H92   H     H_    0.765983 0.170611 0.332707 0.262238
O69   O     O_3   0.901384 0.187568 0.592425 -0.595001
C253  C     C_3   0.870325 0.222078 0.613292 0.039582
H93   H     H_    0.829004 0.195681 0.619527 0.162627
H94   H     H_    0.852578 0.266852 0.605542 0.127096
C254  C     C_3   0.910792 0.228979 0.639559 -0.323652
H95   H     H_    0.920506 0.182913 0.648483 0.229997
H96   H     H_    0.955222 0.250330 0.633855 0.211026
C255  C     C_3   0.879579 0.267964 0.662058 -0.953355
H97   H     H_    0.871512 0.314897 0.653821 0.260646
H98   H     H_    0.909463 0.270789 0.681012 0.251182
H99   H     H_    0.835183 0.247277 0.668366 0.262793
O70   O     O_3   0.191581 0.071095 0.598047 -0.599916
C256  C     C_3   0.224941 0.111963 0.615506 0.023491
H100  H     H_    0.197617 0.154568 0.617655 0.164289
H101  H     H_    0.270297 0.126357 0.606915 0.123107
C257  C     C_3   0.232658 0.083645 0.644850 -0.312210
H102  H     H_    0.187057 0.070220 0.653246 0.233757
H103  H     H_    0.261510 0.041893 0.643344 0.208512
C258  C     C_3   0.262308 0.128616 0.665332 -0.951542
H104  H     H_    0.308752 0.141126 0.657747 0.262251
H105  H     H_    0.266033 0.107056 0.686524 0.250006
H106  H     H_    0.234088 0.170697 0.667288 0.262236
O71   O     O_3   0.098471 0.812415 0.592460 -0.595070
C259  C     C_3   0.129589 0.777909 0.613309 0.039521
H107  H     H_    0.170909 0.804324 0.619529 0.162536
H108  H     H_    0.147338 0.733144 0.605550 0.127135
C260  C     C_3   0.089178 0.770977 0.639593 -0.323601
H109  H     H_    0.079423 0.817037 0.648513 0.230024
H110  H     H_    0.044765 0.749564 0.633907 0.210975
C261  C     C_3   0.120483 0.732047 0.662085 -0.953327
H111  H     H_    0.128581 0.685116 0.653854 0.260656
H112  H     H_    0.090646 0.729211 0.681054 0.251168
H113  H     H_    0.164872 0.752788 0.668367 0.262784
O72   O     O_3   0.808399 0.929121 0.598081 -0.599821
C262  C     C_3   0.775045 0.888234 0.615533 0.023433
H114  H     H_    0.802360 0.845618 0.617663 0.164299
H115  H     H_    0.729673 0.873870 0.606950 0.123048
C263  C     C_3   0.767363 0.916510 0.644888 -0.312132
H116  H     H_    0.812971 0.929943 0.653273 0.233791
H117  H     H_    0.738489 0.958250 0.643402 0.208499
C264  C     C_3   0.737765 0.871498 0.665366 -0.951570
H118  H     H_    0.691320 0.858966 0.657790 0.262244
H119  H     H_    0.734051 0.893030 0.686565 0.250008
H120  H     H_    0.766012 0.829431 0.667305 0.262238
O73   O     O_3   0.429131 0.308403 0.901919 -0.599789
C265  C     C_3   0.388252 0.275043 0.884466 0.023449
H121  H     H_    0.345628 0.302347 0.882339 0.164299
H122  H     H_    0.373900 0.229665 0.893048 0.123040
C266  C     C_3   0.416528 0.267375 0.855111 -0.312115
H123  H     H_    0.429951 0.312989 0.846729 0.233810
H124  H     H_    0.458275 0.238511 0.856595 0.208498
C267  C     C_3   0.371522 0.237773 0.834631 -0.951573
H125  H     H_    0.359000 0.191325 0.842206 0.262248
H126  H     H_    0.393054 0.234069 0.813433 0.250011
H127  H     H_    0.329449 0.266013 0.832694 0.262242
O74   O     O_3   0.687619 0.401441 0.907555 -0.594855
C268  C     C_3   0.722152 0.370190 0.886757 0.039536
H128  H     H_    0.695760 0.328813 0.880598 0.162608
H129  H     H_    0.766929 0.352525 0.894543 0.127038
C269  C     C_3   0.729074 0.410420 0.860413 -0.323622
H130  H     H_    0.683009 0.420121 0.851485 0.230079
H131  H     H_    0.750498 0.454867 0.866032 0.210947
C270  C     C_3   0.767983 0.378960 0.837960 -0.953155
H132  H     H_    0.814932 0.370949 0.846186 0.260695
H133  H     H_    0.770771 0.408651 0.818940 0.251140
H134  H     H_    0.747253 0.334514 0.831757 0.262772
O75   O     O_3   0.570917 0.691598 0.901926 -0.599806
C271  C     C_3   0.611799 0.724960 0.884474 0.023452
H135  H     H_    0.654421 0.697655 0.882346 0.164293
H136  H     H_    0.626152 0.770335 0.893058 0.123055
C272  C     C_3   0.583523 0.732634 0.855119 -0.312125
H137  H     H_    0.570108 0.687022 0.846733 0.233800
H138  H     H_    0.541772 0.761493 0.856604 0.208505
C273  C     C_3   0.628527 0.762251 0.834642 -0.951567
H139  H     H_    0.641038 0.808700 0.842219 0.262248
H140  H     H_    0.606997 0.765956 0.813443 0.250011
H141  H     H_    0.670606 0.734021 0.832705 0.262242
O76   O     O_3   0.312373 0.598515 0.907543 -0.594832
C274  C     C_3   0.277841 0.629834 0.886765 0.039516
H142  H     H_    0.304241 0.671222 0.880630 0.162585
H143  H     H_    0.233067 0.647484 0.894562 0.127029
C275  C     C_3   0.270904 0.589680 0.860399 -0.323617
H144  H     H_    0.316967 0.579962 0.851473 0.230111
H145  H     H_    0.249435 0.545238 0.865990 0.210908
C276  C     C_3   0.232041 0.621235 0.837956 -0.953077
H146  H     H_    0.185086 0.629247 0.846176 0.260709
H147  H     H_    0.229260 0.591607 0.818916 0.251123
H148  H     H_    0.252803 0.665689 0.831789 0.262765
O77   O     O_3   0.429098 0.691594 0.098076 -0.599811
C277  C     C_3   0.388218 0.724953 0.115529 0.023456
H149  H     H_    0.345597 0.697645 0.117659 0.164294
H150  H     H_    0.373860 0.770328 0.106947 0.123054
C278  C     C_3   0.416498 0.732627 0.144884 -0.312130
H151  H     H_    0.429919 0.687015 0.153269 0.233798
H152  H     H_    0.458247 0.761488 0.143397 0.208504
C279  C     C_3   0.371496 0.762239 0.165362 -0.951569
H153  H     H_    0.358980 0.808688 0.157786 0.262248
H154  H     H_    0.393029 0.765944 0.186561 0.250011
H155  H     H_    0.329420 0.734006 0.167301 0.262241
O78   O     O_3   0.687613 0.598521 0.092454 -0.594891
C280  C     C_3   0.722140 0.629755 0.113259 0.039539
H156  H     H_    0.695741 0.671122 0.119427 0.162595
H157  H     H_    0.766913 0.647437 0.105477 0.127051
C281  C     C_3   0.729068 0.589499 0.139594 -0.323624
H158  H     H_    0.683005 0.579779 0.148519 0.230077
H159  H     H_    0.750503 0.545063 0.133965 0.210939
C282  C     C_3   0.767968 0.620946 0.162055 -0.953175
H160  H     H_    0.814913 0.628985 0.153829 0.260686
H161  H     H_    0.770771 0.591232 0.181066 0.251141
H162  H     H_    0.747223 0.665377 0.168269 0.262774
O79   O     O_3   0.570855 0.308399 0.098084 -0.599797
C283  C     C_3   0.611738 0.275043 0.115537 0.023447
H163  H     H_    0.654356 0.302354 0.117667 0.164302
H164  H     H_    0.626099 0.229669 0.106955 0.123039
C284  C     C_3   0.583459 0.267365 0.144892 -0.312115
H165  H     H_    0.570025 0.312974 0.153275 0.233807
H166  H     H_    0.541719 0.238491 0.143405 0.208494
C285  C     C_3   0.628469 0.237770 0.165372 -0.951577
H167  H     H_    0.641006 0.191327 0.157795 0.262245
H168  H     H_    0.606933 0.234053 0.186569 0.250008
H169  H     H_    0.670533 0.266020 0.167313 0.262241
O80   O     O_3   0.312384 0.401455 0.092448 -0.594874
C286  C     C_3   0.277854 0.370225 0.113254 0.039544
H170  H     H_    0.304248 0.328854 0.119421 0.162605
H171  H     H_    0.233078 0.352550 0.105472 0.127046
C287  C     C_3   0.270932 0.410480 0.139589 -0.323624
H172  H     H_    0.316997 0.420188 0.148515 0.230074
H173  H     H_    0.249510 0.454923 0.133960 0.210948
C288  C     C_3   0.232021 0.379043 0.162048 -0.953176
H174  H     H_    0.185074 0.371018 0.153821 0.260688
H175  H     H_    0.229225 0.408756 0.181060 0.251143
H176  H     H_    0.252753 0.334605 0.168263 0.262773
O81   O     O_3   0.097249 0.861196 0.539795 -0.572717
C289  C     C_3   0.155325 0.847421 0.528028 0.031511
H177  H     H_    0.161519 0.877110 0.509332 0.163703
H178  H     H_    0.160653 0.799155 0.520505 0.104562
C290  C     C_3   0.206191 0.862462 0.549150 -0.296702
H179  H     H_    0.202033 0.910944 0.555951 0.243136
H180  H     H_    0.201880 0.832873 0.568086 0.227934
C291  C     C_3   0.269284 0.852032 0.536146 -0.913306
H181  H     H_    0.275941 0.802690 0.531397 0.250481
H182  H     H_    0.305229 0.866917 0.551264 0.267002
H183  H     H_    0.274316 0.878606 0.516277 0.266491
O82   O     O_3   0.140208 0.088486 0.544618 -0.592726
C292  C     C_3   0.148521 0.151561 0.550803 0.057017
H184  H     H_    0.142425 0.178023 0.531001 0.125658
H185  H     H_    0.194734 0.163744 0.559117 0.112066
C293  C     C_3   0.099250 0.172539 0.571661 -0.268537
H186  H     H_    0.053481 0.164454 0.562323 0.231247
H187  H     H_    0.101917 0.145487 0.591470 0.246622
C294  C     C_3   0.105899 0.240353 0.578722 -0.942086
H188  H     H_    0.151313 0.249374 0.588425 0.249066
H189  H     H_    0.069832 0.253947 0.594027 0.265386
H190  H     H_    0.100963 0.268473 0.559273 0.270491
O83   O     O_3   0.902699 0.138813 0.539759 -0.572717
C295  C     C_3   0.844700 0.152621 0.527919 0.031472
H191  H     H_    0.838507 0.122781 0.509275 0.163878
H192  H     H_    0.839525 0.200830 0.520295 0.104507
C296  C     C_3   0.793713 0.137908 0.549029 -0.296962
H193  H     H_    0.797759 0.089498 0.555957 0.243326
H194  H     H_    0.797985 0.167727 0.567890 0.227734
C297  C     C_3   0.730701 0.148280 0.535932 -0.913300
H195  H     H_    0.724198 0.197555 0.530993 0.250469
H196  H     H_    0.694656 0.133759 0.551075 0.266952
H197  H     H_    0.725682 0.121371 0.516160 0.266575
O84   O     O_3   0.859762 0.911597 0.544660 -0.592723
C298  C     C_3   0.851422 0.848538 0.550868 0.056869
H198  H     H_    0.857456 0.822044 0.531071 0.125646
H199  H     H_    0.805222 0.836395 0.559207 0.112050
C299  C     C_3   0.900727 0.827563 0.571709 -0.268489
H200  H     H_    0.946481 0.835626 0.562351 0.231324
H201  H     H_    0.898100 0.854637 0.591513 0.246558
C300  C     C_3   0.894075 0.759758 0.578786 -0.942079
H202  H     H_    0.848670 0.750753 0.588502 0.249055
H203  H     H_    0.930157 0.746173 0.594085 0.265402
H204  H     H_    0.898984 0.731619 0.559342 0.270476
O85   O     O_3   0.097273 0.138811 0.460221 -0.572712
C301  C     C_3   0.155295 0.152606 0.472039 0.031507
H205  H     H_    0.161489 0.122805 0.490697 0.163874
H206  H     H_    0.160514 0.200829 0.479636 0.104493
C302  C     C_3   0.206247 0.137804 0.450925 -0.296942
H207  H     H_    0.202168 0.089376 0.444029 0.243271
H208  H     H_    0.201965 0.167567 0.432045 0.227767
C303  C     C_3   0.269282 0.148185 0.463996 -0.913320
H209  H     H_    0.275819 0.197472 0.468899 0.250478
H210  H     H_    0.305300 0.133597 0.448853 0.266942
H211  H     H_    0.274314 0.121337 0.483785 0.266579
O86   O     O_3   0.140222 0.911494 0.455394 -0.592718
C304  C     C_3   0.148566 0.848415 0.449228 0.056913
H212  H     H_    0.142477 0.821975 0.469038 0.125685
H213  H     H_    0.194786 0.836243 0.440920 0.112034
C305  C     C_3   0.099311 0.827386 0.428374 -0.268510
H214  H     H_    0.053536 0.835459 0.437706 0.231219
H215  H     H_    0.101968 0.854418 0.408558 0.246625
C306  C     C_3   0.105997 0.759568 0.421329 -0.942016
H216  H     H_    0.151419 0.750560 0.411631 0.249047
H217  H     H_    0.069943 0.745938 0.406025 0.265440
H218  H     H_    0.101072 0.731468 0.440785 0.270473
O87   O     O_3   0.902704 0.861182 0.460235 -0.572685
C307  C     C_3   0.844740 0.847373 0.472110 0.031447
H219  H     H_    0.838570 0.877263 0.490738 0.163957
H220  H     H_    0.839614 0.799183 0.479767 0.104484
C308  C     C_3   0.793697 0.861985 0.451014 -0.297104
H221  H     H_    0.797703 0.910372 0.444046 0.243380
H222  H     H_    0.797943 0.832095 0.432175 0.227532
C309  C     C_3   0.730720 0.851632 0.464150 -0.913262
H223  H     H_    0.724264 0.802378 0.469145 0.250456
H224  H     H_    0.694632 0.866048 0.449007 0.266925
H225  H     H_    0.725722 0.878640 0.483894 0.266590
O88   O     O_3   0.859762 0.088412 0.455346 -0.592701
C310  C     C_3   0.851415 0.151475 0.449148 0.056873
H226  H     H_    0.857453 0.177955 0.468949 0.125670
H227  H     H_    0.805212 0.163620 0.440813 0.112026
C311  C     C_3   0.900713 0.172470 0.428308 -0.268529
H228  H     H_    0.946470 0.164400 0.437661 0.231307
H229  H     H_    0.898080 0.145414 0.408499 0.246545
C312  C     C_3   0.894055 0.240282 0.421244 -0.942066
H230  H     H_    0.848649 0.249293 0.411531 0.249064
H231  H     H_    0.930135 0.253883 0.405947 0.265396
H232  H     H_    0.898965 0.268404 0.440694 0.270474
O89   O     O_3   0.588398 0.359753 0.044663 -0.592714
C313  C     C_3   0.651457 0.351396 0.050866 0.056843
H233  H     H_    0.677948 0.357417 0.031068 0.125636
H234  H     H_    0.663589 0.305194 0.059208 0.112050
C314  C     C_3   0.672451 0.400697 0.071704 -0.268499
H235  H     H_    0.664399 0.446452 0.062344 0.231303
H236  H     H_    0.645381 0.398081 0.091510 0.246553
C315  C     C_3   0.740257 0.394026 0.078778 -0.942035
H237  H     H_    0.749252 0.348621 0.088494 0.249049
H238  H     H_    0.753856 0.430106 0.094074 0.265442
H239  H     H_    0.768392 0.398925 0.059331 0.270463
O90   O     O_3   0.638821 0.597253 0.039793 -0.572657
C316  C     C_3   0.652616 0.655236 0.027935 0.031476
H240  H     H_    0.622772 0.661396 0.009290 0.163870
H241  H     H_    0.700823 0.660412 0.020309 0.104505
C317  C     C_3   0.637895 0.706247 0.049030 -0.297013
H242  H     H_    0.589482 0.702212 0.055954 0.243305
H243  H     H_    0.667704 0.701990 0.067896 0.227579
C318  C     C_3   0.648279 0.769245 0.035920 -0.913264
H244  H     H_    0.697557 0.775740 0.030985 0.250455
H245  H     H_    0.633752 0.805307 0.051053 0.266947
H246  H     H_    0.621380 0.774245 0.016144 0.266557
O91   O     O_3   0.411581 0.640243 0.044652 -0.592719
C319  C     C_3   0.348518 0.648601 0.050850 0.056858
H247  H     H_    0.322036 0.642572 0.031049 0.125635
H248  H     H_    0.336382 0.694806 0.059186 0.112053
C320  C     C_3   0.327515 0.599307 0.071690 -0.268511
H249  H     H_    0.335571 0.553549 0.062335 0.231287
H250  H     H_    0.354576 0.601930 0.091498 0.246562
C321  C     C_3   0.259706 0.605983 0.078757 -0.942028
H251  H     H_    0.250710 0.651391 0.088470 0.249050
H252  H     H_    0.246099 0.569907 0.094055 0.265445
H253  H     H_    0.231579 0.601080 0.059308 0.270464
O92   O     O_3   0.361177 0.402742 0.039789 -0.572649
C322  C     C_3   0.347381 0.344772 0.027918 0.031476
H254  H     H_    0.377250 0.338617 0.009281 0.163895
H255  H     H_    0.299183 0.339621 0.020275 0.104498
C323  C     C_3   0.362049 0.293740 0.049010 -0.297054
H256  H     H_    0.410450 0.297757 0.055954 0.243334
H257  H     H_    0.332204 0.297989 0.067864 0.227546
C324  C     C_3   0.351675 0.230757 0.035884 -0.913262
H258  H     H_    0.302407 0.224284 0.030922 0.250451
H259  H     H_    0.366150 0.194677 0.051019 0.266942
H260  H     H_    0.378623 0.225762 0.016122 0.266566
O93   O     O_3   0.588422 0.640243 0.955349 -0.592705
C325  C     C_3   0.651487 0.648603 0.949157 0.056854
H261  H     H_    0.677962 0.642570 0.968960 0.125645
H262  H     H_    0.663625 0.694811 0.940824 0.112043
C326  C     C_3   0.672499 0.599315 0.928317 -0.268514
H263  H     H_    0.664442 0.553555 0.937669 0.231281
H264  H     H_    0.645445 0.601941 0.908507 0.246562
C327  C     C_3   0.740310 0.605995 0.921255 -0.942017
H265  H     H_    0.749308 0.651406 0.911544 0.249050
H266  H     H_    0.753925 0.569923 0.905957 0.265453
H267  H     H_    0.768431 0.601090 0.940706 0.270462
O94   O     O_3   0.638826 0.402738 0.960216 -0.572656
C328  C     C_3   0.652628 0.344778 0.972097 0.031465
H268  H     H_    0.622741 0.338624 0.990727 0.163929
H269  H     H_    0.700820 0.339646 0.979751 0.104488
C329  C     C_3   0.638001 0.293731 0.951007 -0.297113
H270  H     H_    0.589608 0.297735 0.944046 0.243359
H271  H     H_    0.667875 0.297974 0.932163 0.227502
C330  C     C_3   0.648365 0.230758 0.964145 -0.913264
H272  H     H_    0.697623 0.224306 0.969133 0.250454
H273  H     H_    0.633939 0.194666 0.949007 0.266934
H274  H     H_    0.621371 0.225766 0.983894 0.266584
O95   O     O_3   0.411594 0.359751 0.955341 -0.592707
C331  C     C_3   0.348533 0.351382 0.949145 0.056810
H275  H     H_    0.322051 0.357403 0.968946 0.125643
H276  H     H_    0.336405 0.305177 0.940806 0.112045
C332  C     C_3   0.327519 0.400676 0.928308 -0.268487
H277  H     H_    0.335568 0.446434 0.937664 0.231296
H278  H     H_    0.354580 0.398061 0.908499 0.246555
C333  C     C_3   0.259711 0.393991 0.921242 -0.942002
H279  H     H_    0.250721 0.348582 0.911528 0.249043
H280  H     H_    0.246097 0.430066 0.905945 0.265472
H281  H     H_    0.231585 0.398888 0.940691 0.270455
O96   O     O_3   0.361176 0.597248 0.960203 -0.572644
C334  C     C_3   0.347382 0.655217 0.972076 0.031462
H282  H     H_    0.377243 0.661363 0.990716 0.163901
H283  H     H_    0.299181 0.660376 0.979713 0.104496
C335  C     C_3   0.362070 0.706251 0.950988 -0.297083
H284  H     H_    0.410476 0.702229 0.944051 0.243324
H285  H     H_    0.332238 0.702007 0.932130 0.227482
C336  C     C_3   0.351694 0.769234 0.964114 -0.913250
H286  H     H_    0.302423 0.775711 0.969069 0.250449
H287  H     H_    0.366184 0.805313 0.948982 0.266940
H288  H     H_    0.378628 0.774222 0.983881 0.266566
C337  C     C_3   0.385891 0.130504 0.719131 -0.363348
C338  C     C_3   0.416873 0.193730 0.718209 -0.289370
C339  C     C_3   0.381081 0.238095 0.699565 -0.828516
H289  H     H_    0.380387 0.221517 0.677356 0.268149
H290  H     H_    0.333353 0.242818 0.707377 0.248511
H291  H     H_    0.403327 0.283779 0.700034 0.238899
H292  H     H_    0.420095 0.213254 0.739830 0.188411
H293  H     H_    0.464323 0.190029 0.710010 0.259159
H294  H     H_    0.375126 0.113801 0.697620 0.226554
H295  H     H_    0.339641 0.135217 0.728338 0.172976
C340  C     C_3   0.870070 0.385313 0.719056 -0.362987
C341  C     C_3   0.806517 0.415581 0.717840 -0.288443
C342  C     C_3   0.763173 0.379401 0.698838 -0.828693
H296  H     H_    0.780838 0.378396 0.676804 0.269490
H297  H     H_    0.758253 0.331767 0.706744 0.245849
H298  H     H_    0.717398 0.401481 0.698775 0.239177
H299  H     H_    0.786304 0.418352 0.739333 0.188071
H300  H     H_    0.809833 0.463161 0.709779 0.259918
H301  H     H_    0.887197 0.374728 0.697597 0.225710
H302  H     H_    0.865658 0.339070 0.728305 0.174586
C343  C     C_3   0.614162 0.869525 0.719139 -0.363353
C344  C     C_3   0.583183 0.806297 0.718215 -0.289377
C345  C     C_3   0.618983 0.761936 0.699572 -0.828507
H303  H     H_    0.619685 0.778518 0.677364 0.268142
H304  H     H_    0.666708 0.757213 0.707388 0.248509
H305  H     H_    0.596738 0.716252 0.700038 0.238901
H306  H     H_    0.579958 0.786772 0.739836 0.188413
H307  H     H_    0.535735 0.809997 0.710013 0.259163
H308  H     H_    0.624931 0.886230 0.697629 0.226561
H309  H     H_    0.660410 0.864814 0.728350 0.172982
C346  C     C_3   0.129937 0.614664 0.719058 -0.363001
C347  C     C_3   0.193486 0.584388 0.717849 -0.288451
C348  C     C_3   0.236846 0.620562 0.698852 -0.828684
H310  H     H_    0.219195 0.621564 0.676816 0.269479
H311  H     H_    0.241764 0.668197 0.706757 0.245867
H312  H     H_    0.282620 0.598479 0.698797 0.239172
H313  H     H_    0.213687 0.581614 0.739344 0.188074
H314  H     H_    0.190167 0.536809 0.709787 0.259913
H315  H     H_    0.112820 0.625246 0.697597 0.225709
H316  H     H_    0.134351 0.660910 0.728305 0.174588
C349  C     C_3   0.385877 0.869504 0.280866 -0.363334
C350  C     C_3   0.416862 0.806278 0.281787 -0.289365
C351  C     C_3   0.381071 0.761909 0.300430 -0.828446
H317  H     H_    0.380381 0.778481 0.322640 0.268152
H318  H     H_    0.333333 0.757190 0.292619 0.248485
H319  H     H_    0.403315 0.716225 0.299957 0.238889
H320  H     H_    0.420085 0.786758 0.260166 0.188408
H321  H     H_    0.464311 0.809981 0.289988 0.259150
H322  H     H_    0.375108 0.886205 0.302377 0.226553
H323  H     H_    0.339628 0.864790 0.271658 0.172954
C352  C     C_3   0.870034 0.614648 0.280943 -0.362961
C353  C     C_3   0.806495 0.584351 0.282153 -0.288429
C354  C     C_3   0.763123 0.620508 0.301151 -0.828679
H324  H     H_    0.780765 0.621500 0.323188 0.269495
H325  H     H_    0.758199 0.668147 0.293251 0.245896
H326  H     H_    0.717353 0.598417 0.301200 0.239161
H327  H     H_    0.786294 0.581573 0.260658 0.188069
H328  H     H_    0.809830 0.536772 0.290214 0.259902
H329  H     H_    0.887150 0.625241 0.302403 0.225677
H330  H     H_    0.865605 0.660890 0.271694 0.174541
C355  C     C_3   0.614153 0.130478 0.280863 -0.363344
C356  C     C_3   0.583174 0.193706 0.281788 -0.289377
C357  C     C_3   0.618973 0.238066 0.300432 -0.828508
H331  H     H_    0.619673 0.221483 0.322640 0.268147
H332  H     H_    0.666699 0.242789 0.292617 0.248511
H333  H     H_    0.596729 0.283750 0.299966 0.238899
H334  H     H_    0.579950 0.213234 0.260168 0.188411
H335  H     H_    0.535725 0.190006 0.289989 0.259160
H336  H     H_    0.624924 0.113771 0.302373 0.226559
H337  H     H_    0.660401 0.135190 0.271652 0.172978
C358  C     C_3   0.129946 0.385342 0.280945 -0.362987
C359  C     C_3   0.193492 0.415623 0.282159 -0.288446
C360  C     C_3   0.236846 0.379453 0.301161 -0.828680
H338  H     H_    0.219184 0.378450 0.323195 0.269486
H339  H     H_    0.241773 0.331819 0.293257 0.245856
H340  H     H_    0.282618 0.401541 0.301221 0.239172
H341  H     H_    0.213703 0.418396 0.260666 0.188071
H342  H     H_    0.190167 0.463203 0.290219 0.259914
H343  H     H_    0.112823 0.374754 0.302404 0.225708
H344  H     H_    0.134367 0.339099 0.271696 0.174584
C361  C     C_3   0.885422 0.630029 0.219054 -0.362967
C362  C     C_3   0.915755 0.693551 0.217844 -0.288440
C363  C     C_3   0.879622 0.736943 0.198846 -0.828655
H345  H     H_    0.878618 0.719300 0.176809 0.269491
H346  H     H_    0.831987 0.741894 0.206747 0.245900
H347  H     H_    0.901740 0.782700 0.198796 0.239154
H348  H     H_    0.918547 0.713751 0.239339 0.188069
H349  H     H_    0.963333 0.690189 0.209783 0.259900
H350  H     H_    0.874818 0.612919 0.197594 0.225678
H351  H     H_    0.839184 0.634486 0.228304 0.174539
C364  C     C_3   0.369541 0.885832 0.219139 -0.363344
C365  C     C_3   0.306308 0.916802 0.218216 -0.289376
C366  C     C_3   0.261952 0.881000 0.199572 -0.828514
H352  H     H_    0.278533 0.880306 0.177363 0.268151
H353  H     H_    0.257237 0.833272 0.207385 0.248509
H354  H     H_    0.216264 0.903237 0.200039 0.238897
H355  H     H_    0.286783 0.920020 0.239836 0.188412
H356  H     H_    0.310001 0.964252 0.210016 0.259156
H357  H     H_    0.386247 0.875066 0.197628 0.226564
H358  H     H_    0.364836 0.839583 0.228348 0.172980
C367  C     C_3   0.114570 0.369972 0.219055 -0.362955
C368  C     C_3   0.084230 0.306453 0.217842 -0.288433
C369  C     C_3   0.120359 0.263062 0.198842 -0.828647
H359  H     H_    0.121361 0.280710 0.176805 0.269498
H360  H     H_    0.167994 0.258106 0.206741 0.245896
H361  H     H_    0.098238 0.217307 0.198790 0.239152
H362  H     H_    0.081438 0.286248 0.239336 0.188070
H363  H     H_    0.036653 0.309821 0.209782 0.259899
H364  H     H_    0.125180 0.387084 0.197596 0.225677
H365  H     H_    0.160805 0.365509 0.228307 0.174532
C370  C     C_3   0.630473 0.114157 0.219134 -0.363347
C371  C     C_3   0.693705 0.083187 0.218208 -0.289374
C372  C     C_3   0.738057 0.118992 0.199562 -0.828508
H366  H     H_    0.721470 0.119690 0.177354 0.268145
H367  H     H_    0.742776 0.166717 0.207376 0.248508
H368  H     H_    0.783745 0.096753 0.200026 0.238898
H369  H     H_    0.713236 0.079967 0.239827 0.188410
H370  H     H_    0.690011 0.035738 0.210007 0.259159
H371  H     H_    0.613762 0.124926 0.197625 0.226564
H372  H     H_    0.635181 0.160405 0.228345 0.172986
C373  C     C_3   0.885442 0.369949 0.780946 -0.362950
C374  C     C_3   0.915793 0.306436 0.782161 -0.288430
C375  C     C_3   0.879672 0.263041 0.801163 -0.828639
H373  H     H_    0.878667 0.280689 0.823199 0.269500
H374  H     H_    0.832037 0.258076 0.793264 0.245901
H375  H     H_    0.901800 0.217289 0.801215 0.239148
H376  H     H_    0.918590 0.286229 0.760668 0.188067
H377  H     H_    0.963370 0.309812 0.790222 0.259896
H378  H     H_    0.874826 0.387061 0.802405 0.225673
H379  H     H_    0.839209 0.365477 0.771693 0.174524
C376  C     C_3   0.369552 0.114180 0.780859 -0.363345
C377  C     C_3   0.306320 0.083210 0.781781 -0.289377
C378  C     C_3   0.261962 0.119014 0.800423 -0.828511
H380  H     H_    0.278541 0.119711 0.822633 0.268148
H381  H     H_    0.257246 0.166740 0.792609 0.248509
H382  H     H_    0.216274 0.096776 0.799956 0.238896
H383  H     H_    0.286796 0.079989 0.760160 0.188412
H384  H     H_    0.310012 0.035760 0.789982 0.259156
H385  H     H_    0.386257 0.124948 0.802369 0.226567
H386  H     H_    0.364847 0.160428 0.771648 0.172984
C379  C     C_3   0.114541 0.630050 0.780945 -0.362949
C380  C     C_3   0.084186 0.693562 0.782152 -0.288431
C381  C     C_3   0.120302 0.736972 0.801148 -0.828645
H387  H     H_    0.121299 0.719342 0.823187 0.269495
H388  H     H_    0.167939 0.741929 0.793250 0.245929
H389  H     H_    0.098174 0.782724 0.801190 0.239144
H390  H     H_    0.081388 0.713755 0.760656 0.188071
H391  H     H_    0.036609 0.690185 0.790213 0.259892
H392  H     H_    0.125152 0.612947 0.802406 0.225655
H393  H     H_    0.160778 0.634521 0.771695 0.174509
C382  C     C_3   0.630482 0.885850 0.780868 -0.363340
C383  C     C_3   0.693714 0.916821 0.781794 -0.289375
C384  C     C_3   0.738067 0.881019 0.800440 -0.828512
H394  H     H_    0.721483 0.880325 0.822648 0.268151
H395  H     H_    0.742785 0.833292 0.792627 0.248511
H396  H     H_    0.783755 0.903257 0.799974 0.238896
H397  H     H_    0.713244 0.920041 0.760174 0.188409
H398  H     H_    0.690019 0.964271 0.789994 0.259156
H399  H     H_    0.613772 0.875081 0.802377 0.226562
H400  H     H_    0.635191 0.839602 0.771658 0.172980

loop_
_geom_bond_atom_site_label_1
_geom_bond_atom_site_label_2
_ccdc_geom_bond_type
C119  C149  A    
C351  H319  S    
C3    O3    A    
C260  H109  S    
C110  O42   A    
Cu4   O13   S    
C375  H373  S    
C77   C101  S    
C270  H132  S    
C281  C282  S    
C298  H198  S    
C310  C311  S    
C53   C69   A    
C51   C85   A    
C311  C312  S    
C27   C107  S    
C205  H29   S    
C25   C105  S    
C90   C95   A    
C179  C195  A    
C254  H95   S    
C26   C230  A    
C264  H120  S    
C330  H273  S    
C287  C288  S    
C309  H223  S    
C177  C193  A    
C147  N1    A    
C29   C109  S    
C243  H70   S    
C293  H187  S    
C161  O81   S    
C20   C40   A    
C261  H112  S    
C324  H260  S    
C42   H2    S    
Cu10  Cu12  S    
C381  H387  S    
C22   C38   A    
C112  O48   A    
C336  H288  S    
C2    O8    A    
O86   C304  S    
C186  C202  A    
C376  H385  S    
C356  C357  S    
C246  H78   S    
C130  C141  A    
C353  H327  S    
C305  H214  S    
C50   C66   A    
C244  H73   S    
C287  H172  S    
C190  C206  A    
C111  O43   A    
C357  H331  S    
C94   C124  A    
C307  H220  S    
C279  H153  S    
C56   C72   A    
Cu3   Cu4   S    
C315  H239  S    
C338  H293  S    
C174  O94   S    
C47   C83   A    
C86   N7    S    
C32   C112  S    
C127  C157  A    
C59   H51   S    
C24   C240  A    
C307  C308  S    
C1    O5    A    
C45   C61   A    
C162  O82   S    
C117  C133  A    
C10   C162  A    
C349  C350  S    
C159  N7    A    
C114  C130  A    
C28   C228  A    
C52   C86   A    
C53   C87   A    
C303  H209  S    
C314  H236  S    
C144  C382  S    
C99   O23   A    
C314  H235  S    
C322  C323  S    
Cu6   Cu8   S    
C362  H348  S    
C18   C170  A    
C98   O18   A    
C378  H382  S    
C89   C113  A    
C159  O63   S    
C65   C77   A    
C327  H267  S    
Cu12  O28   S    
C382  C383  S    
C111  O45   A    
C154  O58   S    
C217  C233  A    
C276  H147  S    
O84   C298  S    
C44   H4    S    
C290  C291  S    
C241  H66   S    
C129  C142  A    
C309  H225  S    
C145  N1    A    
C273  H139  S    
C23   C37   A    
C221  C237  A    
C340  H302  S    
C112  O44   A    
C328  C329  S    
C358  C359  S    
C143  C379  S    
C265  H122  S    
C69   H61   S    
C312  H231  S    
C146  O50   S    
C323  H257  S    
C318  H244  S    
C54   C70   A    
C155  O59   S    
C306  H218  S    
C223  H47   S    
Cu11  O47   S    
Cu1   O3    S    
C318  H246  S    
C211  H35   S    
C339  H290  S    
C127  C143  A    
C245  H74   S    
C316  C317  S    
C61   H53   S    
C128  C144  A    
C29   C233  A    
C46   C84   A    
C94   C122  A    
C219  H43   S    
C20   C172  A    
C46   C62   A    
C150  O54   S    
Cu4   O15   S    
C21   C173  A    
C280  H157  S    
O65   C241  S    
C210  H34   S    
C313  H234  S    
Cu3   O10   S    
C161  C177  A    
C310  H226  S    
C198  C214  A    
C213  C229  A    
C359  C360  S    
C299  C300  S    
C348  H311  S    
C32   C236  A    
C254  C255  S    
C115  C145  A    
C362  C363  S    
C48   H8    S    
C177  O71   S    
C304  H213  S    
C191  C207  A    
C202  H26   S    
C93   C123  A    
C140  C370  S    
C343  H308  S    
O94   C328  S    
C15   C33   A    
C294  H190  S    
C18   C234  A    
C169  O89   S    
Cu7   O35   S    
C76   C100  S    
C301  C302  S    
C242  H67   S    
C44   C82   A    
C335  C336  S    
C355  H336  S    
C257  H102  S    
C89   C96   A    
C11   C35   A    
O88   C310  S    
C18   C38   A    
C102  O28   A    
C223  C239  A    
Cu3   O12   S    
C283  H163  S    
C91   C94   A    
C54   C88   A    
C27   C227  A    
C276  H146  S    
C321  H252  S    
Cu6   O34   S    
C293  C294  S    
C53   H13   S    
C25   C225  A    
O74   C268  S    
C16   C232  A    
Cu11  O43   S    
C90   C114  A    
C256  H100  S    
C64   H56   S    
C14   C230  A    
C290  H180  S    
C207  H31   S    
C364  C365  S    
C196  C212  A    
C48   C84   A    
C379  H392  S    
O78   C280  S    
C329  H271  S    
O72   C262  S    
Cu10  O26   S    
C298  C299  S    
C101  O25   A    
C376  C377  S    
C384  H395  S    
C206  H30   S    
C80   C104  S    
C65   H57   S    
C106  O38   A    
C347  H313  S    
C304  H212  S    
C88   N5    S    
C303  H211  S    
C55   C71   A    
C99   O21   A    
C327  H266  S    
C321  H253  S    
C292  H184  S    
C359  H341  S    
C46   H6    S    
C21   C237  A    
C89   C115  A    
C207  C223  A    
C300  H202  S    
C129  C337  S    
C193  H17   S    
C275  H145  S    
O91   C319  S    
C166  C182  A    
C244  H72   S    
C195  H19   S    
C71   C79   A    
C380  C381  S    
O93   C325  S    
Cu9   O29   S    
C74   C98   S    
O81   C289  S    
C255  H97   S    
Cu9   O45   S    
C260  H110  S    
C100  O24   A    
C199  C215  A    
C291  H182  S    
C317  H242  S    
C357  H332  S    
C281  H159  S    
C13   C35   A    
C296  C297  S    
C279  H155  S    
C348  H310  S    
C333  H280  S    
C358  H344  S    
C56   C88   A    
C194  C210  A    
C306  H216  S    
C123  C139  A    
C245  H75   S    
C4    O4    A    
C271  H135  S    
C292  H185  S    
Cu1   Cu2   S    
C121  C137  A    
C51   C67   A    
C326  H264  S    
C92   C118  A    
C346  H316  S    
C11   C227  A    
C283  C284  S    
C183  O65   S    
Cu1   O4    S    
C168  C184  A    
C248  H81   S    
C125  C141  A    
C259  H107  S    
C381  H388  S    
Cu1   O1    S    
C248  H82   S    
Cu5   O21   S    
C14   C166  A    
C208  H32   S    
C28   C232  A    
C118  C134  A    
C136  C358  S    
C43   C59   A    
C295  C296  S    
C366  H354  S    
C274  C275  S    
C368  H363  S    
C278  H151  S    
C282  H162  S    
C210  C226  A    
C15   C167  A    
C374  C375  S    
C371  H370  S    
C30   C238  A    
C367  H364  S    
C267  H125  S    
C27   C229  A    
C355  C356  S    
C249  H84   S    
C372  H367  S    
C344  H307  S    
C60   H52   S    
C242  C243  S    
C248  C249  S    
C103  O31   A    
C109  O47   A    
C383  H398  S    
C356  H334  S    
C257  C258  S    
C219  C235  A    
C45   C83   A    
C284  C285  S    
C6    O16   A    
C353  C354  S    
C102  O26   A    
C285  H169  S    
Cu6   O18   S    
C304  C305  S    
C47   H7    S    
C8    O12   A    
C98   O20   A    
C263  H116  S    
C331  H275  S    
C345  H305  S    
C311  H229  S    
C360  H340  S    
C288  H175  S    
C354  H324  S    
C216  H40   S    
C51   H11   S    
C188  C204  A    
O70   C256  S    
C352  H329  S    
C256  C257  S    
Cu5   O17   S    
Cu7   O19   S    
C103  O29   A    
C249  H85   S    
C170  O90   S    
C361  H351  S    
C220  H44   S    
C302  H208  S    
O79   C283  S    
C116  C132  A    
C352  C353  S    
Cu10  O32   S    
C101  O27   A    
C93   C121  A    
C11   C163  A    
C266  H123  S    
C147  O51   S    
C117  C151  A    
C97   O17   A    
C118  C152  A    
C369  H360  S    
C19   C39   A    
Cu9   Cu11  S    
C262  H115  S    
C331  C332  S    
C332  H278  S    
C297  H195  S    
C300  H204  S    
C90   C116  A    
C363  H346  S    
C166  O86   S    
O68   C250  S    
Cu12  O44   S    
C149  O53   S    
Cu2   O8    S    
C69   C79   A    
C316  H241  S    
C281  H158  S    
C274  H142  S    
C154  N6    A    
C31   C235  A    
C244  C245  S    
C58   C74   A    
C379  C380  S    
C252  H92   S    
C184  O68   S    
C351  H318  S    
C59   C73   A    
C289  H177  S    
C146  N2    A    
C151  O55   S    
C173  C189  A    
C15   C231  A    
C23   C239  A    
C350  C351  S    
C350  H320  S    
C247  C248  S    
C138  C364  S    
C148  N2    A    
O66   C244  S    
C310  H227  S    
C263  C264  S    
C105  O33   A    
C14   C34   A    
C348  H312  S    
C272  H137  S    
C214  H38   S    
C107  O35   A    
C208  C224  A    
C295  H191  S    
C4    O6    A    
C271  C272  S    
C342  H298  S    
C202  C218  A    
C275  H144  S    
C337  H295  S    
C72   C80   A    
C218  H42   S    
C334  C335  S    
Cu7   O23   S    
C261  H113  S    
O96   C334  S    
Cu10  O42   S    
C63   C75   A    
C374  H376  S    
C206  C222  A    
C259  C260  S    
C43   C81   A    
C200  C216  A    
C349  H323  S    
C270  H134  S    
C91   C119  A    
C246  H77   S    
C55   C87   A    
C265  H121  S    
C56   H16   S    
C286  C287  S    
C353  H328  S    
C162  C178  A    
C277  H149  S    
C258  H104  S    
C42   C58   A    
C131  C343  S    
O71   C259  S    
C364  H358  S    
C279  H154  S    
C288  H174  S    
C278  C279  S    
C339  H289  S    
C31   C111  S    
C9    C225  A    
C258  H105  S    
C305  C306  S    
C157  O61   S    
C1    C36   S    
C289  C290  S    
C341  H300  S    
C302  H207  S    
C109  O41   A    
C382  H400  S    
C78   C102  S    
C114  C148  A    
C199  H23   S    
C340  C341  S    
C245  C246  S    
C363  H345  S    
O82   C292  S    
C26   C106  S    
C134  C137  A    
C303  H210  S    
C253  H93   S    
C66   H58   S    
C345  H303  S    
C322  H255  S    
C362  H349  S    
C360  H338  S    
C26   C226  A    
C354  H326  S    
C180  O72   S    
C370  H372  S    
C178  C194  A    
C173  O93   S    
C30   C110  S    
C247  H79   S    
C319  H247  S    
C192  O76   S    
C135  C355  S    
C47   C63   A    
C377  H383  S    
C12   C228  A    
C23   C175  A    
C251  H88   S    
C273  H140  S    
C351  H317  S    
C187  C203  A    
C266  C267  S    
C5    O13   A    
C269  H130  S    
C204  C220  A    
C340  H301  S    
C97   O19   A    
C185  C201  A    
C328  H269  S    
C201  H25   S    
Cu8   O20   S    
C317  C318  S    
C158  N8    A    
C156  O60   S    
C189  C205  A    
C306  H217  S    
C67   C77   A    
Cu12  O30   S    
Cu1   O2    S    
C318  H245  S    
C194  H18   S    
C132  C346  S    
C20   C236  A    
C380  H390  S    
C164  C180  A    
Cu8   O38   S    
C273  H141  S    
C360  H339  S    
C185  O79   S    
C4    C35   S    
C181  C197  A    
C133  C138  A    
Cu4   O16   S    
C280  H156  S    
C9    C161  A    
C9    C33   A    
C313  C314  S    
C62   C76   A    
C268  C269  S    
C209  C225  A    
C136  C139  A    
C57   H49   S    
C267  H126  S    
C312  H232  S    
C165  O85   S    
O85   C301  S    
C254  H96   S    
C68   C78   A    
C135  C140  A    
C52   H12   S    
C330  H274  S    
C287  H173  S    
C130  C340  S    
C209  H33   S    
C368  C369  S    
C70   C80   A    
O95   C331  S    
C325  C326  S    
C160  O64   S    
C63   H55   S    
C371  C372  S    
C122  C138  A    
C320  H250  S    
C334  H282  S    
C294  H189  S    
C49   H9    S    
C261  H111  S    
C72   H64   S    
C308  C309  S    
Cu10  O48   S    
C203  C219  A    
C344  C345  S    
C252  H90   S    
C126  C142  A    
C119  C135  A    
C291  H181  S    
C120  C136  A    
C257  H103  S    
C286  H170  S    
C255  H99   S    
C250  C251  S    
Cu3   O11   S    
C12   C164  A    
C96   C128  A    
C197  H21   S    
C13   C165  A    
C322  H254  S    
Cu5   O37   S    
C288  H176  S    
C41   C81   A    
C170  C186  A    
C151  N3    A    
C142  C376  S    
C338  H292  S    
C152  N4    A    
C54   H14   S    
C365  H355  S    
C243  H69   S    
C378  H381  S    
C132  C143  A    
C58   H50   S    
C113  C129  A    
C174  C190  A    
C155  N5    A    
C2    C33   S    
Cu8   O22   S    
C309  H224  S    
C297  H196  S    
Cu5   Cu7   S    
Cu6   O24   S    
C341  H299  S    
C215  C231  A    
C264  H119  S    
O80   C286  S    
C187  O77   S    
C373  H378  S    
C214  C230  A    
C320  H249  S    
C314  C315  S    
C197  C213  A    
C139  C367  S    
C272  C273  S    
C359  H342  S    
C25   C231  A    
C153  O57   S    
C121  C155  A    
C122  C156  A    
C124  C140  A    
C319  C320  S    
C315  H238  S    
C19   C235  A    
C373  H379  S    
C189  O75   S    
C276  H148  S    
C182  O66   S    
O87   C307  S    
C125  C159  A    
C81   N4    S    
C45   H5    S    
C241  H65   S    
C17   C233  A    
C82   N3    S    
C297  H197  S    
C3    O7    A    
C215  H39   S    
C191  O73   S    
C83   N2    S    
C120  C150  A    
C3    C34   S    
C269  C270  S    
C323  H256  S    
C178  O70   S    
C113  C147  A    
C317  H243  S    
C41   C57   A    
C224  C240  A    
C2    O2    A    
C327  H265  S    
C285  H168  S    
C358  H343  S    
C299  H200  S    
C285  H167  S    
C44   C60   A    
Cu5   O33   S    
C92   C93   A    
C251  H89   S    
C284  H165  S    
C271  H136  S    
C180  C196  A    
C196  H20   S    
C339  H291  S    
C263  H117  S    
C92   C120  A    
C338  C339  S    
Cu11  O27   S    
C323  C324  S    
C346  H315  S    
C13   C229  A    
C212  C228  A    
C95   C127  A    
C84   N1    S    
C262  C263  S    
C259  H108  S    
C301  H205  S    
C280  C281  S    
O67   C247  S    
Cu9   O25   S    
C313  H233  S    
C68   H60   S    
C172  O92   S    
C49   C85   A    
C325  H261  S    
C163  C179  A    
C5    O9    A    
C366  H352  S    
C16   C36   A    
C131  C144  A    
C172  C188  A    
C87   N6    S    
C283  H164  S    
C383  C384  S    
C22   C238  A    
C345  H304  S    
C124  C154  A    
C62   H54   S    
C116  C146  A    
C330  H272  S    
C286  H171  S    
C104  O30   A    
C373  C374  S    
C352  H330  S    
C41   H1    S    
C274  H143  S    
C282  H161  S    
C50   H10   S    
C367  C368  S    
C247  H80   S    
C42   C82   A    
C243  H71   S    
C175  O95   S    
C343  H309  S    
C369  H359  S    
C157  N7    A    
C241  C242  S    
C305  H215  S    
C212  H36   S    
C375  H375  S    
C128  C158  A    
C308  H221  S    
C268  H129  S    
C115  C131  A    
C372  H366  S    
C61   C75   A    
C126  C160  A    
C73   C97   S    
C242  H68   S    
C221  H45   S    
C343  C344  S    
C337  C338  S    
C49   C65   A    
C291  H183  S    
C356  H335  S    
C134  C352  S    
Cu7   O39   S    
C284  H166  S    
C19   C171  A    
C342  H296  S    
Cu3   O9    S    
C298  H199  S    
C175  C191  A    
C17   C169  A    
C176  C192  A    
C321  H251  S    
C204  H28   S    
C150  N4    A    
O75   C271  S    
C366  H353  S    
C213  H37   S    
C188  O80   S    
C7    O11   A    
C60   C74   A    
C256  H101  S    
O92   C322  S    
C325  H262  S    
C48   C64   A    
C336  H287  S    
C110  O46   A    
C158  O62   S    
C28   C108  S    
C299  H201  S    
C167  C183  A    
C379  H393  S    
C370  C371  S    
C269  H131  S    
C324  H259  S    
C250  H87   S    
C171  O91   S    
C75   C99   S    
C383  H397  S    
C384  H396  S    
C246  H76   S    
C8    C39   S    
C141  C373  S    
C12   C36   A    
O77   C277  S    
C30   C234  A    
C52   C68   A    
C100  O22   A    
C164  O84   S    
C79   C103  S    
C31   C237  A    
C378  H380  S    
C300  H203  S    
C176  O96   S    
C133  C349  S    
C222  H46   S    
Cu4   O14   S    
C192  C208  A    
C335  H284  S    
Cu12  O46   S    
C361  H350  S    
C324  H258  S    
C377  C378  S    
C22   C174  A    
C181  O67   S    
C320  C321  S    
C252  H91   S    
C260  C261  S    
C289  H178  S    
Cu2   O5    S    
C308  H222  S    
C293  H186  S    
C10   C34   A    
C350  H321  S    
C152  O56   S    
C357  H333  S    
C55   H15   S    
C315  H237  S    
C218  C234  A    
O73   C265  S    
C108  O36   A    
C250  H86   S    
C296  H194  S    
C50   C86   A    
C333  H279  S    
C329  H270  S    
C32   C240  A    
C265  C266  S    
C184  C200  A    
C264  H118  S    
C200  H24   S    
C222  C238  A    
C183  C199  A    
C295  H192  S    
C342  H297  S    
C326  C327  S    
C7    O15   A    
C85   N8    S    
C195  C211  A    
O76   C274  S    
C326  H263  S    
C334  H283  S    
O83   C295  S    
C123  C153  A    
C95   C125  A    
C193  C209  A    
C262  H114  S    
C21   C39   A    
C374  H377  S    
C160  N8    A    
C381  H389  S    
Cu8   O36   S    
C336  H286  S    
C64   C76   A    
C6    C37   S    
C349  H322  S    
C270  H133  S    
C149  N3    A    
C17   C37   A    
C335  H285  S    
C105  O39   A    
C217  H41   S    
C277  H150  S    
C8    O14   A    
C66   C78   A    
C331  H276  S    
C364  H357  S    
C91   C117  A    
C104  O32   A    
C368  H362  S    
C278  H152  S    
C376  H386  S    
C167  O87   S    
C6    O10   A    
C275  C276  S    
Cu11  O31   S    
C371  H369  S    
C277  C278  S    
C346  C347  S    
C367  H365  S    
C282  H160  S    
C153  N5    A    
C307  H219  S    
C249  H83   S    
C268  H128  S    
C372  H368  S    
C43   H3    S    
C344  H306  S    
C332  H277  S    
C375  H374  S    
C168  O88   S    
C361  C362  S    
C382  H399  S    
C179  O69   S    
C57   C73   A    
C220  C236  A    
C156  N6    A    
C106  O34   A    
C347  C348  S    
C333  H281  S    
Cu2   O6    S    
C253  H94   S    
C108  O40   A    
C311  H228  S    
C198  H22   S    
C302  C303  S    
C370  H371  S    
C312  H230  S    
C301  H206  S    
C365  H356  S    
C171  C187  A    
C292  C293  S    
C165  C181  A    
C365  C366  S    
C258  H106  S    
C201  C217  A    
C319  H248  S    
C145  O49   S    
C272  H138  S    
C169  C185  A    
C294  H188  S    
O89   C313  S    
C347  H314  S    
C377  H384  S    
C354  H325  S    
C163  O83   S    
C290  H179  S    
C384  H394  S    
C67   H59   S    
C16   C168  A    
C329  C330  S    
Cu9   O41   S    
C205  C221  A    
C341  C342  S    
C266  H124  S    
C7    C38   S    
C255  H98   S    
C186  O78   S    
C267  H127  S    
C355  H337  S    
C328  H268  S    
C369  H361  S    
C1    O1    A    
C24   C40   A    
C253  C254  S    
C137  C361  S    
C107  O37   A    
C203  H27   S    
C296  H193  S    
Cu6   O40   S    
C148  O52   S    
C332  C333  S    
O90   C316  S    
O69   C253  S    
C224  H48   S    
C363  H347  S    
C10   C226  A    
C70   H62   S    
Cu2   O7    S    
C216  C232  A    
C211  C227  A    
C182  C198  A    
C316  H240  S    
C5    C40   S    
C337  H294  S    
C29   C239  A    
C190  O74   S    
C380  H391  S    
C96   C126  A    
C71   H63   S    
C251  C252  S    
C24   C176  A    
