data_mof_unit_55146.cif
_audit_creation_date              2012-12-10T21:26:01-0500
_audit_creation_method            fapswitch 2.2
_symmetry_space_group_name_H-M    P1
_symmetry_Int_Tables_number       1
_space_group_crystal_system       triclinic
_cell_length_a                    8.580178
_cell_length_b                    16.303043
_cell_length_c                    16.65253
_cell_angle_alpha                 87.769011
_cell_angle_beta                  93.599054
_cell_angle_gamma                 99.568032
_cell_volume                      2291.51020988

loop_
_atom_site_label
_atom_site_type_symbol
_atom_type_description
_atom_site_fract_x
_atom_site_fract_y
_atom_site_fract_z
_atom_type_partial_charge
C1    C     C_R   0.503768 0.489457 0.653397 0.876363
C2    C     C_R   0.496223 0.510543 0.346603 0.876363
C3    C     C_R   0.424644 0.758019 0.455533 0.245749
C4    C     C_R   0.575373 0.241984 0.544462 0.245750
C5    C     C_R   0.434938 0.846096 0.453747 -0.089157
C6    C     C_R   0.565092 0.153908 0.546249 -0.089157
C7    C     C_R   0.537473 0.894106 0.510070 0.229846
C8    C     C_R   0.462548 0.105894 0.489932 0.229840
C9    C     C_R   0.632010 0.852279 0.563516 -0.337198
C10   C     C_R   0.367992 0.147716 0.436492 -0.337183
C11   C     C_R   0.622426 0.765187 0.562603 0.079342
C12   C     C_R   0.377564 0.234807 0.437405 0.079349
C13   C     C_R   0.799493 0.520265 0.504533 0.952112
C14   C     C_R   0.200507 0.479735 0.495474 0.952099
C15   C     C_2   0.963209 0.525089 0.520783 -0.027384
C16   C     C_2   0.036790 0.474912 0.479228 -0.027369
C17   C     C_R   0.526659 0.485402 0.740865 -0.127125
C18   C     C_R   0.473235 0.514597 0.259139 -0.127150
C19   C     C_R   0.571396 0.559558 0.782197 -0.218951
C20   C     C_R   0.428322 0.440446 0.217816 -0.218943
C21   C     C_R   0.599066 0.558378 0.865066 0.167270
C22   C     C_R   0.400524 0.441629 0.134954 0.167298
C23   C     C_R   0.569973 0.481649 0.908133 0.298855
C24   C     C_R   0.429636 0.518352 0.091883 0.298862
C25   C     C_R   0.537886 0.406311 0.866701 0.159346
C26   C     C_R   0.461884 0.593687 0.133314 0.159364
C27   C     C_R   0.515081 0.408862 0.782945 -0.233799
C28   C     C_R   0.484846 0.591136 0.217063 -0.233774
H1    H     H_    0.413897 0.380900 0.249802 0.191943
H2    H     H_    0.585804 0.619108 0.750212 0.191930
H3    H     H_    0.486050 0.351152 0.750985 0.180500
H4    H     H_    0.514020 0.648844 0.249018 0.180491
H5    H     H_    0.714976 0.888086 0.605879 0.177958
H6    H     H_    0.285013 0.111905 0.394137 0.177961
N1    N     N_2   0.552630 0.480210 0.991580 -0.182242
N2    N     N_2   0.446946 0.519781 0.008435 -0.182236
N3    N     N_R   0.519180 0.718290 0.509780 -0.112928
N4    N     N_R   0.480820 0.281710 0.490220 -0.112932
N5    N     N_2   0.558637 0.983594 0.512162 -0.153597
N6    N     N_2   0.441388 0.016405 0.487842 -0.153600
O1    O     O_R   0.493140 0.422050 0.612640 -0.630258
O2    O     O_R   0.506860 0.577950 0.387360 -0.630255
O3    O     O_R   0.505450 0.562230 0.618920 -0.617435
O4    O     O_R   0.494550 0.437770 0.381080 -0.617425
O5    O     O_R   0.723530 0.446300 0.497600 -0.629969
O6    O     O_R   0.276470 0.553700 0.502400 -0.629951
O7    O     O_R   0.735850 0.586490 0.503880 -0.607142
O8    O     O_R   0.264150 0.413510 0.496120 -0.607147
Zn1   Zn    Zn3+2 0.491780 0.406400 0.495810 0.942873
Zn2   Zn    Zn3+2 0.508220 0.593600 0.504190 0.942878
C29   C     C_3   0.032738 0.568738 0.597161 -0.858008
H7    H     H_    0.939219 0.569393 0.640084 0.236581
H8    H     H_    0.121961 0.535671 0.629744 0.233402
H9    H     H_    0.087054 0.633758 0.582215 0.270247
C30   C     C_3   0.967258 0.431289 0.402834 -0.857784
H10   H     H_    0.060813 0.430593 0.359918 0.236577
H11   H     H_    0.912806 0.366273 0.417773 0.270247
H12   H     H_    0.878112 0.464422 0.370237 0.233318
C31   C     C_3   0.340281 0.360369 0.094711 -0.892171
H13   H     H_    0.306410 0.369183 0.029992 0.261614
H14   H     H_    0.432095 0.319624 0.101348 0.243373
H15   H     H_    0.232791 0.328515 0.123852 0.245670
C32   C     C_3   0.659184 0.639652 0.905317 -0.891866
H16   H     H_    0.693011 0.630837 0.970057 0.261591
H17   H     H_    0.766711 0.671546 0.876188 0.245605
H18   H     H_    0.567285 0.680372 0.898652 0.243348
C33   C     C_3   0.522025 0.322795 0.909834 -0.911059
H19   H     H_    0.597428 0.283556 0.882414 0.245174
H20   H     H_    0.561085 0.328038 0.974390 0.256713
H21   H     H_    0.396860 0.291364 0.904399 0.247895
C34   C     C_3   0.477781 0.677204 0.090175 -0.911138
H22   H     H_    0.402764 0.716543 0.117740 0.245175
H23   H     H_    0.603032 0.708521 0.095406 0.247895
H24   H     H_    0.438282 0.671975 0.025672 0.256691
C35   C     C_3   0.692103 0.288759 0.605330 -0.815266
H25   H     H_    0.702910 0.355870 0.602261 0.285525
H26   H     H_    0.658041 0.268653 0.667184 0.209692
H27   H     H_    0.812438 0.274862 0.597108 0.216522
C36   C     C_3   0.307913 0.711246 0.394665 -0.815258
H28   H     H_    0.297094 0.644135 0.397739 0.285531
H29   H     H_    0.187583 0.725148 0.402883 0.216518
H30   H     H_    0.341980 0.731347 0.332812 0.209696
C37   C     C_1   0.653839 0.113894 0.609046 0.206630
N7    N     N_1   0.724646 0.082252 0.659213 -0.204597
C38   C     C_1   0.346207 0.886113 0.390946 0.206626
N8    N     N_1   0.275412 0.917758 0.340777 -0.204595
C39   C     C_1   0.726536 0.727050 0.617522 0.230137
N9    N     N_1   0.811837 0.697907 0.662293 -0.243194
C40   C     C_1   0.273406 0.272933 0.382504 0.230132
N10   N     N_1   0.188056 0.302061 0.337750 -0.243220

loop_
_geom_bond_atom_site_label_1
_geom_bond_atom_site_label_2
_ccdc_geom_bond_type
O4    Zn1   S    
C39   N9    T    
C32   H17   S    
C2    C18   S    
N1    N2    D    
C25   C33   S    
C30   H10   S    
C3    C36   S    
C14   O6    A    
N4    Zn1   S    
C38   N8    T    
C24   N2    S    
C19   C21   A    
C24   C26   A    
C15   C16   D    
C11   N3    A    
C4    C35   S    
C13   O7    A    
C1    O3    A    
C2    O4    A    
C14   C16   S    
C15   C29   S    
C5    C38   S    
C32   H18   S    
C31   H13   S    
C9    H5    S    
C26   C34   S    
O1    Zn1   S    
O7    Zn2   S    
C20   H1    S    
C21   C23   A    
C31   H14   S    
C27   H3    S    
C29   H7    S    
C17   C27   A    
C12   C40   S    
C28   H4    S    
C18   C28   A    
C4    C6    A    
C11   C39   S    
C22   C31   S    
C5    C7    A    
C6    C8    A    
C33   H19   S    
C33   H20   S    
C35   H25   S    
C36   H30   S    
C35   H26   S    
C37   N7    T    
O5    Zn1   S    
C10   H6    S    
C9    C11   A    
C10   C12   A    
O2    Zn2   S    
C1    O1    A    
O8    Zn1   S    
C20   C22   A    
C23   N1    S    
C30   H11   S    
C22   C24   A    
N5    N6    D    
C36   H29   S    
C7    C9    A    
C31   H15   S    
C6    C37   S    
C1    C17   S    
C4    N4    A    
C32   H16   S    
C3    C5    A    
C34   H24   S    
C14   O8    A    
O3    Zn2   S    
C25   C27   A    
O6    Zn2   S    
C26   C28   A    
C29   H9    S    
C33   H21   S    
C13   C15   S    
C16   C30   S    
C34   H22   S    
C13   O5    A    
N3    Zn2   S    
C2    O2    A    
C17   C19   A    
C18   C20   A    
C23   C25   A    
C12   N4    A    
C35   H27   S    
C21   C32   S    
C36   H28   S    
C3    N3    A    
C8    C10   A    
C30   H12   S    
C34   H23   S    
C7    N5    S    
C8    N6    S    
C29   H8    S    
C40   N10   T    
C19   H2    S    
