data_mof_unit_12571.cif
_audit_creation_date              2012-12-11T15:42:38-0500
_audit_creation_method            fapswitch 2.2
_symmetry_space_group_name_H-M    P1
_symmetry_Int_Tables_number       1
_space_group_crystal_system       triclinic
_cell_length_a                    6.93119
_cell_length_b                    14.558862
_cell_length_c                    16.192894
_cell_angle_alpha                 90.428669
_cell_angle_beta                  89.902794
_cell_angle_gamma                 90.090414
_cell_volume                      1633.97871268

loop_
_atom_site_label
_atom_site_type_symbol
_atom_type_description
_atom_site_fract_x
_atom_site_fract_y
_atom_site_fract_z
_atom_type_partial_charge
O1    O     O_R   0.505810 0.583360 0.413880 -0.508670
O2    O     O_R   0.175870 0.595480 0.585520 -0.543773
O3    O     O_R   0.005540 0.416640 0.586120 -0.547739
C1    C     C_R   0.344927 0.617685 0.614629 0.690748
O4    O     O_R   0.176100 0.594390 0.414490 -0.528572
O5    O     O_R   0.005770 0.415540 0.413870 -0.546379
C2    C     C_R   0.346074 0.618149 0.387027 0.749577
O6    O     O_R   0.505580 0.584460 0.586130 -0.538519
O7    O     O_3   0.339190 0.441320 0.500000 -0.384177
V1    V     V_3+5 0.064350 0.510890 0.500000 1.476454
O8    O     O_R   0.676050 0.404520 0.414480 -0.547517
C3    C     C_R   0.845138 0.382088 0.385716 0.682685
O9    O     O_R   0.675830 0.405610 0.585510 -0.545290
C4    C     C_R   0.844945 0.383660 0.613723 0.727653
V2    V     V_3+5 0.564340 0.489110 0.500000 1.462173
O10   O     O_3   0.839370 0.558680 0.500000 -0.336246
C5    C     C_2   0.720591 0.208832 0.786149 -0.126347
C6    C     C_2   0.885956 0.181804 0.822538 -0.309708
H1    H     H_    0.584577 0.180066 0.807159 0.137398
H2    H     H_    0.023690 0.209863 0.803658 0.127207
C7    C     C_2   0.707973 0.277281 0.718222 -0.132734
C8    C     C_2   0.861430 0.315440 0.680495 -0.302689
H3    H     H_    0.563820 0.296207 0.698478 0.133468
H4    H     H_    0.006708 0.297176 0.698386 0.128940
C9    C     C_R   0.047418 0.223049 0.219307 -0.151147
H5    H     H_    0.188256 0.204536 0.195489 0.116583
C10   C     C_R   0.036162 0.287052 0.284100 -0.149606
H6    H     H_    0.168900 0.316040 0.308037 0.115867
C11   C     C_R   0.856426 0.313314 0.317342 -0.045712
C12   C     C_R   0.688258 0.273817 0.283930 -0.152373
H7    H     H_    0.547422 0.292330 0.307750 0.115205
C13   C     C_R   0.699514 0.209813 0.219138 -0.145793
H8    H     H_    0.566778 0.180821 0.195201 0.119281
C14   C     C_R   0.879251 0.183558 0.185890 -0.045341
C15   C     C_R   0.188301 0.723593 0.719009 -0.147974
H9    H     H_    0.047419 0.705416 0.695108 0.120320
C16   C     C_R   0.199682 0.785778 0.785363 -0.148781
H10   H     H_    0.066952 0.813828 0.810194 0.119305
C17   C     C_R   0.379413 0.811530 0.818985 -0.048619
C18   C     C_R   0.547429 0.773293 0.784189 -0.154471
H11   H     H_    0.688312 0.791481 0.808080 0.116199
C19   C     C_R   0.536048 0.711108 0.717834 -0.136462
H12   H     H_    0.668778 0.683070 0.692991 0.120773
C20   C     C_R   0.356312 0.685327 0.684237 -0.044332
C21   C     C_R   0.200495 0.701021 0.267015 -0.163882
H13   H     H_    0.068976 0.661980 0.275521 0.172636
C22   C     C_R   0.209900 0.763602 0.201775 -0.140980
H14   H     H_    0.084716 0.771875 0.162595 0.134703
C23   C     C_R   0.379762 0.813513 0.186317 -0.114049
C24   C     C_R   0.538291 0.800945 0.238755 -0.188548
H15   H     H_    0.669121 0.840354 0.229249 0.153922
C25   C     C_R   0.528806 0.740197 0.305449 0.380322
C26   C     C_R   0.359209 0.687658 0.319694 -0.128328
O11   O     O_R   0.230120 0.912300 0.917180 -0.541778
O12   O     O_R   0.559740 0.902430 0.088770 -0.543567
O13   O     O_R   0.729930 0.081310 0.089370 -0.541617
C27   C     C_R   0.390509 0.880420 0.117456 0.711833
O14   O     O_R   0.559840 0.901330 0.917750 -0.543958
O15   O     O_R   0.730030 0.080210 0.917120 -0.537325
C28   C     C_R   0.390786 0.879135 0.888630 0.685384
O16   O     O_R   0.230020 0.913400 0.089430 -0.538255
O17   O     O_3   0.396460 0.055470 0.003290 -0.371053
V3    V     V_3+5 0.671360 0.985960 0.003250 1.407294
O18   O     O_R   0.059740 0.091300 0.917690 -0.544805
C29   C     C_R   0.891136 0.113241 0.889456 0.746309
O19   O     O_R   0.059640 0.092400 0.088720 -0.543944
C30   C     C_R   0.890550 0.114794 0.117508 0.689985
V4    V     V_3+5 0.171350 0.007820 0.003190 1.406602
O20   O     O_3   0.896380 0.938200 0.003220 -0.371918
Cl1   Cl    Cl    0.730579 0.737634 0.371549 -0.665844

loop_
_geom_bond_atom_site_label_1
_geom_bond_atom_site_label_2
_ccdc_geom_bond_type
C14   C30   S    
O5    V1    S    
C23   C27   S    
C24   C25   A    
O8    C3    A    
C27   O16   A    
C11   C12   A    
O1    V2    S    
C3    C11   S    
C10   C11   A    
O13   C30   A    
O7    V1    S    
O19   V4    S    
C22   H14   S    
O9    V2    S    
O17   V4    S    
C9    C14   A    
C1    O6    A    
O18   C29   A    
C4    C8    S    
O8    V2    S    
C18   C19   A    
C5    C6    D    
O7    V2    S    
O13   V3    S    
C21   C26   A    
O4    V1    S    
C16   C17   A    
O3    V1    S    
O11   C28   A    
O9    C4    A    
O15   C29   A    
C6    C29   S    
C12   C13   A    
C15   C20   A    
O16   V4    S    
O17   V3    S    
O3    C4    A    
C19   C20   A    
C17   C28   S    
O18   V4    S    
C7    C8    D    
C18   H11   S    
C5    H1    S    
C16   H10   S    
O19   C30   A    
O6    V2    S    
C6    H2    S    
O12   C27   A    
C7    H3    S    
O5    C3    A    
C12   H7    S    
C8    H4    S    
O11   V4    S    
C19   H12   S    
C2    C26   S    
O14   C28   A    
V2    O10   S    
O2    V1    S    
O2    C1    A    
V3    O20   S    
C17   C18   A    
C25   Cl1   S    
C25   C26   A    
C15   C16   A    
C22   C23   A    
C23   C24   A    
C21   C22   A    
O14   V3    S    
O4    C2    A    
O1    C2    A    
V1    O10   S    
C1    C20   S    
C24   H15   S    
C9    H5    S    
C21   H13   S    
O15   V3    S    
C5    C7    S    
C15   H9    S    
C13   H8    S    
O12   V3    S    
V4    O20   S    
C10   H6    S    
C9    C10   A    
C13   C14   A    
