data_mof_unit_27265.cif
_audit_creation_date              2013-03-05T16:18:24-0500
_audit_creation_method            fapswitch 2.2
_symmetry_space_group_name_H-M    P1
_symmetry_Int_Tables_number       1
_space_group_crystal_system       triclinic
_cell_length_a                    11.525478
_cell_length_b                    10.001442
_cell_length_c                    10.811075
_cell_angle_alpha                 89.749266
_cell_angle_beta                  88.52793
_cell_angle_gamma                 88.279617
_cell_volume                      1245.22680287

loop_
_atom_site_label
_atom_site_type_symbol
_atom_site_description
_atom_site_fract_x
_atom_site_fract_y
_atom_site_fract_z
_atom_type_partial_charge
O1    O     O_R   0.314910 0.616040 0.499970 -0.512761
O2    O     O_R   0.314910 0.383960 0.499970 -0.503176
C1    C     C_R   0.257442 0.501360 0.498979 1.053911
O3    O     O_R   0.500080 0.616020 0.313900 -0.509675
O4    O     O_R   0.500080 0.383980 0.313900 -0.516748
C2    C     C_R   0.495582 0.500228 0.259509 1.056915
Zn1   Zn    Zn3+2 0.500150 0.654960 0.499940 1.247684
Zn2   Zn    Zn3+2 0.500150 0.345040 0.499940 1.247963
O5    O     O_R   0.685320 0.616040 0.499930 -0.507304
O6    O     O_R   0.685320 0.383960 0.499930 -0.514362
O7    O     O_R   0.500150 0.616060 0.686000 -0.545141
O8    O     O_R   0.500150 0.383940 0.686000 -0.528697
C3    C     C_R   0.742141 0.498297 0.499022 1.072566
C4    C     C_R   0.503344 0.499469 0.742437 1.071752
C5    C     C_3   0.456280 0.616936 0.043583 0.269435
C6    C     C_3   0.430536 0.402830 0.044310 0.342338
C7    C     C_3   0.394046 0.519401 0.960224 0.244770
C8    C     C_3   0.506480 0.497999 0.878655 -0.396973
C9    C     C_3   0.568382 0.596828 0.965154 0.141232
C10   C     C_3   0.541788 0.379885 0.966171 0.137939
C11   C     C_3   0.603324 0.478117 0.048358 0.270474
C12   C     C_3   0.492712 0.499904 0.127048 -0.233228
C13   C     C_3   0.062733 0.625070 0.582669 0.227140
C14   C     C_3   0.071271 0.360166 0.567005 0.252245
C15   C     C_3   0.921698 0.631151 0.572870 0.239298
C16   C     C_3   0.928821 0.369273 0.584568 0.226882
C17   C     C_3   0.075499 0.513399 0.350956 0.260747
C18   C     C_3   0.119450 0.500661 0.496925 -0.517176
C19   C     C_3   0.878822 0.496268 0.498995 -0.530071
C20   C     C_3   0.931740 0.490588 0.351506 0.260261
C21   C     C_3   0.380007 0.087755 0.491977 0.519916
C22   C     C_3   0.381793 0.923377 0.476320 0.500923
C23   C     C_3   0.563961 0.079961 0.384350 0.515405
C24   C     C_3   0.577035 0.917067 0.394085 0.519836
C25   C     C_3   0.553782 0.077059 0.611420 0.526187
C26   C     C_3   0.538869 0.915397 0.618507 0.527225
N1    N     N_3   0.499750 0.138610 0.497240 -0.143357
N2    N     N_3   0.499750 0.861390 0.497240 -0.104290
O9    O     O_3   0.280349 0.536084 0.921893 -0.573997
H1    H     H_    0.237776 0.584468 0.989611 0.417838
N3    N     N_R   0.875319 0.585985 0.263986 0.284209
O10   O     O_R   0.770394 0.633297 0.284154 -0.304391
O11   O     O_R   0.908260 0.578664 0.147854 -0.181062
N4    N     N_R   0.896530 0.362384 0.295935 0.269417
O12   O     O_R   0.785874 0.342570 0.294536 -0.278939
O13   O     O_R   0.953687 0.305010 0.204590 -0.175221
O14   O     O_3   0.326276 0.148959 0.390888 -0.602010
H2    H     H_    0.251952 0.106493 0.378482 0.393765
O15   O     O_3   0.348403 0.886034 0.356683 -0.637068
H3    H     H_    0.265044 0.904570 0.345802 0.407782
O16   O     O_3   0.316940 0.135602 0.597546 -0.621138
H4    H     H_    0.321005 0.072314 0.667762 0.396207
O17   O     O_3   0.305134 0.866260 0.560589 -0.609446
H5    H     H_    0.239168 0.929539 0.566106 0.395510
O18   O     O_3   0.509734 0.123231 0.273931 -0.615352
H6    H     H_    0.456321 0.056487 0.242869 0.409009
O19   O     O_3   0.550630 0.856956 0.280637 -0.609958
H7    H     H_    0.601334 0.893883 0.213964 0.377681
O20   O     O_3   0.670093 0.113445 0.615739 -0.607705
H8    H     H_    0.718723 0.046839 0.570630 0.419260
O21   O     O_3   0.643132 0.848993 0.649396 -0.619395
H9    H     H_    0.670937 0.888902 0.726727 0.389608
O22   O     O_3   0.501322 0.134451 0.717159 -0.658035
H10   H     H_    0.541142 0.093420 0.788052 0.386033
O23   O     O_3   0.455289 0.883037 0.711367 -0.691181
H11   H     H_    0.489018 0.887517 0.793995 0.374502
O24   O     O_3   0.673751 0.134277 0.376394 -0.618058
H12   H     H_    0.707860 0.112588 0.293202 0.401590
O25   O     O_3   0.691930 0.879621 0.417362 -0.644491
H13   H     H_    0.740065 0.901235 0.343128 0.394183
O26   O     O_3   0.408249 0.739060 0.085687 -0.584136
H14   H     H_    0.381701 0.787046 0.010661 0.383140
O27   O     O_3   0.357211 0.301795 0.084344 -0.561859
H15   H     H_    0.323584 0.265858 0.008284 0.403318
N5    N     N_R   0.648329 0.705358 0.942513 0.283809
O28   O     O_R   0.610245 0.827832 0.957964 -0.363963
O29   O     O_R   0.758335 0.681243 0.958033 -0.185908
N6    N     N_R   0.591946 0.245717 0.947130 0.257618
O30   O     O_R   0.546075 0.145405 0.005526 -0.310980
O31   O     O_R   0.696173 0.229607 0.900181 -0.228705
O32   O     O_3   0.713466 0.452502 0.093795 -0.582732
H16   H     H_    0.764227 0.431769 0.020619 0.429252
N7    N     N_R   0.096834 0.764398 0.558006 0.262623
O33   O     O_R   0.075593 0.849994 0.647388 -0.209940
O34   O     O_R   0.111183 0.815754 0.449473 -0.306235
N8    N     N_R   0.100426 0.236639 0.493600 0.250439
O35   O     O_R   0.075530 0.226268 0.378900 -0.300942
O36   O     O_R   0.106082 0.121784 0.550283 -0.253671
N9    N     N_R   0.111093 0.604410 0.708190 0.240494
O37   O     O_R   0.054018 0.562928 0.804931 -0.216729
O38   O     O_R   0.214429 0.648662 0.726762 -0.246559
N10   N     N_R   0.128060 0.332461 0.689211 0.276172
O39   O     O_R   0.227479 0.380998 0.716246 -0.299589
O40   O     O_R   0.100497 0.226934 0.753611 -0.174257
N11   N     N_R   0.867096 0.648836 0.699165 0.257468
O41   O     O_R   0.907405 0.738884 0.772199 -0.165164
O42   O     O_R   0.757385 0.628196 0.716156 -0.334757
N12   N     N_R   0.879958 0.391415 0.713037 0.229489
O43   O     O_R   0.768000 0.382839 0.726694 -0.317347
O44   O     O_R   0.936187 0.367382 0.813346 -0.189921
N13   N     N_R   0.884439 0.756835 0.508216 0.294570
O45   O     O_R   0.910560 0.779790 0.393848 -0.278089
O46   O     O_R   0.859147 0.863277 0.573406 -0.200130
N14   N     N_R   0.885368 0.233178 0.560113 0.293641
O47   O     O_R   0.872570 0.183940 0.451432 -0.233734
O48   O     O_R   0.892406 0.146057 0.650061 -0.169626
N15   N     N_R   0.115910 0.642825 0.298564 0.251859
O49   O     O_R   0.054670 0.721792 0.228479 -0.188943
O50   O     O_R   0.227548 0.657016 0.286305 -0.313792
N16   N     N_R   0.136842 0.421163 0.261912 0.272018
O51   O     O_R   0.235802 0.364702 0.287858 -0.280763
O52   O     O_R   0.119461 0.439916 0.144270 -0.226668

loop_
_geom_bond_atom_site_label_1
_geom_bond_atom_site_label_2
_geom_bond_distance
_ccdc_geom_bond_type
C23   O18   1.421446 S    
O18   H6    0.987226 S    
N3    O10   1.298799 A    
N13   O45   1.286333 A    
N3    O11   1.304021 A    
O27   H15   0.991397 S    
C4    C8    1.474027 S    
N11   O41   1.304046 A    
N14   O48   1.305304 A    
O32   H16   0.990714 S    
O17   H5    0.975313 S    
C5    C9    1.535680 S    
C13   N7    1.480406 S    
N7    O33   1.307322 A    
C3    C19   1.574838 S    
C1    C18   1.591372 S    
C25   N1    1.516696 S    
C14   C16   1.647739 S    
O1    Zn1   2.181632 S    
O4    C2    1.300833 A    
O7    C4    1.313672 A    
N6    O31   1.297843 A    
C2    C12   1.433298 S    
C25   O20   1.401537 S    
C8    C9    1.563724 S    
C7    O9    1.389577 S    
O5    C3    1.330104 A    
N16   O51   1.294149 A    
C16   N14   1.491417 S    
C5    C12   1.530136 S    
O14   H2    0.980012 S    
C17   N16   1.487021 S    
C6    C7    1.530837 S    
C24   O19   1.412436 S    
N15   O49   1.298001 A    
C13   N9    1.491423 S    
C20   N3    1.488256 S    
C22   N2    1.499243 S    
N9    O38   1.303604 A    
C8    C10   1.561216 S    
C6    C10   1.529311 S    
O20   H8    0.980879 S    
N13   O46   1.300920 A    
C21   O14   1.399545 S    
C11   C12   1.525016 S    
C17   C20   1.679143 S    
N15   O50   1.302035 A    
C20   N4    1.490047 S    
O21   H9    0.992640 S    
O3    Zn1   2.050349 S    
C14   N10   1.510305 S    
N14   O47   1.289616 A    
N4    O13   1.298958 A    
C23   C24   1.634801 S    
Zn1   O5    2.157850 S    
C15   C19   1.664843 S    
O16   H4    0.987393 S    
O3    C2    1.304129 A    
O9    H1    0.990606 S    
N8    O35   1.285289 A    
O6    C3    1.334611 A    
C23   N1    1.521538 S    
O24   H12   0.994457 S    
O1    C1    1.341799 A    
C25   C26   1.632350 S    
C24   N2    1.523326 S    
Zn1   O7    2.047116 S    
N5    O28   1.298742 A    
C19   C20   1.693054 S    
C21   C22   1.652913 S    
C17   N15   1.493183 S    
Zn2   O8    2.050460 S    
N10   O40   1.304574 A    
C7    C8    1.558528 S    
C13   C18   1.662813 S    
N5    O29   1.298473 A    
C24   O25   1.394153 S    
C16   N12   1.500069 S    
N7    O34   1.287547 A    
C11   O32   1.389176 S    
C15   N11   1.497626 S    
N12   O44   1.295478 A    
Zn2   N1    2.065078 S    
C26   O21   1.402634 S    
C22   O17   1.386118 S    
N4    O12   1.297009 A    
C23   O24   1.392467 S    
C5    C7    1.536603 S    
C6    C12   1.529235 S    
C9    C11   1.536730 S    
N6    O30   1.301447 A    
O2    Zn2   2.158639 S    
C14   C18   1.694916 S    
C21   O16   1.414643 S    
C6    O27   1.396886 S    
O4    Zn2   2.046994 S    
N11   O42   1.295622 A    
C5    O26   1.398858 S    
C10   N6    1.458395 S    
C26   O23   1.416597 S    
C26   N2    1.504995 S    
O2    C1    1.330814 A    
O8    C4    1.310949 A    
O26   H14   0.991151 S    
O23   H11   0.985061 S    
N12   O43   1.300366 A    
C15   N13   1.492779 S    
O19   H7    0.993196 S    
C9    N5    1.460577 S    
N10   O39   1.298418 A    
Zn1   N2    2.064546 S    
N8    O36   1.300276 A    
C13   C15   1.630953 S    
O25   H13   0.990654 S    
N16   O52   1.304460 A    
C22   O15   1.413831 S    
O22   H10   0.985113 S    
C21   N1    1.487625 S    
C10   C11   1.529566 S    
C16   C19   1.665635 S    
Zn2   O6    2.180843 S    
O15   H3    0.982946 S    
C17   C18   1.672899 S    
C25   O22   1.396877 S    
N9    O37   1.294579 A    
C14   N8    1.496319 S    
