data_mof_unit_16555.cif
_audit_creation_date              2012-12-11T15:32:32-0500
_audit_creation_method            fapswitch 2.2
_symmetry_space_group_name_H-M    P1
_symmetry_Int_Tables_number       1
_space_group_crystal_system       triclinic
_cell_length_a                    6.953084
_cell_length_b                    20.449238
_cell_length_c                    24.402812
_cell_angle_alpha                 89.563847
_cell_angle_beta                  90.458218
_cell_angle_gamma                 89.4235
_cell_volume                      3469.33113781

loop_
_atom_site_label
_atom_site_type_symbol
_atom_type_description
_atom_site_fract_x
_atom_site_fract_y
_atom_site_fract_z
_atom_type_partial_charge
O1    O     O_R   0.507320 0.423560 0.460500 -0.536123
O2    O     O_R   0.170760 0.556250 0.437010 -0.537173
O3    O     O_R   0.004030 0.576440 0.539500 -0.536399
C1    C     C_R   0.338778 0.576415 0.421038 0.724494
O4    O     O_R   0.177370 0.422820 0.454110 -0.538075
O5    O     O_R   0.010680 0.442050 0.556720 -0.535076
C2    C     C_R   0.346426 0.398944 0.443424 0.693998
O6    O     O_R   0.500680 0.557950 0.443280 -0.535032
O7    O     O_3   0.340380 0.506470 0.533650 -0.366837
V1    V     V_3+5 0.064130 0.498800 0.493760 1.423815
O8    O     O_R   0.681160 0.443750 0.562990 -0.537970
C3    C     C_R   0.850926 0.423671 0.578882 0.726150
O9    O     O_R   0.674560 0.577180 0.545890 -0.537920
C4    C     C_R   0.842687 0.601061 0.556592 0.693785
V2    V     V_3+5 0.564560 0.501200 0.506240 1.424160
O10   O     O_3   0.838180 0.493530 0.466350 -0.366826
C5    C     C_R   0.975961 0.838214 0.911187 -0.041089
C6    C     C_R   0.847902 0.661739 0.588790 -0.041178
C7    C     C_R   0.032046 0.721587 0.906602 -0.163689
C8    C     C_R   0.025555 0.779071 0.936693 -0.169234
C9    C     C_R   0.933474 0.839633 0.854716 -0.215398
C10   C     C_R   0.942026 0.781618 0.822684 0.086667
C11   C     C_R   0.991981 0.722315 0.850124 0.141227
C12   C     C_R   0.905050 0.780286 0.764626 0.058371
C13   C     C_R   0.918710 0.719666 0.735355 0.058369
C14   C     C_R   0.968192 0.662438 0.765150 -0.188232
C15   C     C_R   0.003618 0.663935 0.821174 -0.203837
C16   C     C_R   0.855379 0.837503 0.734843 -0.188259
C17   C     C_R   0.819777 0.835996 0.678829 -0.203828
C18   C     C_R   0.831520 0.777622 0.649871 0.141224
C19   C     C_R   0.881773 0.718334 0.677296 0.086658
C20   C     C_R   0.791250 0.778339 0.593408 -0.163684
C21   C     C_R   0.797874 0.720862 0.563310 -0.169191
C22   C     C_R   0.890601 0.660334 0.645247 -0.215358
H1    H     H_    0.041632 0.618609 0.842126 0.120282
H2    H     H_    0.926145 0.613197 0.662763 0.092836
H3    H     H_    0.762976 0.722427 0.519961 0.105175
H4    H     H_    0.781543 0.881311 0.657891 0.120282
H5    H     H_    0.070827 0.676338 0.927517 0.110674
H6    H     H_    0.060268 0.777494 0.980057 0.105109
H7    H     H_    0.898325 0.886788 0.837179 0.092800
H8    H     H_    0.981301 0.615173 0.746368 0.122094
H9    H     H_    0.842115 0.884757 0.753635 0.122103
H10   H     H_    0.752195 0.823575 0.572508 0.110672
C23   C     C_3   0.823498 0.304514 0.767463 -0.139483
C24   C     C_3   0.016027 0.276530 0.790587 -0.139631
H11   H     H_    0.101975 0.298184 0.824283 0.107062
H12   H     H_    0.750172 0.349708 0.781658 0.107458
H13   H     H_    0.232451 0.277564 0.715900 0.110624
C25   C     C_1   0.960620 0.121791 0.875257 -0.195021
C26   C     C_1   0.863697 0.378158 0.624714 -0.195027
C27   C     C_3   0.736706 0.234964 0.768576 -0.140278
C28   C     C_3   0.929021 0.207608 0.791083 0.171318
C29   C     C_3   0.808307 0.223417 0.709384 -0.139635
C30   C     C_3   0.895312 0.292340 0.708888 0.171319
C31   C     C_3   0.000835 0.195434 0.732507 -0.139488
C32   C     C_3   0.087627 0.264983 0.731394 -0.140278
C33   C     C_1   0.947290 0.160302 0.837220 -0.067459
C34   C     C_1   0.877038 0.339646 0.662751 -0.067458
H14   H     H_    0.074161 0.150239 0.718313 0.107456
H15   H     H_    0.722358 0.201763 0.675688 0.107056
H16   H     H_    0.591883 0.222384 0.784071 0.110625
C35   C     C_3   0.543311 0.726397 0.215105 -0.139033
C36   C     C_3   0.351521 0.692760 0.230073 -0.139324
H17   H     H_    0.301246 0.645345 0.213718 0.107266
H18   H     H_    0.652050 0.707049 0.186203 0.106315
H19   H     H_    0.105076 0.766912 0.201548 0.109796
C37   C     C_1   0.348724 0.622069 0.375043 -0.195641
C38   C     C_1   0.475462 0.878033 0.125024 -0.195626
C39   C     C_3   0.580131 0.740898 0.276572 -0.137691
C40   C     C_3   0.388574 0.707854 0.290960 0.169362
C41   C     C_3   0.472647 0.807369 0.270011 -0.139315
C42   C     C_3   0.435595 0.792274 0.209124 0.169363
C43   C     C_3   0.280857 0.773731 0.284980 -0.139026
C44   C     C_3   0.244038 0.759230 0.223513 -0.137692
C45   C     C_1   0.364214 0.660585 0.337024 -0.066261
C46   C     C_1   0.459961 0.839535 0.163054 -0.066264
H20   H     H_    0.172118 0.793079 0.313882 0.106321
H21   H     H_    0.522923 0.854784 0.286366 0.107270
H22   H     H_    0.719092 0.733216 0.298537 0.109798
C47   C     C_R   0.470881 0.161779 0.088780 -0.040672
C48   C     C_R   0.353775 0.338276 0.411241 -0.040795
C49   C     C_R   0.515200 0.278674 0.093035 -0.163602
C50   C     C_R   0.511876 0.221103 0.063039 -0.169510
C51   C     C_R   0.433988 0.160257 0.145375 -0.215117
C52   C     C_R   0.439455 0.218369 0.177302 0.086673
C53   C     C_R   0.480407 0.277867 0.149622 0.141302
C54   C     C_R   0.407727 0.219638 0.235455 0.058403
C55   C     C_R   0.417054 0.280413 0.264571 0.058402
C56   C     C_R   0.457337 0.337839 0.234538 -0.188167
C57   C     C_R   0.488080 0.336384 0.178436 -0.203847
C58   C     C_R   0.367584 0.162206 0.265496 -0.188148
C59   C     C_R   0.336957 0.163654 0.321605 -0.203859
C60   C     C_R   0.344544 0.222177 0.350413 0.141302
C61   C     C_R   0.385289 0.281683 0.322723 0.086709
C62   C     C_R   0.309874 0.221363 0.407008 -0.163602
C63   C     C_R   0.313082 0.278939 0.436998 -0.169519
C64   C     C_R   0.390543 0.339805 0.354637 -0.215168
H23   H     H_    0.519131 0.381866 0.157305 0.120153
H24   H     H_    0.419170 0.387091 0.336942 0.092591
H25   H     H_    0.282986 0.277268 0.480485 0.105133
H26   H     H_    0.306063 0.118166 0.342744 0.120157
H27   H     H_    0.547123 0.324080 0.071938 0.110611
H28   H     H_    0.542078 0.222768 0.019560 0.105176
H29   H     H_    0.405077 0.112984 0.163057 0.092665
H30   H     H_    0.466696 0.385227 0.253195 0.122023
H31   H     H_    0.358345 0.114809 0.246846 0.122025
H32   H     H_    0.278140 0.175949 0.428115 0.110609
O11   O     O_R   0.323550 0.942140 0.056770 -0.535037
O12   O     O_R   0.647080 0.077200 0.045890 -0.538034
O13   O     O_R   0.813610 0.057920 0.943260 -0.535078
C65   C     C_R   0.478074 0.101111 0.056592 0.694228
O14   O     O_R   0.653470 0.943760 0.063000 -0.537188
O15   O     O_R   0.820050 0.923540 0.960490 -0.536424
C66   C     C_R   0.485437 0.923655 0.079006 0.724452
O16   O     O_R   0.317110 0.076520 0.039540 -0.536255
O17   O     O_3   0.483830 0.993580 0.966380 -0.366874
V3    V     V_3+5 0.760140 0.001190 0.006240 1.423830
O18   O     O_R   0.149510 0.922740 0.954070 -0.538133
C67   C     C_R   0.981331 0.898892 0.943380 0.693594
O19   O     O_R   0.143120 0.056170 0.936970 -0.537982
C68   C     C_R   0.973370 0.076279 0.921090 0.726162
V4    V     V_3+5 0.259690 0.998700 0.993700 1.424260
O20   O     O_3   0.986130 0.006420 0.033620 -0.366772

loop_
_geom_bond_atom_site_label_1
_geom_bond_atom_site_label_2
_ccdc_geom_bond_type
C13   C19   A    
C49   C53   A    
C59   C60   A    
O16   V4    S    
C53   C57   A    
C48   C64   A    
C4    C6    S    
C38   C46   T    
C7    C8    A    
C25   C68   S    
C1    O6    A    
C3    C26   S    
O12   V3    S    
C61   C64   A    
V4    O20   S    
C23   C24   S    
C14   C15   A    
C49   H27   S    
O13   V3    S    
C16   C17   A    
C41   H21   S    
C30   C34   S    
O5    C3    A    
C40   C45   S    
C8    H6    S    
C52   C54   A    
C28   C31   S    
V2    O10   S    
C5    C8    A    
H13   C32   S    
C31   C32   S    
C36   C40   S    
C5    C67   S    
C24   H11   S    
O8    V2    S    
C54   C58   A    
C17   H4    S    
C35   C39   S    
C39   C40   S    
O1    V2    S    
C11   C15   A    
O7    V1    S    
C62   H32   S    
C35   H18   S    
O9    C4    A    
O13   C68   A    
C42   C44   S    
C51   H29   S    
C27   C29   S    
O12   C65   A    
C29   C31   S    
C43   C44   S    
C35   C36   S    
C39   H22   S    
C25   C33   T    
C12   C13   A    
C56   H30   S    
C41   C43   S    
C1    C37   S    
C52   C53   A    
O11   V4    S    
C35   C42   S    
C23   C27   S    
C15   H1    S    
C13   C14   A    
C51   C52   A    
C21   H3    S    
C31   H14   S    
C55   C61   A    
O2    C1    A    
C17   C18   A    
C58   H31   S    
C49   C50   A    
C47   C65   S    
O18   C67   A    
C62   C63   A    
C20   H10   S    
C19   C22   A    
V3    O20   S    
C60   C62   A    
C6    C22   A    
O19   C68   A    
O15   V3    S    
O3    C4    A    
C7    H5    S    
C9    H7    S    
O6    V2    S    
C64   H24   S    
O9    V2    S    
C24   C32   S    
C50   H28   S    
C48   C63   A    
C10   C12   A    
C26   C34   T    
O2    V1    S    
C65   O16   A    
C47   C50   A    
C27   C28   S    
C14   H8    S    
O4    C2    A    
C23   H12   S    
O15   C67   A    
C29   C30   S    
C38   C66   S    
O1    C2    A    
C12   C16   A    
C41   C42   S    
C59   H26   S    
O5    V1    S    
C40   C43   S    
C39   C41   S    
C28   C33   S    
C29   H15   S    
O18   V4    S    
C37   C45   T    
C16   H9    S    
C20   C21   A    
C30   C32   S    
O17   V4    S    
O4    V1    S    
O3    V1    S    
C27   H16   S    
O17   V3    S    
C36   H17   S    
C18   C20   A    
C56   C57   A    
C18   C19   A    
C24   C28   S    
C58   C59   A    
C36   C44   S    
C22   H2    S    
O7    V2    S    
C60   C61   A    
C6    C21   A    
C47   C51   A    
O19   V4    S    
O11   C66   A    
O14   V3    S    
C7    C11   A    
C2    C48   S    
H19   C44   S    
C54   C55   A    
C23   C30   S    
C43   H20   S    
C42   C46   S    
C10   C11   A    
V1    O10   S    
C57   H23   S    
C55   C56   A    
C9    C10   A    
C63   H25   S    
O8    C3    A    
O14   C66   A    
C5    C9    A    
