data_mof_unit_44833.cif
_audit_creation_date              2012-10-26T19:56:45-0400
_audit_creation_method            fapswitch 2.2
_symmetry_space_group_name_H-M    P1
_symmetry_Int_Tables_number       1
_space_group_crystal_system       triclinic
_cell_length_a                    15.65162
_cell_length_b                    15.676326
_cell_length_c                    9.938185
_cell_angle_alpha                 90.108832
_cell_angle_beta                  59.83587
_cell_angle_gamma                 89.981005
_cell_volume                      2108.23673158

loop_
_atom_site_label
_atom_site_type_symbol
_atom_type_description
_atom_site_fract_x
_atom_site_fract_y
_atom_site_fract_z
_atom_type_partial_charge
C1    C     C_R   0.372292 0.117525 0.561747 0.567258
C2    C     C_2   0.488024 0.001987 0.083866 0.171454
C3    C     C_2   0.011830 0.503332 0.916340 0.160528
C4    C     C_2   0.988166 0.496697 0.083667 0.160530
C5    C     C_2   0.299344 0.816280 0.592633 -0.076611
C6    C     C_2   0.700679 0.183696 0.407345 -0.076611
C7    C     C_2   0.709561 0.825844 0.399976 -0.083483
C8    C     C_2   0.290433 0.174145 0.600021 -0.083465
C9    C     C_2   0.789803 0.327013 0.599779 -0.064267
C10   C     C_2   0.210245 0.672934 0.400214 -0.064249
C11   C     C_2   0.201951 0.317158 0.406438 -0.111909
C12   C     C_R   0.627707 0.882472 0.438253 0.567267
C13   C     C_2   0.798037 0.682830 0.593574 -0.111938
C14   C     C_2   0.299288 0.771195 0.476877 0.026269
C15   C     C_2   0.700746 0.228783 0.523090 0.026298
C16   C     C_2   0.705260 0.766468 0.500542 0.021368
C17   C     C_2   0.294733 0.233528 0.499466 0.021415
C18   C     C_2   0.794277 0.266916 0.499943 0.038761
C19   C     C_2   0.205763 0.733074 0.499989 0.038779
C20   C     C_2   0.201328 0.271188 0.521651 0.007900
C21   C     C_2   0.798668 0.728818 0.478376 0.007872
C22   C     C_2   0.606290 0.241297 0.674221 0.610237
C23   C     C_R   0.625528 0.119701 0.439886 0.575193
C24   C     C_2   0.393748 0.758685 0.325757 0.610263
C25   C     C_2   0.393059 0.264469 0.373956 0.602559
C26   C     C_2   0.606929 0.735535 0.626066 0.602565
C27   C     C_2   0.106927 0.764780 0.623687 0.612446
C28   C     C_2   0.893112 0.235292 0.376092 0.612447
C29   C     C_2   0.893211 0.742177 0.328128 0.612259
C30   C     C_2   0.106802 0.257871 0.671946 0.612278
C31   C     C_2   0.382702 0.010445 0.203741 0.614232
C32   C     C_2   0.617297 0.989513 0.796266 0.614226
C33   C     C_2   0.883499 0.483731 0.202732 0.612300
C34   C     C_R   0.374477 0.880292 0.560110 0.575205
C35   C     C_2   0.116488 0.516358 0.797288 0.612282
C36   C     C_R   0.874080 0.619486 0.560478 0.565402
C37   C     C_R   0.125918 0.380512 0.439523 0.565409
C38   C     C_R   0.128041 0.617057 0.438261 0.573413
C39   C     C_R   0.871978 0.382926 0.561732 0.573424
C40   C     C_2   0.511976 0.998000 0.916133 0.171467
Cu1   Cu    Cu3+1 0.522650 0.000000 0.349410 1.087428
Cu2   Cu    Cu3+1 0.477350 1.000000 0.650590 1.087443
Cu3   Cu    Cu3+1 0.022650 0.500000 0.349410 1.084793
Cu4   Cu    Cu3+1 0.977350 0.500000 0.650590 1.084797
H1    H     H_    0.629499 0.994453 0.037019 0.228952
H2    H     H_    0.721049 0.345882 0.701463 0.120084
H3    H     H_    0.734966 0.682138 0.710207 0.153189
H4    H     H_    0.265011 0.317818 0.289792 0.153171
H5    H     H_    0.460799 0.269342 0.781809 0.354268
H6    H     H_    0.539253 0.730695 0.218181 0.354274
H7    H     H_    0.489883 0.277433 0.144404 0.365713
H8    H     H_    0.510121 0.722547 0.855622 0.365733
H9    H     H_    0.972937 0.809540 0.674926 0.348149
H10   H     H_    0.027166 0.190568 0.324590 0.348135
H11   H     H_    0.965762 0.736259 0.093590 0.373146
H12   H     H_    0.370505 0.005571 0.962978 0.228954
H13   H     H_    0.034315 0.263820 0.906475 0.373162
H14   H     H_    0.264623 0.088300 0.313947 0.333736
H15   H     H_    0.735356 0.911633 0.686141 0.333727
H16   H     H_    0.751440 0.536859 0.350160 0.340464
H17   H     H_    0.248571 0.463311 0.649743 0.340453
H18   H     H_    0.129106 0.508573 0.037507 0.230176
H19   H     H_    0.870901 0.491376 0.962483 0.230181
H20   H     H_    0.762415 0.184539 0.289570 0.154882
H21   H     H_    0.237608 0.815418 0.710398 0.154920
H22   H     H_    0.221775 0.156435 0.702727 0.130317
H23   H     H_    0.778217 0.843545 0.297253 0.130363
H24   H     H_    0.279014 0.654007 0.298621 0.120021
N1    N     N_2   0.443290 0.000000 0.876860 -0.361110
N2    N     N_2   0.556710 0.000000 0.123140 -0.361109
N3    N     N_2   0.943290 0.500000 0.876860 -0.361127
N4    N     N_2   0.056710 0.500000 0.123140 -0.361142
O1    O     O_R   0.422430 0.089640 0.419570 -0.464666
O2    O     O_R   0.615830 0.910350 0.326090 -0.494497
O3    O     O_R   0.615830 0.089650 0.326090 -0.493908
O4    O     O_R   0.384170 0.910350 0.673910 -0.493886
O5    O     O_R   0.884170 0.589650 0.673910 -0.499792
O6    O     O_R   0.115830 0.410350 0.326090 -0.499825
O7    O     O_R   0.115830 0.589650 0.326090 -0.485359
O8    O     O_R   0.884170 0.410350 0.673910 -0.485408
O9    O     O_2   0.603631 0.229764 0.797969 -0.485133
O10   O     O_R   0.520233 0.264171 0.673168 -0.643906
O11   O     O_2   0.396400 0.770164 0.202002 -0.485123
O12   O     O_R   0.577570 0.910360 0.580430 -0.464688
O13   O     O_R   0.479818 0.735870 0.326819 -0.643911
O14   O     O_2   0.451066 0.295092 0.409147 -0.466354
O15   O     O_R   0.420808 0.255323 0.217263 -0.653236
O16   O     O_2   0.548910 0.704932 0.590886 -0.466375
O17   O     O_R   0.579195 0.744660 0.782757 -0.653213
O18   O     O_2   0.084064 0.763748 0.760708 -0.501852
O19   O     O_R   0.038236 0.791618 0.581839 -0.643046
O20   O     O_2   0.915909 0.236412 0.239102 -0.501868
O21   O     O_R   0.961880 0.208434 0.417765 -0.643176
O22   O     O_2   0.967271 0.765594 0.329671 -0.457305
O23   O     O_R   0.577570 0.089640 0.580430 -0.455288
O24   O     O_R   0.897448 0.726309 0.186355 -0.652111
O25   O     O_2   0.032710 0.234481 0.670477 -0.457342
O26   O     O_R   0.102622 0.273743 0.813677 -0.652194
O27   O     O_2   0.332746 0.946827 0.262419 -0.484123
O28   O     O_R   0.337837 0.090646 0.234656 -0.663697
O29   O     O_2   0.667264 0.053117 0.737518 -0.484124
O30   O     O_R   0.662141 0.909306 0.765433 -0.663687
O31   O     O_2   0.848601 0.411922 0.226247 -0.498917
O32   O     O_R   0.822172 0.553919 0.274261 -0.657205
O33   O     O_2   0.151344 0.588182 0.773878 -0.498976
O34   O     O_R   0.422430 0.910360 0.419570 -0.455313
O35   O     O_R   0.177852 0.446208 0.725629 -0.657230
O36   O     O_R   0.922430 0.589640 0.419570 -0.449115
O37   O     O_R   0.077570 0.410360 0.580430 -0.449080
O38   O     O_R   0.077570 0.589640 0.580430 -0.468760
O39   O     O_R   0.922430 0.410360 0.419570 -0.468715
O40   O     O_R   0.384170 0.089650 0.673910 -0.494513

loop_
_geom_bond_atom_site_label_1
_geom_bond_atom_site_label_2
_ccdc_geom_bond_type
C15   C18   S    
C18   C28   S    
C8    H22   S    
Cu3   N4    S    
C12   O2    A    
C36   O36   A    
C1    C8    S    
Cu1   Cu2   S    
C9    C39   S    
C11   H4    S    
C20   C30   S    
C26   O17   S    
C30   O25   D    
C16   C21   S    
C14   C24   S    
Cu4   N3    S    
C22   O10   S    
Cu4   O5    S    
C24   O11   D    
C36   O5    A    
C1    O40   A    
C29   O22   D    
C38   O7    A    
C6    C23   S    
Cu3   O7    S    
C33   O32   S    
C25   O15   S    
C17   C20   S    
C12   O12   A    
C27   O18   D    
C6    H20   S    
C11   C37   S    
Cu2   O40   S    
H10   O21   S    
H6    O13   S    
Cu1   O2    S    
H14   O28   S    
H9    O19   S    
C27   O19   S    
C31   O27   D    
C38   O38   A    
C19   C27   S    
C24   O13   S    
C37   O37   A    
Cu4   O37   S    
C39   O39   A    
C6    C15   D    
C9    H2    S    
H8    O17   S    
Cu3   O39   S    
C15   C22   S    
C16   C26   S    
C7    C12   S    
C11   C20   D    
C40   N1    D    
C13   C21   D    
Cu2   O23   S    
C34   O34   A    
C22   O9    D    
Cu4   O8    S    
Cu2   O12   S    
C13   C36   S    
C5    H21   S    
Cu1   O34   S    
H7    O15   S    
C13   H3    S    
C21   C29   S    
Cu2   N1    S    
C28   O21   S    
Cu3   O6    S    
H5    O10   S    
C3    N3    D    
Cu3   Cu4   S    
C35   O33   D    
Cu1   O3    S    
C3    C35   S    
C10   C19   D    
C5    C34   S    
H18   N4    S    
C28   O20   D    
C31   O28   S    
C5    C14   D    
C7    C16   D    
H19   N3    S    
C32   O30   S    
C3    C4    S    
C4    N4    D    
C4    C33   S    
H1    N2    S    
C33   O31   D    
H15   O30   S    
C14   C19   S    
C23   O3    A    
H11   O24   S    
C29   O24   S    
C10   H24   S    
C37   O6    A    
C30   O26   S    
Cu2   O4    S    
C8    C17   D    
C10   C38   S    
C1    O1    A    
C39   O8    A    
C17   C25   S    
H16   O32   S    
H13   O26   S    
C25   O14   D    
C23   O23   A    
Cu3   O36   S    
C32   C40   S    
H17   O35   S    
C35   O35   S    
Cu1   O1    S    
C2    C40   S    
C9    C18   D    
C26   O16   D    
H12   N1    S    
C7    H23   S    
C32   O29   D    
C2    C31   S    
C2    N2    D    
C34   O4    A    
Cu1   N2    S    
Cu4   O38   S    
