data_mof_unit_36935.cif
_audit_creation_date              2012-12-10T17:22:08-0500
_audit_creation_method            fapswitch 2.2
_symmetry_space_group_name_H-M    P1
_symmetry_Int_Tables_number       1
_space_group_crystal_system       triclinic
_cell_length_a                    10.198454
_cell_length_b                    10.662584
_cell_length_c                    15.729533
_cell_angle_alpha                 91.512137
_cell_angle_beta                  81.789809
_cell_angle_gamma                 96.107685
_cell_volume                      1683.2096087

loop_
_atom_site_label
_atom_site_type_symbol
_atom_type_description
_atom_site_fract_x
_atom_site_fract_y
_atom_site_fract_z
_atom_type_partial_charge
C1    C     C_R   0.556414 0.733251 0.490131 0.782984
C2    C     C_3   0.358060 0.543636 0.064385 0.553880
C3    C     C_3   0.495255 0.502188 0.083676 -0.127628
C4    C     C_3   0.506977 0.364597 0.046450 0.160178
C5    C     C_3   0.519699 0.365890 0.946290 0.038793
C6    C     C_1   0.496178 0.499993 0.175220 0.133244
C7    C     C_1   0.498818 0.499549 0.825545 0.197377
C8    C     C_1   0.500062 0.498827 0.750169 -0.159729
C9    C     C_2   0.588189 0.866679 0.470542 0.274182
C10   C     C_2   0.487883 0.930005 0.454680 -0.194454
C11   C     C_2   0.410610 0.130701 0.497171 0.255259
C12   C     C_R   0.500038 0.499157 0.661394 0.881026
C13   C     C_2   0.503034 0.065371 0.452713 -0.140756
C14   C     C_2   0.921088 0.485861 0.522276 0.552156
C15   C     C_2   0.069131 0.467255 0.507766 0.414746
C16   C     C_R   0.443504 0.266336 0.504229 0.776476
C17   C     C_R   0.499401 0.499516 0.338704 0.852375
C18   C     C_3   0.353887 0.530128 0.963977 0.688824
C19   C     C_3   0.616982 0.593779 0.942696 0.207880
C20   C     C_3   0.615510 0.598344 0.042231 0.726254
C21   C     C_1   0.497795 0.499286 0.250233 -0.191196
C22   C     C_3   0.496365 0.500878 0.917303 -0.177596
H1    H     H_    0.597498 0.111411 0.421765 0.169730
H2    H     H_    0.388611 0.883103 0.451485 0.192808
H3    H     H_    0.133318 0.642144 0.541833 0.092933
H4    H     H_    0.705464 0.545676 0.916765 0.202270
H5    H     H_    0.442676 0.294559 0.924923 0.120738
H6    H     H_    0.410617 0.308013 0.070332 0.087339
N1    N     N_2   0.842720 0.448890 0.465540 0.007173
N2    N     N_2   0.157250 0.551040 0.534500 -0.220286
O1    O     O_R   0.431050 0.692470 0.506940 -0.623585
O2    O     O_R   0.651130 0.659650 0.484820 -0.605973
O3    O     O_R   0.389910 0.516410 0.633920 -0.584413
O4    O     O_R   0.609990 0.483590 0.611800 -0.537008
O5    O     O_R   0.348870 0.340350 0.515180 -0.540013
O6    O     O_R   0.568950 0.307530 0.493060 -0.618179
O7    O     O_R   0.390010 0.516410 0.388200 -0.613262
O8    O     O_R   0.610090 0.483590 0.366080 -0.615408
Zn1   Zn    Zn3+2 0.353060 0.521920 0.514770 0.995599
Zn2   Zn    Zn3+2 0.646940 0.478080 0.485230 1.009307
O9    O     O_3   0.347275 0.669984 0.091666 -0.756603
H7    H     H_    0.252542 0.686025 0.094914 0.359341
O10   O     O_3   0.256082 0.432979 0.943950 -0.727587
H8    H     H_    0.255201 0.357943 0.979755 0.336237
O11   O     O_3   0.250650 0.465807 0.109554 -0.807406
H9    H     H_    0.239675 0.492799 0.170835 0.354147
O12   O     O_3   0.616081 0.312033 0.074159 -0.551488
C23   C     C_3   0.581882 0.183987 0.096499 0.126592
H10   H     H_    0.540375 0.128852 0.043521 0.128167
H11   H     H_    0.507597 0.176318 0.155798 0.135171
C24   C     C_3   0.705827 0.127196 0.113997 -0.764430
H12   H     H_    0.748069 0.178763 0.167826 0.251769
H13   H     H_    0.679893 0.026479 0.131534 0.216707
H14   H     H_    0.781676 0.133430 0.055686 0.266170
O13   O     O_3   0.291932 0.069929 0.537083 -0.767805
H15   H     H_    0.240064 0.133531 0.569606 0.364937
O14   O     O_3   0.712729 0.929355 0.477457 -0.600919
C25   C     C_3   0.807572 0.890287 0.410206 0.126712
H16   H     H_    0.764943 0.866297 0.349484 0.126128
H17   H     H_    0.852051 0.807316 0.430695 0.176325
C26   C     C_3   0.918346 0.996765 0.390678 -0.822565
H18   H     H_    0.963310 0.023874 0.449659 0.280044
H19   H     H_    0.996693 0.966050 0.340375 0.214555
H20   H     H_    0.877371 0.079683 0.367185 0.244839
O15   O     O_3   0.107537 0.348054 0.484913 -0.584391
C27   C     C_3   0.107503 0.324238 0.395952 0.190430
H21   H     H_    0.136789 0.410830 0.356476 0.173073
H22   H     H_    0.007533 0.280336 0.385461 0.175098
C28   C     C_3   0.203871 0.228492 0.363034 -0.850726
H23   H     H_    0.185545 0.143835 0.404130 0.282923
H24   H     H_    0.189147 0.198944 0.296524 0.208306
H25   H     H_    0.308287 0.270369 0.361243 0.240145
O16   O     O_3   0.862316 0.515476 0.604561 -0.600077
C29   C     C_3   0.901377 0.642066 0.626843 0.043907
H26   H     H_    0.920521 0.706173 0.570425 0.118048
H27   H     H_    0.991008 0.645161 0.659808 0.162253
C30   C     C_3   0.793366 0.693189 0.691043 -0.661744
H28   H     H_    0.764481 0.627420 0.745590 0.274747
H29   H     H_    0.831470 0.786237 0.716202 0.211554
H30   H     H_    0.705185 0.706427 0.659664 0.230187
O17   O     O_3   0.318634 0.641671 0.931956 -0.795802
H31   H     H_    0.222338 0.646582 0.951742 0.377822
O18   O     O_3   0.900849 0.465427 0.384041 -0.805146
H32   H     H_    0.831704 0.435622 0.348208 0.383557
O19   O     O_3   0.654990 0.711453 0.900010 -0.610023
C31   C     C_3   0.555415 0.793474 0.901278 0.239854
H33   H     H_    0.489921 0.795023 0.963608 0.249341
H34   H     H_    0.497306 0.768258 0.847642 0.180240
C32   C     C_3   0.621757 0.927153 0.885847 -0.844834
H35   H     H_    0.687135 0.932198 0.822932 0.263466
H36   H     H_    0.544621 0.993194 0.885591 0.198868
H37   H     H_    0.682515 0.956389 0.937623 0.276459
O20   O     O_3   0.599517 0.721966 0.072646 -0.706848
H38   H     H_    0.617420 0.727661 0.133108 0.356217
O21   O     O_3   0.738318 0.567907 0.064377 -0.734289
H39   H     H_    0.765659 0.491315 0.032823 0.380407
O22   O     O_3   0.644663 0.331615 0.907864 -0.716840
H40   H     H_    0.640055 0.238171 0.908676 0.360732

loop_
_geom_bond_atom_site_label_1
_geom_bond_atom_site_label_2
_ccdc_geom_bond_type
C27   H22   S    
O13   H15   S    
O20   H38   S    
C2    C18   S    
O16   C29   S    
O21   H39   S    
C20   O20   S    
C3    C6    S    
O22   H40   S    
C7    C8    T    
O19   C31   S    
O3    Zn1   S    
C29   H27   S    
O4    Zn2   S    
N1    O18   S    
C16   O5    A    
C31   H34   S    
C27   C28   S    
C2    O9    S    
C25   H17   S    
C15   O15   S    
C1    O1    A    
C18   O17   S    
C13   H1    S    
C28   H24   S    
O9    H7    S    
C26   H19   S    
C19   H4    S    
C5    H5    S    
C23   C24   S    
C5    C22   S    
O12   C23   S    
C29   C30   S    
C32   H36   S    
C9    C10   D    
C25   C26   S    
C23   H11   S    
C27   H21   S    
C28   H23   S    
C4    H6    S    
O17   H31   S    
C30   H29   S    
C2    O11   S    
C29   H26   S    
C24   H12   S    
C14   O16   S    
O6    Zn2   S    
C19   C22   S    
C1    C9    S    
C31   H33   S    
C10   H2    S    
C25   H16   S    
C30   H28   S    
C6    C21   T    
C10   C13   S    
C1    O2    A    
C17   C21   S    
C24   H13   S    
C26   H20   S    
O5    Zn1   S    
O10   H8    S    
C11   C16   S    
O18   H32   S    
C8    C12   S    
C3    C20   S    
C17   O7    A    
C32   H37   S    
C23   H10   S    
C20   O21   S    
C5    O22   S    
C14   N1    D    
C12   O4    A    
C3    C4    S    
C28   H25   S    
C11   O13   S    
C15   N2    D    
C30   H30   S    
H3    N2    S    
C18   C22   S    
C4    C5    S    
C19   O19   S    
C31   C32   S    
C7    C22   S    
C24   H14   S    
C19   C20   S    
C2    C3    S    
C32   H35   S    
O7    Zn1   S    
C18   O10   S    
C16   O6    A    
O8    Zn2   S    
C11   C13   D    
O14   C25   S    
N1    Zn2   S    
O1    Zn1   S    
N2    Zn1   S    
C9    O14   S    
C17   O8    A    
O2    Zn2   S    
C26   H18   S    
O11   H9    S    
O15   C27   S    
C14   C15   S    
C12   O3    A    
C4    O12   S    
