data_mof_unit_68248.cif
_audit_creation_date              2013-03-05T15:41:25-0500
_audit_creation_method            fapswitch 2.2
_symmetry_space_group_name_H-M    P1
_symmetry_Int_Tables_number       1
_space_group_crystal_system       triclinic
_cell_length_a                    8.391958
_cell_length_b                    15.15987
_cell_length_c                    15.267981
_cell_angle_alpha                 97.504518
_cell_angle_beta                  99.743191
_cell_angle_gamma                 97.809562
_cell_volume                      1873.02161319

loop_
_atom_site_label
_atom_site_type_symbol
_atom_site_description
_atom_site_fract_x
_atom_site_fract_y
_atom_site_fract_z
_atom_type_partial_charge
P1    P     P_3+3 0.004160 0.709210 0.580280 0.506942
O1    O     O_2   0.174040 0.723040 0.553850 -0.355356
O2    O     O_3   0.901550 0.609570 0.550800 -0.398758
O3    O     O_3   0.370320 0.665070 0.388210 -0.322742
O4    O     O_2   0.266100 0.815603 0.432854 -0.328220
O5    O     O_3   0.043891 0.738692 0.698256 -0.581386
O6    O     O_3   0.398122 0.803205 0.289401 -0.522225
C1    C     C_3   0.466059 0.742709 0.147646 -0.788951
H1    H     H_    0.349108 0.694883 0.134585 0.179117
P2    P     P_3+3 0.305010 0.425580 0.290930 0.466423
P3    P     P_3+3 0.887708 0.603224 0.221387 0.519150
O7    O     O_2   0.134800 0.452800 0.278160 -0.318904
O8    O     O_3   0.937630 0.618610 0.340820 -0.295570
O9    O     O_2   0.022057 0.559370 0.182090 -0.416647
O10   O     O_3   0.255378 0.308096 0.265795 -0.589276
O11   O     O_3   0.888086 0.710715 0.189724 -0.542837
C2    C     C_3   0.017320 0.734966 0.145612 0.273516
H2    H     H_    0.044486 0.677363 0.101433 0.123623
C3    C     C_3   0.971634 0.803663 0.084555 -0.725344
H3    H     H_    0.071135 0.818371 0.046865 0.175937
C4    C     C_3   0.627811 0.284519 0.256686 0.387196
H4    H     H_    0.548685 0.308801 0.301905 0.125704
H5    H     H_    0.652393 0.337068 0.214342 0.077338
C5    C     C_3   0.538269 0.199150 0.194387 -0.822613
H6    H     H_    0.513852 0.144018 0.233831 0.252625
H7    H     H_    0.613933 0.177758 0.144861 0.282881
Ba1   Ba    Ba6+2 0.154720 0.543770 0.458160 1.622197
C6    C     C_3   0.162451 0.692524 0.737681 0.270856
C7    C     C_3   0.209427 0.726186 0.839809 -0.711593
H8    H     H_    0.265708 0.798329 0.852664 0.258563
C8    C     C_3   0.217404 0.272506 0.341119 0.402068
C9    C     C_3   0.157650 0.171828 0.312923 -0.970912
H9    H     H_    0.143287 0.138684 0.372124 0.209722
H10   H     H_    0.247542 0.140290 0.279097 0.289310
P4    P     P_3+3 0.806120 0.290780 0.419650 0.503130
O12   O     O_2   0.636250 0.276900 0.446120 -0.397963
O13   O     O_3   0.908740 0.390420 0.449120 -0.340259
O14   O     O_3   0.439970 0.334920 0.611710 -0.359607
O15   O     O_3   0.778878 0.268155 0.301297 -0.555709
P5    P     P_3+3 0.925884 0.375634 0.775572 0.598311
O16   O     O_3   0.402050 0.547860 0.609740 -0.361092
O17   O     O_3   0.872650 0.381380 0.659100 -0.358374
O18   O     O_2   0.835242 0.445792 0.821014 -0.246171
O19   O     O_3   0.824561 0.276108 0.802852 -0.467164
Ba2   Ba    Ba6+2 0.655440 0.456220 0.541760 1.654667
P6    P     P_3+3 0.415905 0.782134 0.400892 0.526376
C10   C     C_3   0.524381 0.770344 0.250215 0.306000
H11   H     H_    0.556919 0.705816 0.120136 0.183813
O20   O     O_3   0.408230 0.452130 0.390190 -0.430783
C11   C     C_3   0.610307 0.730196 0.699731 0.260622
H12   H     H_    0.722076 0.702870 0.687316 0.144184
C12   C     C_3   0.661976 0.830658 0.736094 -0.630810
H13   H     H_    0.718832 0.840145 0.808587 0.267373
H14   H     H_    0.755500 0.859879 0.700042 0.156840
P7    P     P_3+3 0.499395 0.570609 0.724774 0.467339
O21   O     O_2   0.675480 0.547140 0.721810 -0.295973
O22   O     O_3   0.540361 0.686857 0.763287 -0.587821
C13   C     C_3   0.923529 0.208147 0.806309 0.370272
H15   H     H_    0.053914 0.235121 0.809274 -0.205580
C14   C     C_3   0.916568 0.162919 0.892816 -0.612992
P8    P     P_3+3 0.391000 0.217589 0.602187 0.537177
C15   C     C_3   0.386127 0.206899 0.771803 0.337172
H16   H     H_    0.282460 0.242094 0.748390 -0.049505
O23   O     O_2   0.488616 0.176921 0.534441 -0.330521
O24   O     O_3   0.474280 0.183737 0.703294 -0.454614
H17   H     H_    0.175051 0.106956 0.772884 0.162771
C16   C     C_3   0.307361 0.118366 0.800375 -0.857682
C17   C     C_R   0.621540 0.838365 0.469328 0.187759
C18   C     C_R   0.886921 0.798256 0.533043 0.328309
C19   C     C_R   0.075291 0.235867 0.524371 -0.485509
C20   C     C_R   0.171419 0.176079 0.559716 0.213534
C21   C     C_R   0.105247 0.085150 0.555595 -0.280282
C22   C     C_R   0.943485 0.049760 0.509371 0.057790
C23   C     C_R   0.851623 0.111339 0.467400 0.036201
C24   C     C_R   0.869275 0.956211 0.504750 0.031726
C25   C     C_R   0.696498 0.929759 0.468647 -0.059437
C26   C     C_R   0.610980 0.994704 0.428893 -0.104230
C27   C     C_R   0.692835 0.079004 0.422125 -0.101745
C28   C     C_R   0.961365 0.888280 0.534370 -0.256710
C29   C     C_R   0.716650 0.778902 0.507721 -0.386229
C30   C     C_R   0.917329 0.205447 0.475351 0.270158
H18   H     H_    0.091618 0.903524 0.558154 0.163020
H19   H     H_    0.624201 0.122255 0.385588 0.141102
C31   C     C_R   0.256162 0.440000 0.766410 -0.394616
C32   C     C_R   0.149514 0.414476 0.823365 0.194830
C33   C     C_R   0.207413 0.433496 0.916607 -0.255011
C34   C     C_R   0.365905 0.483078 0.953508 0.095556
C35   C     C_R   0.452121 0.525019 0.893687 -0.215249
C36   C     C_R   0.397814 0.504262 0.800434 0.318762
C37   C     C_R   0.608877 0.527812 0.084458 -0.269502
C38   C     C_R   0.677860 0.539830 0.176023 0.207640
C39   C     C_R   0.415933 0.475784 0.208294 0.207686
C40   C     C_R   0.345381 0.465831 0.116725 -0.216810
C41   C     C_R   0.439517 0.493325 0.052688 0.075227
C42   C     C_R   0.579988 0.514543 0.236100 -0.496793
H20   H     H_    0.689638 0.546839 0.039789 0.145974
H21   H     H_    0.218217 0.435808 0.097596 0.159753
H22   H     H_    0.220313 0.417153 0.695009 0.148708
H23   H     H_    0.554180 0.707695 0.275070 0.096023
H24   H     H_    0.420131 0.211934 0.157264 0.273235
H25   H     H_    0.273009 0.706162 0.708739 0.115440
C43   C     C_2   0.094204 0.595201 0.717268 0.906498
O25   O     O_2   0.987458 0.565656 0.754513 -0.569816
O26   O     O_R   0.126773 0.544595 0.642042 -0.763543
H26   H     H_    0.043456 0.489287 0.616113 0.360718
H27   H     H_    0.302156 0.687799 0.870477 0.167227
C44   C     C_2   0.063581 0.715535 0.884626 1.163877
O27   O     O_2   0.961526 0.765399 0.873889 -0.623769
O28   O     O_R   0.040243 0.644650 0.933503 -0.802694
H28   H     H_    0.927309 0.636223 0.949494 0.316666
H29   H     H_    0.119526 0.304441 0.366338 0.116226
H30   H     H_    0.327577 0.282635 0.395265 0.118109
H31   H     H_    0.037949 0.160276 0.265703 0.286237
C45   C     C_2   0.678309 0.839619 0.272478 0.924542
O29   O     O_2   0.676321 0.914820 0.252062 -0.593482
O30   O     O_R   0.821500 0.818819 0.320751 -0.779173
H32   H     H_    0.916089 0.870752 0.333419 0.339204
H33   H     H_    0.520681 0.720822 0.635350 0.078188
C46   C     C_2   0.519132 0.880134 0.723647 1.122546
O31   O     O_2   0.461102 0.906754 0.788439 -0.603857
O32   O     O_R   0.454493 0.896576 0.637982 -0.788673
H34   H     H_    0.362337 0.933185 0.638671 0.326167
C47   C     C_2   0.441620 0.820432 0.097303 1.208803
O33   O     O_2   0.497441 0.825106 0.028789 -0.620552
O34   O     O_R   0.356947 0.887271 0.129024 -0.706038
H35   H     H_    0.350347 0.936152 0.089736 0.350222
C48   C     C_2   0.949367 0.891264 0.135061 1.270600
O35   O     O_2   0.832707 0.927095 0.107722 -0.560432
O36   O     O_R   0.064804 0.933423 0.210876 -0.741291
H36   H     H_    0.033453 0.990794 0.240084 0.322014
C49   C     C_2   0.866604 0.140219 0.721398 0.997380
O37   O     O_2   0.803177 0.164408 0.652448 -0.569036
O38   O     O_R   0.878450 0.049268 0.722497 -0.847758
H37   H     H_    0.815076 0.009418 0.665685 0.333823
C50   C     C_2   0.763011 0.099052 0.893195 1.156514
O39   O     O_2   0.646149 0.087782 0.831385 -0.614428
O40   O     O_R   0.759399 0.048743 0.963577 -0.727935
H38   H     H_    0.655756 0.003090 0.954464 0.389045
H39   H     H_    0.011029 0.118734 0.895653 0.133569
C51   C     C_2   0.956898 0.228949 0.979644 1.088129
O41   O     O_2   0.909096 0.301611 0.984125 -0.645572
O42   O     O_R   0.042405 0.204108 0.056968 -0.725618
H40   H     H_    0.058144 0.252486 0.111524 0.345436
C52   C     C_2   0.500718 0.275720 0.843461 1.029270
O43   O     O_2   0.542097 0.349931 0.824707 -0.590121
O44   O     O_R   0.565499 0.257071 0.928104 -0.797174
H41   H     H_    0.618138 0.313813 0.971786 0.353393
C53   C     C_2   0.327784 0.111099 0.899623 1.267433
O45   O     O_2   0.367496 0.042834 0.925047 -0.560527
O46   O     O_R   0.295999 0.178416 0.962979 -0.754352
H42   H     H_    0.262107 0.232057 0.935903 0.255534
H43   H     H_    0.349447 0.059715 0.764996 0.285153
H44   H     H_    0.655276 0.715418 0.517199 0.123010
C54   C     C_2   0.433581 0.984088 0.395690 1.122692
O47   O     O_2   0.381566 0.982354 0.315634 -0.557409
O48   O     O_R   0.328110 0.988729 0.456773 -0.780718
H45   H     H_    0.209999 0.983251 0.425133 0.317101
H46   H     H_    0.128210 0.306033 0.530043 0.143364
H47   H     H_    0.182768 0.043857 0.589171 0.170959
H48   H     H_    0.125668 0.411161 0.958756 0.175622
H49   H     H_    0.128175 0.764282 0.196346 0.204230
H50   H     H_    0.560414 0.575060 0.917936 0.133318
C55   C     C_2   0.652715 0.525683 0.329377 1.127544
O49   O     O_2   0.734545 0.471376 0.355988 -0.590573
O50   O     O_R   0.630052 0.598572 0.387282 -0.788753
H51   H     H_    0.650239 0.586550 0.450846 0.338876
H52   H     H_    0.857688 0.773965 0.035090 0.222487

loop_
_geom_bond_atom_site_label_1
_geom_bond_atom_site_label_2
_geom_bond_distance
_ccdc_geom_bond_type
P2    Ba1   3.439374 S    
C17   C29   1.403026 A    
C10   C45   1.508825 S    
P7    O21   1.572748 D    
O50   H51   1.001347 S    
C44   O28   1.397047 S    
C22   C23   1.435627 A    
C3    H3    1.106189 S    
C34   C35   1.418562 A    
C48   O36   1.394922 S    
C45   O29   1.222040 D    
P4    C30   1.901199 S    
C50   O39   1.216814 D    
O3    P6    1.741838 S    
C26   C27   1.391302 A    
C40   C41   1.425529 A    
C21   H47   1.076816 S    
C15   C16   1.561421 S    
C6    C7    1.541643 S    
P4    O13   1.601120 S    
C51   O42   1.397613 S    
O44   H41   1.013438 S    
P2    O10   1.748887 S    
P3    O9    1.549703 D    
C47   O34   1.396481 S    
C13   C14   1.571556 S    
C34   C41   1.514796 S    
C10   H23   1.111373 S    
O30   H32   1.012807 S    
C2    H2    1.105361 S    
P1    O1    1.541035 D    
O42   H40   1.012932 S    
C3    C48   1.497307 S    
C19   C30   1.392116 A    
O16   P7    1.775001 S    
O14   Ba2   2.838092 S    
C6    H25   1.099686 S    
P5    O18   1.548203 D    
O5    C6    1.392369 S    
C55   O49   1.208726 D    
Ba2   O21   2.876783 S    
O19   C13   1.409244 S    
C1    H1    1.109633 S    
C11   C12   1.527721 S    
C44   O27   1.221713 D    
C19   C20   1.393790 A    
C9    H31   1.110674 S    
C54   O48   1.391871 S    
C2    H49   1.103077 S    
O14   P8    1.751415 S    
Ba1   Ba2   4.657007 S    
P5    O17   1.775285 S    
H17   C16   1.100019 S    
P2    C39   1.869068 S    
C5    H24   1.110142 S    
C4    H4    1.099227 S    
C22   C24   1.457080 A    
C3    H52   1.112299 S    
C27   H19   1.078091 S    
O26   H26   1.004439 S    
C12   H14   1.109338 S    
C37   C41   1.423754 A    
C46   O32   1.396006 S    
C51   O41   1.220132 D    
C29   H44   1.067401 S    
O7    Ba1   2.876543 S    
P1    O5    1.761074 S    
O6    P6    1.758107 S    
C47   O33   1.222664 D    
C31   C32   1.401462 A    
C5    H6    1.109026 S    
C52   O44   1.394633 S    
C15   C52   1.511071 S    
C33   C34   1.419691 A    
O11   C2    1.403037 S    
C13   H15   1.106033 S    
C32   C33   1.402321 A    
C37   H20   1.078136 S    
O2    Ba2   2.864278 S    
C39   C42   1.392148 A    
P1    C18   1.919771 S    
C19   H46   1.082006 S    
P4    O12   1.541255 D    
O6    C10   1.417368 S    
P5    C32   1.877532 S    
P8    O23   1.542232 D    
P4    O15   1.764138 S    
C24   C25   1.442465 A    
C1    H11   1.110658 S    
P6    C17   1.885121 S    
C7    H8    1.109008 S    
C42   C55   1.429752 S    
C26   C54   1.468788 S    
P3    O11   1.758988 S    
Ba1   O16   2.823060 S    
C8    C9    1.521045 S    
C4    O15   1.403569 S    
Ba2   O20   2.822358 S    
C13   C49   1.509083 S    
C8    H30   1.109687 S    
C15   H16   1.113562 S    
C11   H12   1.110218 S    
C54   O47   1.221940 D    
O12   Ba2   2.883197 S    
C25   C26   1.432999 A    
C43   O26   1.384021 S    
C14   C50   1.504319 S    
O32   H34   1.011967 S    
O1    Ba1   2.882650 S    
P2    O7    1.528250 D    
C14   C51   1.511104 S    
C6    C43   1.480472 S    
P7    O22   1.750974 S    
O38   H37   1.009877 S    
C7    H27   1.111029 S    
C18   C28   1.417754 A    
C31   C36   1.405735 A    
C23   C30   1.439611 A    
O13   Ba2   2.956268 S    
C48   O35   1.221954 D    
P4    Ba2   3.435634 S    
C40   H21   1.076603 S    
O3    Ba1   2.838760 S    
C12   H13   1.111042 S    
O36   H36   1.012484 S    
O40   H38   1.012498 S    
C50   O40   1.398636 S    
O48   H45   1.013806 S    
O16   Ba2   2.949952 S    
C15   O24   1.414639 S    
C55   O50   1.377556 S    
C16   H43   1.109744 S    
C11   H33   1.111925 S    
C11   O22   1.404411 S    
C7    C44   1.500314 S    
C5    H7    1.111100 S    
C53   O46   1.397058 S    
C21   C22   1.416904 A    
C49   O38   1.397860 S    
C49   O37   1.220756 D    
C28   H18   1.074791 S    
C45   O30   1.396611 S    
C46   O31   1.220984 D    
C1    C47   1.506674 S    
O10   C8    1.398100 S    
C17   C25   1.443813 A    
O4    P6    1.546723 D    
C52   O43   1.216517 D    
C31   H22   1.077478 S    
C9    H9    1.105925 S    
C4    H5    1.109135 S    
C1    C10   1.543040 S    
C20   C21   1.403562 A    
P7    C36   1.864553 S    
O28   H28   1.013751 S    
P3    O8    1.777317 S    
P8    C20   1.840090 S    
C37   C38   1.397727 A    
O34   H35   1.013922 S    
C33   H48   1.068919 S    
Ba1   O13   2.863622 S    
C35   H50   1.078821 S    
O2    Ba1   2.955342 S    
C39   C40   1.402984 A    
C2    C3    1.530271 S    
C53   O45   1.219664 D    
P8    O24   1.753300 S    
C43   O25   1.206799 D    
C14   H39   1.104186 S    
C38   C42   1.387155 A    
C12   C46   1.496709 S    
P3    C38   1.859553 S    
P5    O19   1.763052 S    
C35   C36   1.399382 A    
C23   C27   1.384197 A    
C4    C5    1.522019 S    
C16   C53   1.516094 S    
P1    Ba1   3.435146 S    
C8    H29   1.106222 S    
O46   H42   1.011890 S    
O8    Ba1   2.793532 S    
C18   C29   1.395277 A    
P1    O2    1.601101 S    
P2    O20   1.584509 S    
C24   C28   1.442899 A    
O17   Ba2   2.794136 S    
Ba1   O20   2.950743 S    
C9    H10   1.108952 S    
