data_mof_unit_60796.cif
_audit_creation_date              2012-12-10T17:20:08-0500
_audit_creation_method            fapswitch 2.2
_symmetry_space_group_name_H-M    P1
_symmetry_Int_Tables_number       1
_space_group_crystal_system       triclinic
_cell_length_a                    10.164277
_cell_length_b                    10.472605
_cell_length_c                    14.165677
_cell_angle_alpha                 89.857559
_cell_angle_beta                  82.204087
_cell_angle_gamma                 93.530245
_cell_volume                      1491.02509939

loop_
_atom_site_label
_atom_site_type_symbol
_atom_type_description
_atom_site_fract_x
_atom_site_fract_y
_atom_site_fract_z
_atom_type_partial_charge
C1    C     C_R   0.553615 0.734790 0.499070 0.978913
C2    C     C_1   0.499607 0.500082 0.042620 0.004135
C3    C     C_2   0.577861 0.870379 0.516508 -0.502601
C4    C     C_2   0.422747 0.129486 0.532549 -0.498783
C5    C     C_2   0.495541 0.929005 0.583175 0.444759
C6    C     C_2   0.506501 0.070574 0.582023 0.446235
C7    C     C_2   0.927833 0.512180 0.508705 -0.119753
C8    C     C_2   0.072071 0.487503 0.491575 -0.135854
C9    C     C_3   0.683232 0.069379 0.673126 -0.312202
C10   C     C_3   0.321705 0.929651 0.710749 -0.321830
C11   C     C_R   0.446497 0.265183 0.510122 0.976327
C12   C     C_R   0.500456 0.499941 0.670853 0.920298
C13   C     C_R   0.499545 0.500063 0.329152 0.871548
C14   C     C_1   0.501293 0.499840 0.772204 -0.182080
C15   C     C_1   0.498714 0.500187 0.227773 -0.202187
C16   C     C_1   0.501163 0.499869 0.857419 -0.013432
C17   C     C_1   0.498848 0.500176 0.142546 -0.013895
C18   C     C_1   0.500407 0.499976 0.957338 0.003161
H1    H     H_    0.120913 0.619466 0.582566 0.174495
H2    H     H_    0.658650 0.923784 0.472268 0.121202
H3    H     H_    0.106586 0.414786 0.441302 0.162193
H4    H     H_    0.893259 0.584705 0.559130 0.158672
H5    H     H_    0.879167 0.380727 0.417301 0.165122
H6    H     H_    0.746776 0.009471 0.623490 0.161974
H7    H     H_    0.622233 0.009833 0.729906 0.161252
H8    H     H_    0.750677 0.135050 0.708465 0.193447
H9    H     H_    0.257108 0.989965 0.674537 0.164652
H10   H     H_    0.384149 0.988751 0.754730 0.165476
H11   H     H_    0.255309 0.863763 0.759966 0.191009
H12   H     H_    0.341092 0.076253 0.505136 0.119539
N1    N     N_2   0.842710 0.448890 0.464580 -0.176202
N2    N     N_2   0.157290 0.551110 0.535420 -0.179772
O1    O     O_R   0.431050 0.692470 0.507130 -0.543647
O2    O     O_3   0.399657 0.855684 0.644334 -0.591431
O3    O     O_R   0.568950 0.307530 0.492870 -0.544485
O4    O     O_R   0.651120 0.659650 0.484400 -0.616668
O5    O     O_R   0.348880 0.340350 0.515600 -0.616108
O6    O     O_R   0.389940 0.516410 0.637650 -0.579904
O7    O     O_R   0.610060 0.483590 0.362350 -0.595746
O8    O     O_R   0.610010 0.483590 0.614920 -0.582735
O9    O     O_R   0.389990 0.516410 0.385080 -0.597477
O10   O     O_3   0.603589 0.143650 0.623224 -0.586855
Zn1   Zn    Zn3+2 0.353060 0.521920 0.515180 0.964627
Zn2   Zn    Zn3+2 0.646940 0.478080 0.484820 0.964610

loop_
_geom_bond_atom_site_label_1
_geom_bond_atom_site_label_2
_ccdc_geom_bond_type
C10   H9    S    
O5    Zn1   S    
C9    H6    S    
C12   O8    A    
O7    Zn2   S    
C2    C18   T    
C7    H4    S    
C2    C17   S    
O8    Zn2   S    
C5    O2    S    
C13   O9    A    
C8    H3    S    
C1    O1    A    
C7    C8    S    
C10   O2    S    
C4    C11   S    
O3    Zn2   S    
O9    Zn1   S    
C10   H11   S    
C9    O10   S    
H1    N2    S    
C4    C6    D    
N2    Zn1   S    
C12   C14   S    
C9    H8    S    
C13   C15   S    
C12   O6    A    
C5    C6    S    
C14   C16   T    
O4    Zn2   S    
C13   O7    A    
N1    Zn2   S    
C9    H7    S    
C8    N2    D    
C3    H2    S    
C7    N1    D    
C16   C18   S    
C6    O10   S    
C10   H10   S    
C15   C17   T    
C3    C5    D    
C11   O3    A    
C11   O5    A    
C4    H12   S    
O6    Zn1   S    
C1    O4    A    
H5    N1    S    
C1    C3    S    
O1    Zn1   S    
