data_mof_unit_49613.cif
_audit_creation_date              2012-12-10T18:11:46-0500
_audit_creation_method            fapswitch 2.2
_symmetry_space_group_name_H-M    P1
_symmetry_Int_Tables_number       1
_space_group_crystal_system       triclinic
_cell_length_a                    10.480142
_cell_length_b                    12.744421
_cell_length_c                    12.841426
_cell_angle_alpha                 81.86956
_cell_angle_beta                  92.628482
_cell_angle_gamma                 102.302345
_cell_volume                      1658.69577818

loop_
_atom_site_label
_atom_site_type_symbol
_atom_type_description
_atom_site_fract_x
_atom_site_fract_y
_atom_site_fract_z
_atom_type_partial_charge
C1    C     C_R   0.487861 0.439233 0.692667 0.846827
C2    C     C_R   0.559126 0.446035 0.982327 0.143525
C3    C     C_R   0.575860 0.467032 0.872679 0.050049
C4    C     C_R   0.741935 0.500612 0.500457 0.822218
C5    C     C_R   0.620364 0.525993 0.044556 0.052167
C6    C     C_R   0.672786 0.632048 0.996690 0.115317
C7    C     C_R   0.710309 0.645099 0.891655 -0.226813
C8    C     C_R   0.670949 0.559295 0.832828 -0.192998
C9    C     C_R   0.617509 0.507032 0.153477 -0.099918
C10   C     C_R   0.631118 0.697652 0.158220 -0.205785
C11   C     C_R   0.490484 0.401549 0.806351 -0.149070
C12   C     C_3   0.068823 0.597927 0.518415 -0.139945
C13   C     C_R   0.272920 0.080917 0.386765 -0.274115
C14   C     C_R   0.679550 0.803936 0.609507 0.012462
C15   C     C_R   0.731121 0.911046 0.620667 -0.256457
C16   C     C_R   0.532044 0.559480 0.310158 0.866612
C17   C     C_R   0.662754 0.989990 0.579621 -0.107521
C18   C     C_R   0.536628 0.961934 0.533799 -0.008198
C19   C     C_R   0.494310 0.853057 0.513686 0.193194
C20   C     C_R   0.458479 0.039441 0.495668 -0.003557
C21   C     C_R   0.339306 0.005264 0.441827 0.143687
C22   C     C_R   0.293226 0.896507 0.434844 -0.285623
C23   C     C_3   0.969160 0.520858 0.594197 -0.227002
C24   C     C_R   0.381980 0.828589 0.446786 0.173685
C25   C     C_R   0.491509 0.150032 0.508376 0.058698
C26   C     C_R   0.326269 0.190304 0.384445 0.020251
C27   C     C_R   0.258050 0.499340 0.499717 0.859790
C28   C     C_3   0.931766 0.402732 0.480786 -0.175886
C29   C     C_3   0.025922 0.422714 0.575358 -0.159100
C30   C     C_3   0.122650 0.499333 0.499411 -0.016182
C31   C     C_3   0.031393 0.479501 0.404732 -0.185814
C32   C     C_3   0.974988 0.576679 0.424784 0.220126
C33   C     C_2   0.670475 0.414048 0.209861 0.382813
C34   C     C_3   0.877409 0.501078 0.499790 0.023547
C35   C     C_2   0.287225 0.248236 0.793528 0.405907
C36   C     C_2   0.562900 0.184305 0.603971 0.476923
C37   C     C_3   0.390524 0.784162 0.345506 -0.782391
C38   C     C_3   0.943588 0.663676 0.339640 -0.936210
C39   C     C_3   0.734569 0.835115 0.008704 -0.902230
C40   C     C_R   0.682470 0.719607 0.055792 0.201394
C41   C     C_R   0.592803 0.589856 0.206180 -0.211149
C42   C     C_R   0.395170 0.311425 0.852406 0.025921
C43   C     C_R   0.389076 0.287556 0.961622 -0.243914
C44   C     C_R   0.468131 0.353902 0.025681 -0.115391
H1    H     H_    0.051652 0.359632 0.636683 0.145304
H2    H     H_    0.714105 0.072390 0.581070 0.123091
H3    H     H_    0.826000 0.933368 0.657880 0.154317
H4    H     H_    0.061071 0.463097 0.327723 0.144033
H5    H     H_    0.127623 0.677894 0.533383 0.159763
H6    H     H_    0.939313 0.537702 0.670980 0.140213
H7    H     H_    0.625157 0.763678 0.200831 0.161511
H8    H     H_    0.766525 0.721151 0.853935 0.155485
H9    H     H_    0.689586 0.407569 0.293526 0.115206
H10   H     H_    0.188744 0.231517 0.823576 0.031955
H11   H     H_    0.639937 0.255428 0.600397 0.074714
H12   H     H_    0.449803 0.336444 0.109224 0.157328
H13   H     H_    0.343075 0.826851 0.277759 0.197495
H14   H     H_    0.493778 0.801899 0.321753 0.238142
H15   H     H_    0.338469 0.698700 0.349895 0.255517
H16   H     H_    0.034356 0.706865 0.298192 0.241051
H17   H     H_    0.872385 0.625636 0.282292 0.243148
H18   H     H_    0.901280 0.722576 0.375573 0.255000
H19   H     H_    0.675384 0.856513 0.938027 0.256818
H20   H     H_    0.731097 0.892700 0.065351 0.246547
H21   H     H_    0.837837 0.844916 0.986060 0.237076
H22   H     H_    0.316322 0.220267 0.998029 0.143328
H23   H     H_    0.707328 0.570065 0.753859 0.157255
H24   H     H_    0.276857 0.250050 0.341938 0.132092
H25   H     H_    0.202860 0.872667 0.391080 0.158394
H26   H     H_    0.183686 0.055699 0.342554 0.141937
H27   H     H_    0.734288 0.742670 0.638498 0.130344
H28   H     H_    0.872469 0.322948 0.465646 0.146850
N1    N     N_R   0.432930 0.222190 0.444670 -0.137906
N2    N     N_R   0.566370 0.776980 0.554790 -0.117956
O1    O     O_R   0.467970 0.366730 0.627150 -0.554887
O2    O     O_2   0.306490 0.207597 0.716901 -0.501201
O3    O     O_2   0.536989 0.130376 0.689715 -0.535926
O4    O     O_R   0.510820 0.544830 0.662520 -0.612218
O5    O     O_R   0.664630 0.410960 0.482340 -0.682423
O6    O     O_R   0.707470 0.589060 0.517710 -0.626354
O7    O     O_R   0.489180 0.455170 0.337480 -0.635567
O8    O     O_R   0.532030 0.633270 0.372850 -0.613653
O9    O     O_R   0.292530 0.410940 0.482290 -0.598054
O10   O     O_R   0.335370 0.589040 0.517660 -0.616020
O11   O     O_2   0.701715 0.347159 0.162263 -0.576142
Zn1   Zn    Zn3+2 0.471390 0.381080 0.476380 0.949210
Zn2   Zn    Zn3+2 0.528610 0.618920 0.523620 0.925335

loop_
_geom_bond_atom_site_label_1
_geom_bond_atom_site_label_2
_ccdc_geom_bond_type
O4    Zn2   S    
C14   H27   S    
C1    C11   S    
O10   Zn2   S    
C15   H3    S    
C12   H5    S    
C7    C8    A    
C39   H20   S    
C12   C23   S    
C23   C29   S    
C28   C29   S    
C7    H8    S    
C4    O6    A    
O6    Zn2   S    
C36   O3    D    
C5    C6    A    
C13   H26   S    
O8    Zn2   S    
C26   N1    A    
C11   C42   A    
C10   C40   A    
C18   C19   A    
C35   C42   S    
C33   O11   D    
C2    C44   A    
C32   C38   S    
N2    Zn2   S    
C22   H25   S    
C25   N1    A    
C37   H14   S    
C38   H17   S    
C28   C34   S    
C21   C22   A    
C12   C32   S    
C35   H10   S    
C9    C33   S    
C1    O4    A    
C39   H21   S    
C28   H28   S    
C10   H7    S    
C24   C37   S    
C28   C31   S    
C33   H9    S    
C4    C34   S    
C35   O2    D    
C1    O1    A    
C17   H2    S    
C4    O5    A    
C3    C8    A    
C39   C40   S    
C23   H6    S    
C29   H1    S    
C32   C34   S    
C43   C44   A    
C5    C9    A    
C29   C30   S    
C44   H12   S    
O1    Zn1   S    
C31   C32   S    
C23   C34   S    
C16   O8    A    
C17   C18   A    
C13   C21   A    
C37   H15   S    
C38   H16   S    
C31   H4    S    
C6    C40   A    
C13   C26   A    
C2    C5    A    
C42   C43   A    
C14   N2    A    
C15   C17   A    
C27   O10   A    
C12   C30   S    
C19   N2    A    
O7    Zn1   S    
C18   C20   A    
C6    C7    A    
C39   H19   S    
C9    C41   A    
C26   H24   S    
C27   O9    A    
C2    C3    A    
C36   H11   S    
C30   C31   S    
C43   H22   S    
C10   C41   A    
C16   O7    A    
C19   C24   A    
C22   C24   A    
N1    Zn1   S    
C3    C11   A    
C25   C36   S    
O9    Zn1   S    
C20   C21   A    
C8    H23   S    
C20   C25   A    
C14   C15   A    
C38   H18   S    
C16   C41   S    
O5    Zn1   S    
C37   H13   S    
C27   C30   S    
