data_mof_unit_61342.cif
_audit_creation_date              2012-12-10T18:13:23-0500
_audit_creation_method            fapswitch 2.2
_symmetry_space_group_name_H-M    P1
_symmetry_Int_Tables_number       1
_space_group_crystal_system       triclinic
_cell_length_a                    36.274345
_cell_length_b                    29.171541
_cell_length_c                    21.54588
_cell_angle_alpha                 90.301959
_cell_angle_beta                  126.467787
_cell_angle_gamma                 89.863469
_cell_volume                      18334.8035297

loop_
_atom_site_label
_atom_site_type_symbol
_atom_type_description
_atom_site_fract_x
_atom_site_fract_y
_atom_site_fract_z
_atom_type_partial_charge
C1    C     C_R   0.913237 0.999981 0.913303 0.893958
C2    C     C_R   0.086758 0.000019 0.086705 0.917033
C3    C     C_R   0.413240 0.499980 0.913245 0.905838
C4    C     C_R   0.586760 0.500019 0.086755 0.905604
C5    C     C_1   0.820357 0.999939 0.820414 0.000373
C6    C     C_1   0.179639 0.000058 0.179581 0.006427
C7    C     C_1   0.320359 0.499941 0.820386 0.003629
C8    C     C_1   0.679641 0.500059 0.179614 0.002982
C9    C     C_1   0.770530 0.999945 0.770582 0.005839
C10   C     C_1   0.229467 0.000052 0.229411 0.009973
C11   C     C_1   0.270531 0.499947 0.770563 0.008026
C12   C     C_1   0.729469 0.500053 0.229436 0.007274
C13   C     C_1   0.728321 0.999956 0.728368 0.005878
C14   C     C_1   0.271676 0.000042 0.271626 0.008576
C15   C     C_1   0.228322 0.499957 0.728356 0.007306
C16   C     C_1   0.771678 0.500042 0.271644 0.006504
C17   C     C_1   0.678493 0.999973 0.678530 0.004109
C18   C     C_1   0.321506 0.000026 0.321466 0.006284
C19   C     C_1   0.178493 0.499973 0.678525 0.005220
C20   C     C_1   0.821506 0.500027 0.321475 0.004432
C21   C     C_1   0.636283 0.999986 0.636309 -0.199774
C22   C     C_1   0.363716 0.000013 0.363689 -0.198251
C23   C     C_1   0.136283 0.499987 0.636308 -0.199176
C24   C     C_1   0.863717 0.500013 0.363692 -0.199855
C25   C     C_R   0.999980 0.913253 0.500013 0.892387
C26   C     C_R   0.000019 0.086744 0.499985 0.915216
C27   C     C_R   0.499981 0.413255 0.500049 0.904231
C28   C     C_R   0.500019 0.586745 0.499950 0.904436
C29   C     C_R   0.000113 0.000058 0.622725 0.918991
C30   C     C_R   0.000021 0.997070 0.377605 0.882564
C31   C     C_R   0.499979 0.502897 0.622398 0.884754
C32   C     C_R   0.500021 0.497071 0.377605 0.884883
C33   C     C_R   0.500000 0.085615 0.500145 0.877360
C34   C     C_R   0.500000 0.914385 0.499855 0.877018
C35   C     C_R   0.000000 0.585614 0.500144 0.877075
C36   C     C_R   1.000000 0.414385 0.499855 0.877723
C37   C     C_R   0.585604 1.000000 0.585609 0.876976
C38   C     C_R   0.414395 1.000000 0.414390 0.877379
C39   C     C_R   0.085604 0.500000 0.585609 0.877541
C40   C     C_R   0.914395 0.500000 0.414390 0.877187
C41   C     C_1   0.999947 0.862580 0.500089 -0.220391
C42   C     C_1   0.000054 0.137414 0.499863 -0.201750
C43   C     C_1   0.499946 0.362585 0.500166 -0.209859
C44   C     C_1   0.500054 0.637415 0.499833 -0.210354
C45   C     C_R   0.995362 0.999899 0.873212 0.891389
C46   C     C_R   0.998905 0.000190 0.121411 0.894851
C47   C     C_R   0.501128 0.499810 0.878624 0.894030
C48   C     C_R   0.498903 0.500190 0.121408 0.893999
C49   C     C_1   0.999940 0.820372 0.500185 0.001073
C50   C     C_1   0.000062 0.179621 0.499746 0.018672
C51   C     C_1   0.499938 0.320377 0.500278 0.014704
C52   C     C_1   0.500062 0.679623 0.499721 0.013982
C53   C     C_1   0.999946 0.770544 0.500307 0.006163
C54   C     C_1   0.000056 0.229450 0.499627 0.015487
C55   C     C_1   0.499944 0.270549 0.500392 0.013173
C56   C     C_1   0.500056 0.729451 0.499608 0.012340
C57   C     C_1   0.499955 0.228339 0.500456 0.010371
C58   C     C_1   0.500045 0.771661 0.499544 0.009494
C59   C     C_1   0.999957 0.728335 0.500392 0.005875
C60   C     C_1   0.000044 0.271660 0.499557 0.011720
C61   C     C_1   0.499972 0.178508 0.500475 0.006819
C62   C     C_1   0.500028 0.821492 0.499525 0.005975
C63   C     C_1   0.999974 0.678506 0.500442 0.003642
C64   C     C_1   0.000028 0.321491 0.499532 0.007485
C65   C     C_1   0.499986 0.136296 0.500405 -0.198221
C66   C     C_1   0.500014 0.863703 0.499595 -0.198936
C67   C     C_1   0.999987 0.636295 0.500394 -0.200488
C68   C     C_1   0.000014 0.363703 0.499597 -0.198015
C69   C     C_3   0.974592 0.955452 0.758766 -0.420325
C70   C     C_3   0.045474 0.981239 0.258403 -0.406505
C71   C     C_3   0.959499 0.969730 0.173327 -0.430549
C72   C     C_3   0.970862 0.042126 0.755720 -0.399022
C73   C     C_3   0.454468 0.518553 0.741550 -0.405773
C74   C     C_3   0.545479 0.481255 0.258407 -0.405742
C75   C     C_3   0.459507 0.469716 0.173337 -0.430090
C76   C     C_3   0.540394 0.530435 0.826548 -0.430408
C77   C     C_3   0.974485 0.956625 0.687528 -0.513197
C78   C     C_3   0.046392 0.980889 0.330471 -0.413336
C79   C     C_3   0.961538 0.966738 0.246292 -0.489030
C80   C     C_3   0.973269 0.042594 0.687021 -0.443787
C81   C     C_3   0.453532 0.518871 0.669463 -0.413834
C82   C     C_3   0.546397 0.480903 0.330475 -0.414111
C83   C     C_3   0.461547 0.466728 0.246302 -0.489153
C84   C     C_3   0.538319 0.533422 0.753550 -0.489525
C85   C     C_3   0.047569 0.002105 0.837198 -0.499318
C86   C     C_3   0.992497 0.049830 0.208458 -0.377899
C87   C     C_3   0.507741 0.450193 0.791795 -0.378190
C88   C     C_3   0.492478 0.549827 0.208438 -0.378403
C89   C     C_3   0.996948 0.999828 0.807341 0.083400
C90   C     C_3   0.999049 0.000386 0.189071 0.044531
C91   C     C_3   0.500979 0.499611 0.810960 0.044685
C92   C     C_3   0.499047 0.500386 0.189069 0.044631
C93   C     C_3   0.000152 0.000018 0.690483 0.089627
C94   C     C_3   0.999905 0.998853 0.309978 0.042410
C95   C     C_3   0.500101 0.501125 0.690031 0.041583
C96   C     C_3   0.499905 0.498853 0.309978 0.041618
C97   C     C_3   0.050324 0.001552 0.768018 0.840839
C98   C     C_3   0.992353 0.049484 0.280208 0.811596
C99   C     C_3   0.507895 0.450532 0.720054 0.812076
C100  C     C_3   0.492338 0.549483 0.280193 0.812179
C101  C     C_1   0.862565 0.999947 0.862626 -0.227816
C102  C     C_1   0.137431 0.000052 0.137374 -0.228455
C103  C     C_1   0.362567 0.499947 0.862587 -0.227938
C104  C     C_1   0.637433 0.500053 0.137413 -0.228401
H1    H     H_    0.993914 0.924721 0.793766 0.191967
H2    H     H_    0.074191 0.002675 0.269422 0.171889
H3    H     H_    0.925896 0.984218 0.125170 0.163007
H4    H     H_    0.986084 0.074497 0.789236 0.198603
H5    H     H_    0.425845 0.497003 0.730652 0.172000
H6    H     H_    0.574188 0.502702 0.269419 0.171669
H7    H     H_    0.425899 0.484192 0.125173 0.162875
H8    H     H_    0.574062 0.516089 0.874752 0.162726
H9    H     H_    0.938789 0.952140 0.740265 0.179241
H10   H     H_    0.050715 0.945725 0.245840 0.189687
H11   H     H_    0.962012 0.934544 0.155869 0.203443
H12   H     H_    0.934389 0.041055 0.734382 0.168281
H13   H     H_    0.449084 0.554050 0.753951 0.189733
H14   H     H_    0.550732 0.445744 0.245854 0.189892
H15   H     H_    0.462033 0.434531 0.155894 0.203899
H16   H     H_    0.537739 0.565610 0.843866 0.203632
H17   H     H_    0.938344 0.957042 0.634714 0.208924
H18   H     H_    0.052870 0.945364 0.353450 0.170431
H19   H     H_    0.968759 0.930713 0.267293 0.185197
H20   H     H_    0.937782 0.042635 0.632461 0.187385
H21   H     H_    0.446875 0.554357 0.646286 0.170388
H22   H     H_    0.552884 0.445379 0.353461 0.170325
H23   H     H_    0.468777 0.430705 0.267315 0.185182
H24   H     H_    0.530920 0.569412 0.732377 0.184900
H25   H     H_    0.990219 0.924851 0.684136 0.170810
H26   H     H_    0.075405 0.002503 0.376114 0.220953
H27   H     H_    0.927425 0.975463 0.231928 0.194600
H28   H     H_    0.990050 0.074729 0.687879 0.201850
H29   H     H_    0.424623 0.497107 0.623948 0.220800
H30   H     H_    0.575404 0.502524 0.376113 0.220605
H31   H     H_    0.427431 0.475444 0.231934 0.194841
H32   H     H_    0.572469 0.524863 0.767931 0.194624
H33   H     H_    0.067106 0.972948 0.876819 0.156837
H34   H     H_    0.020665 0.072240 0.219432 0.201504
H35   H     H_    0.960054 0.064662 0.157749 0.147855
H36   H     H_    0.063649 0.033891 0.872226 0.179070
H37   H     H_    0.479665 0.427666 0.780903 0.201644
H38   H     H_    0.520636 0.572249 0.219400 0.201204
H39   H     H_    0.460028 0.564647 0.157725 0.147613
H40   H     H_    0.540244 0.435498 0.842577 0.147563
O1    O     O_R   0.936850 0.964330 0.936870 -0.604412
O2    O     O_R   0.063150 0.035670 0.063130 -0.594272
O3    O     O_R   0.063150 0.964330 0.063130 -0.598001
O4    O     O_R   0.936850 0.035670 0.936870 -0.601846
O5    O     O_R   0.436850 0.464330 0.936870 -0.598451
O6    O     O_R   0.563150 0.535670 0.063130 -0.599081
O7    O     O_R   0.563150 0.464330 0.063130 -0.599431
O8    O     O_R   0.436850 0.535670 0.936870 -0.599688
O9    O     O_R   0.999990 0.964330 0.907390 -0.622903
O10   O     O_R   0.000010 0.035670 0.092610 -0.624928
O11   O     O_R   0.000010 0.964330 0.092610 -0.622897
O12   O     O_R   0.999990 0.035670 0.907390 -0.622830
O13   O     O_R   0.499990 0.464330 0.907390 -0.625076
O14   O     O_R   0.500010 0.535670 0.092610 -0.625315
O15   O     O_R   0.500010 0.464330 0.092610 -0.622540
O16   O     O_R   0.499990 0.535670 0.907390 -0.622747
O17   O     O_R   0.964320 0.936860 0.464320 -0.609340
O18   O     O_R   0.035680 0.063140 0.535680 -0.595372
O19   O     O_R   0.035680 0.936860 0.535680 -0.596895
O20   O     O_R   0.964320 0.063140 0.464320 -0.591150
O21   O     O_R   0.464320 0.436860 0.464320 -0.606637
O22   O     O_R   0.535680 0.563140 0.535680 -0.607121
O23   O     O_R   0.535680 0.436860 0.535680 -0.588033
O24   O     O_R   0.464320 0.563140 0.464320 -0.587887
O25   O     O_R   0.964330 1.000000 0.556950 -0.649709
O26   O     O_R   0.035670 0.000000 0.443050 -0.629854
O27   O     O_R   0.464330 0.500000 0.556950 -0.628165
O28   O     O_R   0.535670 0.500000 0.443050 -0.628256
O29   O     O_R   0.035630 1.000000 0.628230 -0.543085
O30   O     O_R   0.964370 1.000000 0.371770 -0.598508
O31   O     O_R   0.535630 0.500000 0.628230 -0.597386
O32   O     O_R   0.464370 0.500000 0.371770 -0.597390
O33   O     O_R   0.499940 0.063120 0.447680 -0.592183
O34   O     O_R   0.500060 0.936880 0.552320 -0.592445
O35   O     O_R   0.500060 0.063120 0.552320 -0.590372
O36   O     O_R   0.499940 0.936880 0.447680 -0.590547
O37   O     O_R   0.999940 0.563120 0.447680 -0.592104
O38   O     O_R   0.000060 0.436880 0.552320 -0.591899
O39   O     O_R   0.000060 0.563120 0.552320 -0.591777
O40   O     O_R   0.999940 0.436880 0.447680 -0.590464
O41   O     O_R   0.563110 0.000000 0.510830 -0.592041
O42   O     O_R   0.436890 1.000000 0.489170 -0.591629
O43   O     O_R   0.063110 0.500000 0.510830 -0.591500
O44   O     O_R   0.936890 0.500000 0.489170 -0.591981
O45   O     O_R   0.563120 1.000000 0.615390 -0.591402
O46   O     O_R   0.436880 1.000000 0.384610 -0.590788
O47   O     O_R   0.063120 0.500000 0.615390 -0.591508
O48   O     O_R   0.936880 0.500000 0.384610 -0.591422
Zn1   Zn    Zn3+2 1.000000 0.952370 0.000000 0.947524
Zn2   Zn    Zn3+2 0.000000 0.047630 0.000000 0.958707
Zn3   Zn    Zn3+2 0.500000 0.452370 0.000000 0.956236
Zn4   Zn    Zn3+2 0.500000 0.547630 0.000000 0.954924
Zn5   Zn    Zn3+2 0.952370 0.000000 0.452390 0.968196
Zn6   Zn    Zn3+2 0.047630 0.000000 0.547610 1.016358
Zn7   Zn    Zn3+2 0.452370 0.500000 0.452390 0.978854
Zn8   Zn    Zn3+2 0.547630 0.500000 0.547610 0.978120
Zn9   Zn    Zn3+2 0.499970 1.000000 0.430170 0.973641
Zn10  Zn    Zn3+2 0.500030 0.000000 0.569830 0.973370
Zn11  Zn    Zn3+2 0.999970 0.500000 0.430170 0.972926
Zn12  Zn    Zn3+2 0.000030 0.500000 0.569830 0.971522
O49   O     O_3   0.076345 0.963702 0.772797 -0.771443
H41   H     H_    0.065091 0.935535 0.782119 0.308970
O50   O     O_3   0.028778 0.077481 0.337356 -0.769415
H42   H     H_    0.023416 0.084877 0.376430 0.348958
O51   O     O_3   0.950791 0.067787 0.261774 -0.774701
H43   H     H_    0.924761 0.052106 0.214978 0.314739
O52   O     O_3   0.072038 0.042056 0.769783 -0.770925
H44   H     H_    0.104725 0.040143 0.815132 0.352733
O53   O     O_3   0.471610 0.422358 0.663037 -0.769636
H45   H     H_    0.476997 0.415015 0.623979 0.349779
O54   O     O_3   0.528756 0.577489 0.337330 -0.770320
H46   H     H_    0.523397 0.584881 0.376408 0.349835
O55   O     O_3   0.450773 0.567775 0.261758 -0.774250
H47   H     H_    0.424746 0.552086 0.214971 0.314660
O56   O     O_3   0.549548 0.432427 0.738599 -0.773934
H48   H     H_    0.575499 0.448233 0.785324 0.314667

loop_
_geom_bond_atom_site_label_1
_geom_bond_atom_site_label_2
_ccdc_geom_bond_type
C84   H24   S    
C37   O45   A    
C100  O54   S    
C58   C62   S    
C80   H28   S    
O24   Zn7   S    
C71   H3    S    
C70   C78   S    
O22   Zn8   S    
C69   C77   S    
C14   C18   S    
C34   O36   A    
C48   C92   S    
C75   C83   S    
C76   C84   S    
C71   C79   S    
C53   C59   T    
C33   C65   S    
C31   O31   A    
O49   H41   S    
C70   H10   S    
C15   C19   S    
C46   O11   A    
C32   O32   A    
C69   H9    S    
C3    O8    A    
C50   C54   S    
C31   O27   A    
C23   C39   S    
O38   Zn12  S    
O39   Zn12  S    
C64   C68   T    
C85   C89   S    
C87   C91   S    
O21   Zn7   S    
C80   H20   S    
C81   C95   S    
C95   C99   S    
C33   O35   A    
C2    C102  S    
C35   O39   A    
C22   C38   S    
O43   Zn11  S    
O42   Zn10  S    
C28   C44   S    
C77   H25   S    
O41   Zn9   S    
C9    C13   T    
C30   O26   A    
O27   Zn7   S    
C52   C56   S    
C11   C15   T    
C41   C49   T    
C82   H22   S    
C88   C92   S    
O19   Zn6   S    
C25   O17   A    
C38   O46   A    
O7    Zn3   S    
O23   Zn8   S    
O3    Zn1   S    
C36   O40   A    
C87   H40   S    
O2    Zn2   S    
C18   C22   T    
C45   C89   S    
C99   O56   S    
C88   H39   S    
O1    Zn1   S    
C28   O22   A    
C35   O37   A    
O16   Zn4   S    
C39   O43   A    
C44   C52   T    
C32   O28   A    
C74   C92   S    
O40   Zn11  S    
C7    C103  T    
C76   H8    S    
C34   C66   S    
O37   Zn11  S    
C74   C82   S    
C74   H14   S    
C73   C81   S    
C98   O51   S    
C70   C90   S    
C4    C104  S    
C87   C99   S    
C47   O16   A    
C46   O10   A    
C48   O15   A    
C37   O41   A    
C3    O5    A    
C82   C96   S    
O8    Zn4   S    
C33   O33   A    
O50   H42   S    
C12   C16   T    
C73   H13   S    
C73   C91   S    
C79   C94   S    
O36   Zn9   S    
C70   H2    S    
C25   C41   S    
O56   H48   S    
C77   H17   S    
C62   C66   T    
C19   C23   T    
C54   C60   T    
C99   O53   S    
O55   H47   S    
O53   H45   S    
C48   O14   A    
C26   O18   A    
O14   Zn4   S    
C84   C95   S    
C82   H30   S    
C86   H34   S    
C7    C11   S    
O54   H46   S    
C63   C67   T    
C74   H6    S    
C30   O30   A    
O11   Zn1   S    
C27   C43   S    
C39   O47   A    
C78   H18   S    
O52   H44   S    
C40   O48   A    
O35   Zn10  S    
C35   C67   S    
C16   C20   S    
C79   H27   S    
C72   H4    S    
O51   H43   S    
O15   Zn3   S    
C71   H11   S    
C45   O12   A    
C76   H16   S    
C75   H7    S    
C87   H37   S    
C81   H29   S    
C8    C104  T    
C85   H36   S    
O6    Zn4   S    
C88   C100  S    
C36   O38   A    
C75   C92   S    
C42   C50   T    
C40   O44   A    
O12   Zn2   S    
C86   H35   S    
O4    Zn2   S    
C32   C96   S    
C27   O21   A    
C100  O55   S    
C1    C101  S    
C55   C57   T    
C86   C90   S    
O33   Zn9   S    
C98   O50   S    
C34   O34   A    
C45   O9    A    
C1    O1    A    
O32   Zn7   S    
C93   C97   S    
O26   Zn6   S    
O20   Zn5   S    
C26   C42   S    
O25   Zn5   S    
C78   C94   S    
C47   O13   A    
C85   H33   S    
C3    C103  S    
C88   H38   S    
C4    O7    A    
O18   Zn6   S    
C84   H32   S    
O30   Zn5   S    
C69   H1    S    
C97   O52   S    
C81   H21   S    
O29   Zn6   S    
O13   Zn3   S    
C47   C91   S    
C83   H31   S    
C29   O29   A    
C6    C10   S    
C36   C68   S    
O46   Zn9   S    
C57   C61   S    
C46   C90   S    
O17   Zn5   S    
O45   Zn10  S    
C2    O2    A    
C4    O6    A    
C72   H12   S    
C69   C89   S    
C59   C63   S    
C5    C101  T    
C13   C17   S    
C60   C64   S    
O44   Zn12  S    
C97   O49   S    
O34   Zn10  S    
C2    O3    A    
C30   C94   S    
C75   H15   S    
C38   O42   A    
O5    Zn3   S    
C29   C93   S    
C72   C89   S    
C43   C51   T    
C71   C90   S    
C79   H19   S    
C25   O19   A    
C49   C53   S    
C83   C96   S    
C96   C100  S    
C77   C93   S    
C24   C40   S    
O48   Zn11  S    
C56   C58   T    
O28   Zn8   S    
C51   C55   S    
C73   H5    S    
C6    C102  T    
C78   H26   S    
C86   C98   S    
C83   H23   S    
O31   Zn8   S    
C26   O20   A    
O9    Zn1   S    
C85   C97   S    
C31   C95   S    
C28   O24   A    
C76   C91   S    
C10   C14   T    
O10   Zn2   S    
C61   C65   T    
C21   C37   S    
C72   C80   S    
O47   Zn12  S    
C94   C98   S    
C1    O4    A    
C5    C9    S    
C29   O25   A    
C80   C93   S    
C20   C24   T    
C8    C12   S    
C27   O23   A    
C17   C21   T    
