data_mof_unit_33230.cif
_audit_creation_date              2012-12-11T15:16:48-0500
_audit_creation_method            fapswitch 2.2
_symmetry_space_group_name_H-M    P1
_symmetry_Int_Tables_number       1
_space_group_crystal_system       triclinic
_cell_length_a                    25.120677
_cell_length_b                    7.237206
_cell_length_c                    21.927866
_cell_angle_alpha                 90.000687
_cell_angle_beta                  110.250047
_cell_angle_gamma                 90.0003
_cell_volume                      3740.15782828

loop_
_atom_site_label
_atom_site_type_symbol
_atom_type_description
_atom_site_fract_x
_atom_site_fract_y
_atom_site_fract_z
_atom_type_partial_charge
O1    O     O_R   0.554350 0.505270 0.581390 -0.528959
O2    O     O_R   0.445650 0.005270 0.418610 -0.528958
O3    O     O_R   0.553380 0.177580 0.454800 -0.538464
O4    O     O_R   0.446620 0.677580 0.545200 -0.538463
C1    C     C_R   0.565501 0.344669 0.437962 0.698636
C2    C     C_R   0.434499 0.844669 0.562038 0.698636
O5    O     O_R   0.560970 0.175640 0.583140 -0.534288
O6    O     O_R   0.439030 0.675640 0.416860 -0.534290
O7    O     O_R   0.453290 0.004120 0.547860 -0.540782
O8    O     O_R   0.546710 0.504120 0.452140 -0.540781
C3    C     C_R   0.576039 0.343867 0.607563 0.696512
C4    C     C_R   0.423961 0.843864 0.392437 0.696510
O9    O     O_3   0.464660 0.338800 0.488280 -0.375036
O10   O     O_3   0.535340 0.838800 0.511720 -0.375034
V1    V     V_3+5 0.506560 0.064420 0.502170 1.437465
V2    V     V_3+5 0.493440 0.564420 0.497830 1.437466
C5    C     C_R   0.148554 0.984998 0.288688 -0.156629
C6    C     C_R   0.851451 0.484886 0.711308 -0.156626
H1    H     H_    0.063223 0.012560 0.222318 0.112548
H2    H     H_    0.936784 0.512442 0.777679 0.112546
H3    H     H_    0.234179 0.984138 0.400845 0.128102
H4    H     H_    0.765829 0.483977 0.599150 0.128102
H5    H     H_    0.136294 0.015813 0.330369 0.121477
H6    H     H_    0.863714 0.515647 0.669625 0.121477
C7    C     C_R   0.120840 0.942673 0.172371 -0.039221
C8    C     C_R   0.879160 0.442658 0.827629 -0.039216
C9    C     C_R   0.396702 0.810883 0.273952 -0.184789
C10   C     C_R   0.603294 0.310963 0.726050 -0.184798
C11   C     C_R   0.357305 0.806778 0.211116 0.341388
C12   C     C_R   0.642689 0.306888 0.788887 0.341390
C13   C     C_R   0.299971 0.839611 0.199913 -0.195153
C14   C     C_R   0.700025 0.339691 0.800089 -0.195157
C15   C     C_R   0.280364 0.878071 0.251779 0.026950
C16   C     C_R   0.719635 0.378088 0.748222 0.026948
C17   C     C_R   0.321374 0.883951 0.316325 0.068216
C18   C     C_R   0.678627 0.383933 0.683674 0.068216
C19   C     C_R   0.221502 0.910464 0.241739 0.094636
C20   C     C_R   0.778499 0.410453 0.758261 0.094637
C21   C     C_R   0.205516 0.949778 0.296554 0.136087
C22   C     C_R   0.794488 0.449701 0.703444 0.136085
C23   C     C_R   0.246360 0.954609 0.359008 -0.197724
C24   C     C_R   0.753646 0.454499 0.640988 -0.197723
C25   C     C_R   0.303244 0.921866 0.368844 -0.170637
C26   C     C_R   0.696760 0.421786 0.631153 -0.170630
C27   C     C_R   0.177736 0.906185 0.179459 -0.202862
C28   C     C_R   0.822262 0.406209 0.820542 -0.202861
C29   C     C_R   0.106778 0.982723 0.227197 -0.163375
C30   C     C_R   0.893227 0.482638 0.772801 -0.163378
C31   C     C_R   0.379725 0.849681 0.326925 -0.134762
C32   C     C_R   0.620274 0.349696 0.673075 -0.134761
H7    H     H_    0.186353 0.877582 0.135552 0.105692
H8    H     H_    0.813643 0.377656 0.864451 0.105688
H9    H     H_    0.440947 0.783137 0.281564 0.152374
H10   H     H_    0.559047 0.283245 0.718439 0.152375
H11   H     H_    0.271958 0.833720 0.150079 0.148391
H12   H     H_    0.728037 0.333827 0.849924 0.148392
H13   H     H_    0.333051 0.926886 0.418207 0.106879
H14   H     H_    0.666954 0.426779 0.581789 0.106867
C33   C     C_R   0.124452 0.764426 0.886703 -0.229478
C34   C     C_R   0.875547 0.264427 0.113295 -0.229478
H15   H     H_    0.112039 0.637498 0.904279 0.151469
H16   H     H_    0.887959 0.137498 0.095718 0.151470
C35   C     C_R   0.160383 0.752598 0.850183 0.658320
C36   C     C_R   0.839616 0.252598 0.149815 0.658319
C37   C     C_R   0.177691 0.913547 0.825827 -0.117221
C38   C     C_R   0.822309 0.413548 0.174173 -0.117222
C39   C     C_R   0.158110 0.085503 0.839641 -0.167296
C40   C     C_R   0.841891 0.585504 0.160360 -0.167294
H17   H     H_    0.170406 0.212309 0.821962 0.232061
H18   H     H_    0.829596 0.712311 0.178041 0.232058
C41   C     C_R   0.122380 0.096925 0.876444 -0.138228
C42   C     C_R   0.877621 0.596926 0.123557 -0.138227
H19   H     H_    0.108194 0.231964 0.885654 0.157755
H20   H     H_    0.891808 0.731966 0.114348 0.157755
C43   C     C_R   0.104839 0.936412 0.900354 -0.144397
C44   C     C_R   0.895161 0.436413 0.099646 -0.144398
N1    N     N_R   0.228470 0.059947 0.759398 -0.254395
N2    N     N_R   0.771529 0.559948 0.240601 -0.254395
N3    N     N_R   0.262795 0.053205 0.724720 -0.216853
N4    N     N_R   0.737204 0.553206 0.275279 -0.216853
C45   C     C_R   0.286382 0.891214 0.715707 0.531198
C46   C     C_R   0.713618 0.391213 0.284293 0.531200
N5    N     N_R   0.273129 0.735311 0.741951 -0.232507
N6    N     N_R   0.726872 0.235310 0.258050 -0.232510
N7    N     N_R   0.238732 0.742003 0.776591 -0.161207
N8    N     N_R   0.761269 0.242003 0.223410 -0.161210
C47   C     C_R   0.215760 0.904603 0.786409 0.547962
C48   C     C_R   0.784240 0.404604 0.213590 0.547963
C49   C     C_R   0.326985 0.720169 0.642630 -0.128435
C50   C     C_R   0.673016 0.220170 0.357370 -0.128435
H21   H     H_    0.300573 0.603018 0.643899 0.176110
H22   H     H_    0.699427 0.103021 0.356101 0.176110
C51   C     C_R   0.362438 0.706513 0.605538 -0.137299
C52   C     C_R   0.637562 0.206514 0.394462 -0.137302
H23   H     H_    0.362665 0.579137 0.579708 0.139599
H24   H     H_    0.637336 0.079140 0.420292 0.139600
C53   C     C_R   0.396514 0.856253 0.601215 -0.101719
C54   C     C_R   0.603486 0.356251 0.398784 -0.101718
C55   C     C_R   0.394800 0.018699 0.635718 -0.175338
C56   C     C_R   0.605200 0.518696 0.364281 -0.175334
H25   H     H_    0.421578 0.134963 0.634519 0.152808
H26   H     H_    0.578421 0.634958 0.365481 0.152809
C57   C     C_R   0.360124 0.032729 0.673703 0.295070
C58   C     C_R   0.639875 0.532725 0.326297 0.295071
C59   C     C_R   0.324913 0.882928 0.677005 -0.041204
C60   C     C_R   0.675087 0.382928 0.322995 -0.041205
O11   O     O_R   0.953220 0.285790 0.047790 -0.538633
O12   O     O_R   0.046780 0.785790 0.952210 -0.538634
O13   O     O_R   0.939020 0.617570 0.916840 -0.533487
O14   O     O_R   0.060980 0.117570 0.083160 -0.533488
C61   C     C_R   0.923962 0.448746 0.892475 0.683824
C62   C     C_R   0.076038 0.948749 0.107525 0.683824
O15   O     O_R   0.946600 0.615450 0.045180 -0.540629
O16   O     O_R   0.053400 0.115450 0.954820 -0.540629
O17   O     O_R   0.054370 0.786770 0.081410 -0.532705
O18   O     O_R   0.945630 0.286770 0.918590 -0.532705
C63   C     C_R   0.934250 0.446870 0.061622 0.713554
C64   C     C_R   0.065750 0.946870 0.938378 0.713557
O19   O     O_3   0.035300 0.454160 0.011680 -0.373977
O20   O     O_3   0.964700 0.954160 0.988320 -0.373976
V3    V     V_3+5 0.993450 0.728620 0.997830 1.428966
V4    V     V_3+5 0.006550 0.228620 0.002170 1.428967
F1    F     F_    0.177653 0.582728 0.838605 -0.675288
F2    F     F_    0.822345 0.082729 0.161392 -0.675287
Br1   Br    Br    0.366923 0.255830 0.723351 -0.443314
Br2   Br    Br    0.633076 0.755824 0.276649 -0.443315
Br3   Br    Br    0.382016 0.753941 0.139754 -0.397759
Br4   Br    Br    0.617974 0.254138 0.860252 -0.397748

loop_
_geom_bond_atom_site_label_1
_geom_bond_atom_site_label_2
_ccdc_geom_bond_type
C55   C57   A    
C35   C37   A    
O17   V3    S    
C33   C43   A    
C9    C11   A    
C38   C40   A    
O1    C3    A    
O12   V3    S    
C42   C44   A    
O2    C4    A    
C2    O7    A    
C58   C60   A    
C4    C31   S    
O3    V1    S    
C21   C23   A    
O5    C3    A    
C5    H5    S    
O18   V4    S    
C6    H6    S    
C20   C22   A    
N6    N8    A    
O13   C61   A    
C38   C48   S    
N8    C48   A    
C52   C54   A    
C28   H8    S    
C56   C58   A    
C34   H16   S    
C5    C21   A    
C6    C22   A    
C7    C62   S    
C45   N5    A    
C10   C32   A    
C26   H14   S    
C37   C39   A    
C17   C31   A    
C13   C15   A    
C37   C47   S    
C61   O18   A    
C12   C14   A    
C17   C25   A    
C7    C29   A    
C16   C18   A    
C8    C30   A    
O6    V2    S    
N7    C47   A    
C51   H23   S    
C23   C25   A    
C43   C64   S    
C24   C26   A    
C53   C55   A    
C50   C52   A    
C12   Br4   S    
N1    N3    A    
C45   C59   S    
C33   H15   S    
C2    C53   S    
O12   C64   A    
C50   C60   A    
C42   H20   S    
C41   H19   S    
C10   H10   S    
O5    V1    S    
C36   F2    S    
C34   C44   A    
C15   C19   A    
C40   C42   A    
C39   H17   S    
C14   C16   A    
O4    V2    S    
C25   H13   S    
C51   C53   A    
C50   H22   S    
O6    C4    A    
C56   H26   S    
N2    N4    A    
C58   Br2   S    
C57   C59   A    
O1    V2    S    
O16   C64   A    
C52   H24   S    
O2    V1    S    
H2    C30   S    
O15   C63   A    
N4    C46   A    
N5    N7    A    
C46   N6    A    
C11   Br3   S    
H3    C23   S    
C18   C26   A    
O4    C2    A    
C49   H21   S    
C19   C27   A    
C7    C27   A    
C18   C32   A    
O20   V3    S    
N3    C45   A    
O19   V4    S    
N2    C48   A    
C55   H25   S    
C16   C20   A    
C5    C29   A    
O3    C1    A    
C6    C30   A    
C35   F1    S    
C9    H9    S    
O9    V2    S    
C33   C35   A    
C44   C63   S    
C34   C36   A    
C10   C12   A    
O7    V1    S    
C1    O8    A    
C19   C21   A    
C3    C32   S    
O8    V2    S    
O14   V4    S    
C41   C43   A    
O13   V3    S    
H4    C24   S    
C22   C24   A    
C15   C17   A    
C14   H12   S    
C39   C41   A    
C46   C60   S    
C49   C51   A    
C57   Br1   S    
C54   C56   A    
O14   C62   A    
C20   C28   A    
C8    C28   A    
O16   V4    S    
O15   V3    S    
C1    C54   S    
N1    C47   A    
C11   C13   A    
H1    C29   S    
C49   C59   A    
C40   H18   S    
C27   H7    S    
O10   V1    S    
O11   V4    S    
C13   H11   S    
C8    C61   S    
O11   C63   A    
C62   O17   A    
C9    C31   A    
C36   C38   A    
