data_mof_unit_32467.cif
_audit_creation_date              2012-12-10T17:10:26-0500
_audit_creation_method            fapswitch 2.2
_symmetry_space_group_name_H-M    P1
_symmetry_Int_Tables_number       1
_space_group_crystal_system       triclinic
_cell_length_a                    10.781605
_cell_length_b                    12.990739
_cell_length_c                    11.67624
_cell_angle_alpha                 99.834198
_cell_angle_beta                  93.585908
_cell_angle_gamma                 90.248974
_cell_volume                      1608.01328841

loop_
_atom_site_label
_atom_site_type_symbol
_atom_type_description
_atom_site_fract_x
_atom_site_fract_y
_atom_site_fract_z
_atom_type_partial_charge
C1    C     C_R   0.498352 0.299080 0.478653 0.781775
C2    C     C_R   0.501682 0.700919 0.521362 0.781635
C3    C     C_R   0.502447 0.814318 0.533728 -0.059031
C4    C     C_R   0.497562 0.185677 0.466334 -0.043288
C5    C     C_R   0.486945 0.015033 0.344369 -0.192384
C6    C     C_R   0.512956 0.984970 0.655720 -0.242406
C7    C     C_R   0.487900 0.123200 0.355408 -0.179195
C8    C     C_R   0.511597 0.876799 0.644681 -0.208041
C9    C     C_R   0.506447 0.139375 0.566252 -0.272126
C10   C     C_R   0.494259 0.860616 0.433798 -0.240462
C11   C     C_R   0.504907 0.031322 0.555952 0.173989
C12   C     C_R   0.495253 0.968675 0.444131 0.179973
C13   C     C_R   0.387694 0.398232 0.021617 -0.338766
C14   C     C_R   0.612325 0.601703 0.978353 -0.334164
C15   C     C_R   0.397881 0.408416 0.143850 0.095299
C16   C     C_R   0.602128 0.591560 0.856140 0.091593
C17   C     C_R   0.547719 0.544560 0.157138 0.031584
C18   C     C_R   0.452288 0.455404 0.842835 0.029691
C19   C     C_R   0.540583 0.537091 0.034273 0.064968
C20   C     C_R   0.459428 0.462848 0.965695 0.067354
C21   C     C_R   0.262867 0.500769 0.500568 0.800059
C22   C     C_R   0.737156 0.499650 0.499469 0.798050
C23   C     C_R   0.131400 0.319138 0.538521 -0.262037
C24   C     C_R   0.868560 0.680747 0.459495 -0.265774
C25   C     C_R   0.068004 0.230101 0.558506 0.560775
C26   C     C_R   0.932167 0.770633 0.443056 0.545884
C27   C     C_R   0.938677 0.229688 0.555416 -0.201874
C28   C     C_R   0.061414 0.770485 0.443328 -0.199148
C29   C     C_R   0.873078 0.318098 0.536607 -0.242019
C30   C     C_R   0.127048 0.682293 0.462944 -0.245735
C31   C     C_R   0.935884 0.409693 0.519387 0.072965
C32   C     C_R   0.064220 0.590896 0.480896 0.073342
C33   C     C_R   0.066462 0.410256 0.520527 -0.002455
C34   C     C_R   0.933572 0.590156 0.479233 -0.001272
C35   C     C_R   0.870869 0.499600 0.498612 -0.127370
C36   C     C_R   0.129175 0.500873 0.501370 -0.127390
Cu1   Cu    Cu3+1 0.509250 0.507730 0.615930 0.933347
Cu2   Cu    Cu3+1 0.490750 0.492270 0.384070 0.940801
H1    H     H_    0.111253 0.839218 0.428896 0.174694
H2    H     H_    0.888597 0.160461 0.567762 0.145367
H3    H     H_    0.231351 0.315326 0.535867 0.141398
H4    H     H_    0.768191 0.683376 0.456860 0.145199
H5    H     H_    0.518085 0.842209 0.722879 0.161588
H6    H     H_    0.481053 0.157787 0.277208 0.155076
N1    N     N_R   0.523180 0.519350 0.790130 -0.179300
N2    N     N_R   0.476820 0.480650 0.209870 -0.181885
O1    O     O_R   0.506570 0.354460 0.582000 -0.598593
O2    O     O_R   0.493430 0.645540 0.418000 -0.594469
O3    O     O_R   0.490940 0.341410 0.386200 -0.589323
O4    O     O_R   0.509060 0.658590 0.613800 -0.590683
O5    O     O_R   0.327470 0.506520 0.597900 -0.580783
O6    O     O_R   0.672530 0.493480 0.402100 -0.577860
O7    O     O_R   0.311840 0.493460 0.402100 -0.579440
O8    O     O_R   0.688160 0.506540 0.597900 -0.582358
H7    H     H_    0.324316 0.340211 0.971354 0.132775
H8    H     H_    0.675720 0.659702 0.028598 0.146906
O9    O     O_3   0.130720 0.139702 0.571115 -0.574594
C37   C     C_3   0.197826 0.155163 0.680450 -0.348111
H9    H     H_    0.135456 0.178144 0.752744 0.154385
H10   H     H_    0.273885 0.214080 0.685109 0.154971
H11   H     H_    0.241419 0.080337 0.692925 0.202274
O10   O     O_3   0.867389 0.856664 0.418966 -0.577007
C38   C     C_3   0.837281 0.917454 0.525211 -0.307669
H12   H     H_    0.922701 0.948682 0.578587 0.176287
H13   H     H_    0.779195 0.872562 0.575629 0.157645
H14   H     H_    0.782114 0.985006 0.505926 0.197332
H15   H     H_    0.772793 0.313319 0.534671 0.155055
H16   H     H_    0.227293 0.686773 0.463998 0.157195
H17   H     H_    0.487217 0.812814 0.347823 0.154729
H18   H     H_    0.514194 0.187175 0.652216 0.146928
H19   H     H_    0.479562 0.967788 0.258163 0.136058
H20   H     H_    0.520242 0.032226 0.741919 0.136588
H21   H     H_    0.389800 0.398750 0.789280 0.111744
H22   H     H_    0.610203 0.601227 0.210684 0.127361
H23   H     H_    0.657633 0.641856 0.814012 0.125016
H24   H     H_    0.342372 0.358128 0.185982 0.127352

loop_
_geom_bond_atom_site_label_1
_geom_bond_atom_site_label_2
_ccdc_geom_bond_type
C14   H8    S    
C38   H13   S    
C27   C29   A    
C16   H23   S    
C24   H4    S    
C19   C20   A    
C8    H5    S    
C22   O8    A    
C21   C36   S    
C6    H20   S    
C22   C35   S    
Cu1   Cu2   S    
C32   C36   A    
C24   C26   A    
Cu1   O5    S    
Cu2   O6    S    
C37   H10   S    
C33   C36   A    
C34   C35   A    
C2    O4    A    
C29   H15   S    
C23   C33   A    
C31   C33   A    
C14   C16   A    
Cu1   O1    S    
Cu2   O2    S    
C37   H11   S    
C15   H24   S    
C38   H14   S    
C25   O9    S    
C4    C7    A    
C5    C7    A    
C30   C32   A    
C17   N2    A    
C5    C12   A    
C3    C8    A    
C6    C11   A    
Cu2   O3    S    
C1    O1    A    
C6    C8    A    
C28   H1    S    
C2    O2    A    
C37   H9    S    
C24   C34   A    
C32   C34   A    
O10   C38   S    
C27   H2    S    
C7    H6    S    
C9    H18   S    
C9    C11   A    
C10   C12   A    
Cu1   O8    S    
C18   H21   S    
C13   C15   A    
C17   H22   S    
C31   C35   A    
Cu1   N1    S    
C18   N1    A    
C21   O5    A    
C22   O6    A    
C13   C20   A    
C14   C19   A    
C16   N1    A    
C11   C12   A    
C25   C27   A    
C26   C28   A    
C23   H3    S    
C1    C4    S    
C28   C30   A    
C2    C3    S    
C26   O10   S    
C5    H19   S    
C3    C10   A    
C21   O7    A    
Cu1   O4    S    
O9    C37   S    
Cu2   O7    S    
C17   C19   A    
C18   C20   A    
C23   C25   A    
Cu2   N2    S    
C38   H12   S    
C10   H17   S    
C29   C31   A    
C15   N2    A    
C4    C9    A    
C1    O3    A    
C30   H16   S    
C13   H7    S    
