data_mof_unit_51898.cif
_audit_creation_date              2012-12-10T17:31:11-0500
_audit_creation_method            fapswitch 2.2
_symmetry_space_group_name_H-M    P1
_symmetry_Int_Tables_number       1
_space_group_crystal_system       triclinic
_cell_length_a                    12.079037
_cell_length_b                    12.783316
_cell_length_c                    15.605054
_cell_angle_alpha                 86.647534
_cell_angle_beta                  116.340347
_cell_angle_gamma                 93.026764
_cell_volume                      2154.73537342

loop_
_atom_site_label
_atom_site_type_symbol
_atom_type_description
_atom_site_fract_x
_atom_site_fract_y
_atom_site_fract_z
_atom_type_partial_charge
C1    C     C_R   0.476025 0.299801 0.495354 0.920602
C2    C     C_R   0.521909 0.699962 0.500689 0.872496
C3    C     C_R   0.643344 0.479013 0.112699 -0.251373
C4    C     C_R   0.353335 0.508788 0.887049 -0.247902
C5    C     C_R   0.731055 0.466388 0.079440 0.234875
C6    C     C_R   0.264341 0.512996 0.920363 0.233702
C7    C     C_R   0.526286 0.810644 0.486617 -0.113295
C8    C     C_R   0.460458 0.187935 0.495605 -0.087968
C9    C     C_R   0.449958 0.035148 0.590242 0.184690
C10   C     C_R   0.446654 0.948924 0.365642 0.158721
C11   C     C_R   0.436734 0.141909 0.568859 -0.309270
C12   C     C_R   0.483839 0.846681 0.392085 -0.245499
C13   C     C_R   0.473091 0.127581 0.427978 0.078101
C14   C     C_R   0.532510 0.873866 0.558792 0.090447
C15   C     C_R   0.463366 0.017573 0.439069 0.003027
C16   C     C_R   0.481380 0.974189 0.531103 0.091787
C17   C     C_R   0.998087 0.598581 0.410087 -0.259213
C18   C     C_R   0.001221 0.400180 0.589007 -0.250019
C19   C     C_R   0.119155 0.591695 0.419000 0.341373
C20   C     C_R   0.880482 0.407650 0.580788 0.344992
C21   C     C_R   0.162073 0.456205 0.538699 -0.062133
C22   C     C_R   0.837390 0.542772 0.460438 -0.065459
C23   C     C_R   0.577146 0.496691 0.680215 0.858849
C24   C     C_R   0.423646 0.509191 0.319897 0.854952
C25   C     C_R   0.041020 0.463291 0.531925 0.048067
C26   C     C_R   0.958077 0.535092 0.466777 0.053334
C27   C     C_R   0.625142 0.495465 0.784045 -0.069079
C28   C     C_R   0.376517 0.517514 0.216139 -0.079709
C29   C     C_R   0.782897 0.461813 0.944663 -0.145468
C30   C     C_R   0.212503 0.515018 0.055296 -0.141079
C31   C     C_R   0.746169 0.468698 0.846267 -0.200424
C32   C     C_R   0.250452 0.513721 0.153783 -0.206514
C33   C     C_R   0.543084 0.517345 0.820474 -0.243173
C34   C     C_R   0.463064 0.524498 0.179804 -0.252989
C35   C     C_R   0.572724 0.499479 0.916935 0.069383
C36   C     C_R   0.428376 0.512819 0.083114 0.073630
C37   C     C_R   0.696850 0.476088 0.981093 0.098111
C38   C     C_R   0.300542 0.513955 0.018855 0.102484
C39   C     C_R   0.481333 0.504672 0.950252 0.017510
C40   C     C_R   0.518481 0.500596 0.049671 0.016220
H1    H     H_    0.935736 0.655131 0.359453 0.150040
H2    H     H_    0.064423 0.344935 0.640679 0.156415
H3    H     H_    0.558516 0.539144 0.228697 0.157456
H4    H     H_    0.455444 0.549193 0.771785 0.161393
H5    H     H_    0.181826 0.509803 0.180903 0.190156
H6    H     H_    0.811719 0.452838 0.819084 0.182255
H7    H     H_    0.877675 0.442551 0.991124 0.185678
H8    H     H_    0.114329 0.513877 0.008726 0.186257
H9    H     H_    0.675088 0.465897 0.188690 0.177414
H10   H     H_    0.318005 0.503616 0.810711 0.174424
H11   H     H_    0.473925 0.792368 0.338110 0.149014
H12   H     H_    0.418495 0.191578 0.614979 0.150594
H13   H     H_    0.774183 0.598909 0.410272 0.131455
H14   H     H_    0.225313 0.400073 0.588845 0.133149
N1    N     N_R   0.799120 0.480200 0.517090 -0.116203
N2    N     N_R   0.200880 0.519800 0.482910 -0.113403
O1    O     O_R   0.580150 0.341050 0.504560 -0.625944
O2    O     O_R   0.419850 0.658950 0.495440 -0.622178
O3    O     O_R   0.388090 0.353760 0.493600 -0.609386
O4    O     O_R   0.611910 0.646240 0.506400 -0.608464
O5    O     O_R   0.650890 0.490020 0.640860 -0.631059
O6    O     O_R   0.349110 0.509980 0.359140 -0.631219
O7    O     O_R   0.458830 0.502730 0.629890 -0.622170
O8    O     O_R   0.541170 0.497270 0.370110 -0.619252
Zn1   Zn    Zn3+2 0.628240 0.491510 0.507320 0.939859
Zn2   Zn    Zn3+2 0.371760 0.508490 0.492680 0.940477
Br1   Br    Br    0.896730 0.436515 0.173166 -0.604438
Br2   Br    Br    0.094470 0.519848 0.826639 -0.627137
C41   C     C_3   0.848652 0.334031 0.646721 -0.380447
C42   C     C_3   0.844660 0.219224 0.622605 -0.899115
H15   H     H_    0.782507 0.207828 0.546033 0.266270
H16   H     H_    0.938337 0.193401 0.638463 0.257531
H17   H     H_    0.809623 0.169000 0.666361 0.255775
H18   H     H_    0.919128 0.344179 0.721716 0.220685
H19   H     H_    0.760654 0.350110 0.645885 0.258930
C43   C     C_3   0.153951 0.670324 0.358543 -0.384034
C44   C     C_3   0.172723 0.779270 0.398883 -0.877234
H20   H     H_    0.083062 0.811085 0.387072 0.251249
H21   H     H_    0.234748 0.775407 0.476455 0.277680
H22   H     H_    0.216240 0.833412 0.364152 0.266510
H23   H     H_    0.237198 0.650422 0.353048 0.257312
H24   H     H_    0.079507 0.672355 0.283850 0.200950
C45   C     C_3   0.611884 0.838135 0.662820 -0.403386
C46   C     C_3   0.720488 0.914783 0.713640 -0.844249
H25   H     H_    0.779306 0.922560 0.675334 0.266566
H26   H     H_    0.688789 0.993520 0.717115 0.249241
H27   H     H_    0.777515 0.884630 0.787887 0.256476
H28   H     H_    0.557195 0.821966 0.703142 0.207991
H29   H     H_    0.654273 0.761846 0.667005 0.206786
C47   C     C_3   0.523599 0.178370 0.360382 -0.423482
C48   C     C_3   0.434735 0.252833 0.282306 -0.804716
H30   H     H_    0.368521 0.286719 0.303711 0.254246
H31   H     H_    0.489539 0.317214 0.267227 0.258111
H32   H     H_    0.381817 0.213448 0.213873 0.238717
H33   H     H_    0.610157 0.222781 0.403079 0.227532
H34   H     H_    0.554931 0.119854 0.326960 0.200758
C49   C     C_3   0.421250 0.992553 0.671695 -0.401263
C50   C     C_3   0.317892 0.908492 0.639712 -0.856021
H35   H     H_    0.236095 0.936925 0.575192 0.267440
H36   H     H_    0.349181 0.835419 0.623962 0.251462
H37   H     H_    0.290016 0.889847 0.697929 0.257259
H38   H     H_    0.504679 0.965289 0.734476 0.210447
H39   H     H_    0.388911 0.056228 0.699913 0.202820
C51   C     C_3   0.379134 0.978359 0.259320 -0.415378
C52   C     C_3   0.268546 0.905548 0.202791 -0.857117
H40   H     H_    0.294583 0.822508 0.209812 0.257484
H41   H     H_    0.194834 0.912696 0.225885 0.261357
H42   H     H_    0.229563 0.929670 0.125697 0.256467
H43   H     H_    0.339108 0.056057 0.249012 0.242054
H44   H     H_    0.445023 0.979423 0.227289 0.208360

loop_
_geom_bond_atom_site_label_1
_geom_bond_atom_site_label_2
_ccdc_geom_bond_type
C19   N2    A    
C30   C32   A    
C8    C13   A    
C5    C37   A    
C13   C47   S    
C1    C8    S    
C32   H5    S    
C2    C7    S    
C46   H27   S    
C5    Br1   S    
C49   C50   S    
C3    H9    S    
C47   H33   S    
C44   H20   S    
C27   C33   A    
C52   H41   S    
C29   H7    S    
C17   C26   A    
C30   H8    S    
C19   C43   S    
C35   C37   A    
C9    C16   A    
C46   H26   S    
C10   C15   A    
C1    O3    A    
O3    Zn2   S    
C51   H43   S    
C2    O4    A    
C15   C16   A    
C30   C38   A    
C11   H12   S    
C18   H2    S    
C33   C35   A    
O2    Zn2   S    
C7    C14   A    
C31   H6    S    
C24   O6    A    
C6    C38   A    
C42   H15   S    
C23   C27   S    
C34   C36   A    
C49   H38   S    
C6    Br2   S    
C45   H28   S    
O7    Zn2   S    
C28   C34   A    
C24   O8    A    
C18   C25   A    
C14   C45   S    
C20   N1    A    
C51   C52   S    
N1    Zn1   S    
C22   H13   S    
C44   H21   S    
C7    C12   A    
C45   H29   S    
C52   H42   S    
O6    Zn2   S    
C27   C31   A    
C36   C40   A    
C43   C44   S    
C4    C6    A    
C43   H24   S    
C39   C40   A    
C25   C26   A    
C4    H10   S    
C35   C39   A    
C1    O1    A    
C48   H31   S    
C45   C46   S    
C4    C39   A    
C28   C32   A    
C42   H17   S    
C41   H18   S    
C46   H25   S    
C9    C11   A    
C49   H39   S    
C10   C12   A    
O4    Zn1   S    
C50   H36   S    
C13   C15   A    
C14   C16   A    
C20   C41   S    
C36   C38   A    
C48   H30   S    
C12   H11   S    
C44   H22   S    
C21   C25   A    
C9    C49   S    
C33   H4    S    
C34   H3    S    
C24   C28   S    
O1    Zn1   S    
C3    C5    A    
C43   H23   S    
C3    C40   A    
C21   N2    A    
C2    O2    A    
C47   H34   S    
C22   N1    A    
C50   H37   S    
C52   H40   S    
O8    Zn1   S    
C10   C51   S    
C29   C31   A    
C48   H32   S    
C51   H44   S    
C47   C48   S    
C21   H14   S    
C8    C11   A    
N2    Zn2   S    
C23   O7    A    
C17   C19   A    
C41   H19   S    
C18   C20   A    
C41   C42   S    
C17   H1    S    
O5    Zn1   S    
C23   O5    A    
C50   H35   S    
C22   C26   A    
C29   C37   A    
C42   H16   S    
