data_mof_unit_22194.cif
_audit_creation_date              2012-12-11T14:58:33-0500
_audit_creation_method            fapswitch 2.2
_symmetry_space_group_name_H-M    P1
_symmetry_Int_Tables_number       1
_space_group_crystal_system       triclinic
_cell_length_a                    10.906741
_cell_length_b                    10.94888
_cell_length_c                    18.742082
_cell_angle_alpha                 90.445584
_cell_angle_beta                  90.375635
_cell_angle_gamma                 59.895764
_cell_volume                      1936.15829738

loop_
_atom_site_label
_atom_site_type_symbol
_atom_type_description
_atom_site_fract_x
_atom_site_fract_y
_atom_site_fract_z
_atom_type_partial_charge
C1    C     C_R   0.358925 0.773574 0.397086 0.557422
C2    C     C_R   0.623384 0.130908 0.159152 0.043693
C3    C     C_R   0.366298 0.337689 0.159095 -0.000735
C4    C     C_R   0.504114 0.263886 0.267704 -0.159606
C5    C     C_R   0.496446 0.248327 0.194604 -0.024246
C6    C     C_R   0.074297 0.717867 0.281175 -0.097458
C7    C     C_R   0.953298 0.826786 0.313713 -0.113981
C8    C     C_R   0.686056 0.993456 0.186819 -0.115752
C9    C     C_R   0.799751 0.880861 0.151876 -0.105158
C10   C     C_R   0.254872 0.448644 0.196355 -0.155846
C11   C     C_R   0.261861 0.463370 0.269786 -0.031373
C12   C     C_R   0.414285 0.376993 0.382374 0.546259
C13   C     C_R   0.888805 0.797087 0.369677 -0.062983
C14   C     C_R   0.941852 0.657672 0.391327 -0.047251
C15   C     C_R   0.060055 0.548109 0.357390 -0.029280
C16   C     C_R   0.131908 0.577916 0.304425 0.058447
C17   C     C_R   0.388612 0.366727 0.306351 -0.002511
C18   C     C_R   0.956336 0.304374 0.308054 -0.144918
C19   C     C_R   0.984662 0.297644 0.235692 -0.117322
C20   C     C_R   0.875353 0.333430 0.185905 0.042710
C21   C     C_R   0.736101 0.386670 0.207564 -0.124587
C22   C     C_R   0.707018 0.399660 0.279842 -0.069071
C23   C     C_R   0.779007 0.377821 0.403512 0.534553
C24   C     C_R   0.817495 0.354553 0.329730 0.062437
C25   C     C_R   0.456002 0.828738 0.287159 0.211211
C26   C     C_R   0.432970 0.873953 0.216565 -0.101105
C27   C     C_R   0.296524 0.938338 0.188046 -0.018733
C28   C     C_R   0.181203 0.969777 0.232264 -0.170255
C29   C     C_R   0.202434 0.930785 0.303336 -0.184191
C30   C     C_R   0.339808 0.850448 0.330192 0.037878
C31   C     C_R   0.388747 0.196699 0.693039 -0.135725
C32   C     C_R   0.380042 0.184310 0.765395 -0.122020
C33   C     C_R   0.296696 0.304430 0.807684 0.037201
C34   C     C_R   0.344038 0.769889 0.604590 0.544653
C35   C     C_R   0.211850 0.435632 0.775961 -0.137662
C36   C     C_R   0.222296 0.448651 0.702963 -0.128766
C37   C     C_R   0.317226 0.329986 0.662288 0.028465
C38   C     C_R   0.742383 0.475327 0.732255 -0.121834
C39   C     C_R   0.752332 0.462250 0.805323 -0.129746
C40   C     C_R   0.813037 0.328547 0.836111 0.029280
C41   C     C_R   0.846701 0.209813 0.793193 -0.129094
C42   C     C_R   0.831245 0.224072 0.719276 -0.133010
C43   C     C_R   0.784871 0.356389 0.688449 0.036635
C44   C     C_R   0.201574 0.829685 0.713530 -0.135873
C45   C     C_R   0.367588 0.350049 0.594814 0.554923
C46   C     C_R   0.194925 0.838155 0.786922 -0.140282
C47   C     C_R   0.303791 0.840646 0.825528 0.035803
C48   C     C_R   0.421961 0.829307 0.789978 -0.145480
C49   C     C_R   0.428048 0.821989 0.716357 -0.147859
C50   C     C_R   0.319479 0.818932 0.677836 0.037633
C51   C     C_R   0.911098 0.316223 0.111847 0.528958
C52   C     C_R   0.330718 0.295832 0.091253 0.532802
C53   C     C_R   0.270474 0.965035 0.111854 0.567775
C54   C     C_R   0.878344 0.310498 0.906022 0.545461
C55   C     C_R   0.292137 0.283857 0.883411 0.551384
C56   C     C_R   0.757431 0.380066 0.612295 0.544788
C57   C     C_R   0.276765 0.892201 0.898257 0.556455
C58   C     C_R   0.853608 0.903761 0.088963 -0.002319
C59   C     C_R   0.792054 0.040838 0.061307 -0.058486
C60   C     C_R   0.679184 0.154015 0.096660 -0.068473
Cr1   Cr    Cr6+3 0.601770 0.606860 0.505860 1.035792
Cr2   Cr    Cr6+3 0.291380 0.601660 0.495070 1.008355
Cr3   Cr    Cr6+3 0.606880 0.291510 0.499120 1.006497
Cr4   Cr    Cr6+3 0.062440 0.063090 0.008210 0.974077
Cr5   Cr    Cr6+3 0.062880 0.375170 0.998920 0.997179
Cr6   Cr    Cr6+3 0.374700 0.061720 0.992470 1.015815
H1    H     H_    0.603478 0.195282 0.294766 0.134670
H2    H     H_    0.796344 0.881785 0.395456 0.132055
H3    H     H_    0.891127 0.634587 0.434338 0.140910
H4    H     H_    0.100066 0.440801 0.374852 0.107195
H5    H     H_    0.041229 0.271211 0.346647 0.097540
H6    H     H_    0.092269 0.260882 0.218256 0.117925
H7    H     H_    0.650905 0.419975 0.169049 0.104310
H8    H     H_    0.598040 0.448067 0.297237 0.118011
H9    H     H_    0.522664 0.849810 0.182848 0.161133
H10   H     H_    0.074411 0.019688 0.210979 0.148608
H11   H     H_    0.845263 0.775502 0.173635 0.150108
H12   H     H_    0.111716 0.955002 0.336135 0.138348
H13   H     H_    0.460072 0.103848 0.662249 0.125721
H14   H     H_    0.441704 0.080279 0.788352 0.136171
H15   H     H_    0.143125 0.527954 0.807693 0.117809
H16   H     H_    0.164939 0.552939 0.679676 0.131710
H17   H     H_    0.701570 0.579498 0.710109 0.132700
H18   H     H_    0.724033 0.555524 0.837344 0.124828
H19   H     H_    0.894015 0.105275 0.816053 0.126409
H20   H     H_    0.859529 0.132001 0.686336 0.118291
H21   H     H_    0.116442 0.826432 0.685102 0.123962
H22   H     H_    0.909916 0.934481 0.295779 0.104946
H23   H     H_    0.101704 0.848733 0.812998 0.118860
H24   H     H_    0.506821 0.832302 0.818826 0.115448
H25   H     H_    0.519566 0.814299 0.689811 0.113585
H26   H     H_    0.830863 0.060146 0.012209 0.135170
H27   H     H_    0.632801 0.258948 0.074323 0.094520
H28   H     H_    0.123686 0.742451 0.238027 0.120345
H29   H     H_    0.645309 0.972958 0.234983 0.151505
H30   H     H_    0.155736 0.517589 0.169276 0.135735
O1    O     O_R   0.748800 0.497470 0.428000 -0.473047
O2    O     O_R   0.300070 0.471040 0.567100 -0.506636
O3    O     O_R   0.491670 0.258900 0.574910 -0.514358
O4    O     O_R   0.718780 0.304180 0.577850 -0.500900
O5    O     O_3   0.500010 0.500010 0.500020 -0.264496
O6    O     O_R   0.186690 0.923650 0.086970 -0.518693
O7    O     O_R   0.957250 0.194250 0.084630 -0.531784
O8    O     O_R   0.934970 0.407490 0.085330 -0.510393
O9    O     O_R   0.203780 0.365190 0.067090 -0.514216
O10   O     O_R   0.417600 0.174890 0.067840 -0.511345
O11   O     O_R   0.375320 0.946260 0.070860 -0.498722
O12   O     O_R   0.476420 0.724060 0.429470 -0.444311
O13   O     O_R   0.160600 0.919630 0.926660 -0.535156
O14   O     O_R   0.933060 0.190520 0.936020 -0.522317
O15   O     O_R   0.908880 0.403460 0.925020 -0.517665
O16   O     O_R   0.179600 0.361450 0.918490 -0.500789
O17   O     O_R   0.391510 0.170860 0.907530 -0.530441
O18   O     O_R   0.351130 0.942530 0.922260 -0.503614
O19   O     O_3   0.166667 0.166667 0.999870 -0.261281
O20   O     O_R   0.264580 0.744340 0.416750 -0.527974
O21   O     O_R   0.309380 0.472470 0.418200 -0.503082
O22   O     O_R   0.501710 0.260430 0.414300 -0.517532
O23   O     O_R   0.728090 0.305600 0.428960 -0.530520
O24   O     O_R   0.738760 0.495930 0.588610 -0.533521
O25   O     O_R   0.467110 0.722640 0.578360 -0.510165
O26   O     O_R   0.254530 0.742800 0.577360 -0.529899
Cl1   Cl    Cl    0.633543 0.736058 0.315158 -0.653783
C61   C     C_3   0.975751 0.781731 0.052033 -0.377729
H31   H     H_    0.005492 0.815576 0.002525 0.141106
H32   H     H_    0.069115 0.733833 0.088222 0.141395
H33   H     H_    0.946791 0.700796 0.037675 0.131794

loop_
_geom_bond_atom_site_label_1
_geom_bond_atom_site_label_2
_ccdc_geom_bond_type
C33   C55   S    
Cr4   O7    S    
Cr6   O17   S    
C55   O16   A    
C56   O24   A    
C41   C42   A    
C19   C20   A    
Cr6   O11   S    
Cr3   O5    S    
C35   H15   S    
C46   H23   S    
Cr4   O6    S    
C26   C27   A    
Cr3   O4    S    
C18   C24   A    
C28   C29   A    
Cr6   O10   S    
C39   H18   S    
C18   C19   A    
C20   C51   S    
C45   O2    A    
C23   O23   A    
C38   C39   A    
C38   H17   S    
C2    C60   A    
C47   C57   S    
C51   O7    A    
C15   C16   A    
C21   H7    S    
C18   H5    S    
C54   O14   A    
Cr1   O25   S    
C9    C58   A    
Cr1   O12   S    
Cr5   O15   S    
Cr2   O21   S    
Cr3   O3    S    
Cr2   O2    S    
C57   O13   A    
C29   H12   S    
C47   C48   A    
C36   H16   S    
C8    C9    A    
C6    H28   S    
C12   C17   S    
C23   C24   S    
C42   H20   S    
C1    O20   A    
C44   H21   S    
Cr2   O5    S    
C60   H27   S    
C52   O10   A    
C59   C60   A    
C34   O26   A    
Cr4   O19   S    
C48   H24   S    
C21   C22   A    
Cr1   O24   S    
Cr5   O19   S    
C19   H6    S    
C8    H29   S    
C49   H25   S    
Cr5   O9    S    
C44   C46   A    
Cr1   O1    S    
C34   C50   S    
Cr6   O19   S    
C45   O3    A    
C39   C40   A    
Cr3   O22   S    
C55   O17   A    
C51   O8    A    
C31   C37   A    
C35   C36   A    
Cr1   O5    S    
Cr5   O16   S    
Cr2   O20   S    
C29   C30   A    
C32   H14   S    
Cr3   O23   S    
C11   C16   S    
C53   O11   A    
Cr4   O14   S    
C7    H22   S    
C10   H30   S    
C53   O6    A    
C26   H9    S    
C9    H11   S    
C25   Cl1   S    
C57   O18   A    
C61   H33   S    
C12   O22   A    
C4    C17   A    
C40   C41   A    
C23   O1    A    
C52   O9    A    
C34   O25   A    
C40   C54   S    
C14   H3    S    
C22   C24   A    
C58   C59   A    
C2    C5    S    
C42   C43   A    
C22   H8    S    
C37   C45   S    
C28   H10   S    
Cr2   O26   S    
C61   H32   S    
C44   C50   A    
C25   C30   A    
C15   H4    S    
C46   C47   A    
C11   C17   A    
Cr6   O18   S    
C31   C32   A    
C2    C8    A    
C4    C5    A    
C3    C5    A    
C4    H1    S    
C3    C52   S    
C27   C53   S    
C31   H13   S    
C6    C7    A    
C41   H19   S    
C58   C61   S    
C32   C33   A    
C25   C26   A    
C38   C43   A    
C3    C10   A    
Cr4   O13   S    
C48   C49   A    
C1    C30   S    
C33   C35   A    
C54   O15   A    
C59   H26   S    
C10   C11   A    
C1    O12   A    
C6    C16   A    
C12   O21   A    
C43   C56   S    
C7    C13   A    
C20   C21   A    
C36   C37   A    
C49   C50   A    
C27   C28   A    
C56   O4    A    
C14   C15   A    
Cr5   O8    S    
C13   C14   A    
C61   H31   S    
C13   H2    S    
