data_mof_unit_33461.cif
_audit_creation_date              2012-12-10T17:16:41-0500
_audit_creation_method            fapswitch 2.2
_symmetry_space_group_name_H-M    P1
_symmetry_Int_Tables_number       1
_space_group_crystal_system       triclinic
_cell_length_a                    10.10593
_cell_length_b                    10.645465
_cell_length_c                    10.488361
_cell_angle_alpha                 90.708063
_cell_angle_beta                  95.366143
_cell_angle_gamma                 79.319304
_cell_volume                      1103.93995175

loop_
_atom_site_label
_atom_site_type_symbol
_atom_type_description
_atom_site_fract_x
_atom_site_fract_y
_atom_site_fract_z
_atom_type_partial_charge
C1    C     C_R   0.443498 0.511858 0.264104 0.899232
C2    C     C_R   0.493546 0.741708 0.486745 0.888276
C3    C     C_R   0.756868 0.064623 0.476095 -0.133520
C4    C     C_R   0.249338 0.936664 0.546220 -0.142094
C5    C     C_R   0.846698 0.989806 0.400137 -0.181710
C6    C     C_R   0.161178 0.012547 0.623073 -0.186197
C7    C     C_R   0.808143 0.886966 0.333313 -0.148608
C8    C     C_R   0.199860 0.117330 0.686024 -0.144495
C9    C     C_R   0.684165 0.853333 0.350543 -0.123617
C10   C     C_R   0.322487 0.151346 0.664598 -0.124952
C11   C     C_R   0.596494 0.923141 0.435087 0.076735
C12   C     C_R   0.556283 0.491805 0.735281 0.892847
C13   C     C_R   0.409024 0.079269 0.580651 0.080007
C14   C     C_R   0.625415 0.038202 0.484908 0.094901
C15   C     C_R   0.380200 0.963097 0.533035 0.091818
C16   C     C_R   0.482627 0.879286 0.473143 -0.260771
C17   C     C_R   0.521493 0.122919 0.540421 -0.272389
C18   C     C_3   0.685700 0.389785 0.946769 -0.420947
C19   C     C_3   0.751920 0.281042 0.862295 -0.344385
C20   C     C_3   0.830403 0.168298 0.942830 -0.900494
C21   C     C_3   0.291937 0.502116 0.046294 -0.407449
C22   C     C_3   0.191354 0.449536 0.122322 -0.340346
C23   C     C_2   0.413093 0.538654 0.126402 -0.074190
C24   C     C_3   0.078468 0.409384 0.033462 -0.927731
C25   C     C_2   0.587232 0.496321 0.873269 -0.059632
C26   C     C_2   0.505969 0.590371 0.070929 -0.226989
C27   C     C_2   0.510018 0.591451 0.933186 -0.215313
C28   C     C_2   0.073674 0.488741 0.489235 -0.143041
C29   C     C_2   0.926405 0.511033 0.510954 -0.138605
C30   C     C_R   0.507605 0.259450 0.517802 0.885110
H1    H     H_    0.133067 0.174598 0.748195 0.134816
H2    H     H_    0.592592 0.616836 0.126903 0.165640
H3    H     H_    0.888547 0.581534 0.580738 0.172246
H4    H     H_    0.111586 0.418042 0.419642 0.167875
H5    H     H_    0.882204 0.382351 0.383443 0.161486
H6    H     H_    0.117727 0.617887 0.616306 0.159651
H7    H     H_    0.910555 0.198818 0.008950 0.264352
H8    H     H_    0.761089 0.127041 0.999448 0.267509
H9    H     H_    0.878740 0.093050 0.878834 0.247606
H10   H     H_    0.673029 0.245781 0.797879 0.207318
H11   H     H_    0.822861 0.316811 0.803052 0.239517
H12   H     H_    0.875752 0.831059 0.270961 0.134943
H13   H     H_    0.765990 0.432129 0.001532 0.211975
H14   H     H_    0.629616 0.347731 0.016552 0.226900
H15   H     H_    0.023172 0.491645 0.974063 0.265773
H16   H     H_    0.120359 0.330639 0.969866 0.265393
H17   H     H_    0.006232 0.375453 0.092224 0.246659
H18   H     H_    0.244448 0.364967 0.179859 0.226881
H19   H     H_    0.144352 0.524683 0.187221 0.239834
H20   H     H_    0.236519 0.588200 0.992329 0.212184
H21   H     H_    0.330477 0.428881 0.975526 0.219777
H22   H     H_    0.793211 0.140427 0.530295 0.155900
H23   H     H_    0.210323 0.861573 0.493553 0.161787
H24   H     H_    0.945530 0.012720 0.391854 0.139074
H25   H     H_    0.062852 0.989651 0.634084 0.137169
H26   H     H_    0.657318 0.772375 0.297619 0.135314
H27   H     H_    0.349366 0.234535 0.713564 0.139422
H28   H     H_    0.436441 0.663694 0.879268 0.167282
N1    N     N_2   0.157300 0.551390 0.551120 -0.195801
N2    N     N_2   0.842700 0.448610 0.448880 -0.198302
O1    O     O_R   0.568940 0.489660 0.307530 -0.614491
O2    O     O_R   0.431060 0.510340 0.692470 -0.617366
O3    O     O_R   0.348880 0.522640 0.340350 -0.613098
O4    O     O_R   0.651120 0.477360 0.659650 -0.611324
O5    O     O_R   0.610030 0.300280 0.483580 -0.615053
O6    O     O_R   0.389970 0.699720 0.516420 -0.619488
O7    O     O_R   0.389970 0.333270 0.516400 -0.602841
O8    O     O_R   0.610030 0.666730 0.483600 -0.605118
Zn1   Zn    Zn3+2 0.646940 0.477980 0.478080 0.914783
Zn2   Zn    Zn3+2 0.353060 0.522020 0.521920 0.912364

loop_
_geom_bond_atom_site_label_1
_geom_bond_atom_site_label_2
_ccdc_geom_bond_type
C22   H18   S    
C3    H22   S    
C29   N2    D    
C26   H2    S    
C20   H7    S    
C18   H14   S    
C4    H23   S    
C25   C27   D    
C20   H8    S    
C11   C16   A    
C6    H25   S    
C7    H12   S    
C19   C20   S    
C12   O2    A    
O3    Zn2   S    
C13   C17   A    
C12   C25   S    
O7    Zn2   S    
C24   H16   S    
H6    N1    S    
C4    C15   A    
C21   C23   S    
O4    Zn1   S    
C28   H4    S    
C9    H26   S    
C18   H13   S    
C17   C30   S    
C9    C11   A    
C14   C17   A    
C19   H11   S    
C26   C27   S    
O6    Zn2   S    
C18   C25   S    
N2    Zn1   S    
C3    C14   A    
C22   H19   S    
O5    Zn1   S    
C24   H15   S    
C1    O3    A    
C8    C10   A    
C21   H20   S    
C1    C23   S    
C2    O8    A    
C13   C15   A    
C12   O4    A    
C11   C14   A    
C22   C24   S    
C23   C26   D    
C30   O5    A    
C19   H10   S    
N1    Zn2   S    
C24   H17   S    
C15   C16   A    
H5    N2    S    
C29   H3    S    
C5    H24   S    
C21   H21   S    
C10   H27   S    
C2    C16   S    
O2    Zn2   S    
C4    C6    A    
C18   C19   S    
C28   N1    D    
O1    Zn1   S    
C7    C9    A    
C20   H9    S    
C5    C7    A    
C28   C29   S    
C6    C8    A    
C3    C5    A    
C21   C22   S    
C8    H1    S    
C10   C13   A    
C30   O7    A    
O8    Zn1   S    
C2    O6    A    
C27   H28   S    
C1    O1    A    
