data_mof_unit_45198.cif
_audit_creation_date              2012-12-10T20:33:31-0500
_audit_creation_method            fapswitch 2.2
_symmetry_space_group_name_H-M    P1
_symmetry_Int_Tables_number       1
_space_group_crystal_system       triclinic
_cell_length_a                    14.152859
_cell_length_b                    10.711048
_cell_length_c                    9.856042
_cell_angle_alpha                 90.464978
_cell_angle_beta                  89.98342
_cell_angle_gamma                 90.07931
_cell_volume                      1494.0459574

loop_
_atom_site_label
_atom_site_type_symbol
_atom_type_description
_atom_site_fract_x
_atom_site_fract_y
_atom_site_fract_z
_atom_type_partial_charge
C1    C     C_R   0.500006 0.259992 0.499439 0.897356
C2    C     C_3   0.481260 0.079424 0.755640 -0.539786
C3    C     C_R   0.417387 0.490419 0.071161 0.235536
C4    C     C_R   0.329125 0.500340 0.500077 0.895649
C5    C     C_R   0.580690 0.522671 0.072110 -0.142237
C6    C     C_R   0.580705 0.522588 0.928156 -0.130093
C7    C     C_R   0.417325 0.491037 0.928831 0.257802
C8    C     C_3   0.347090 0.387669 0.921620 -0.525101
C9    C     C_3   0.347865 0.386005 0.075830 -0.519626
C10   C     C_R   0.508764 0.739261 0.500456 0.844385
C11   C     C_R   0.670885 0.499875 0.499996 0.873991
C12   C     C_1   0.772310 0.500904 0.500111 -0.227094
C13   C     C_1   0.227699 0.501114 0.500248 -0.233428
C14   C     C_1   0.142474 0.501749 0.500417 -0.025386
C15   C     C_1   0.042616 0.502223 0.500508 -0.001969
C16   C     C_1   0.957383 0.502243 0.500465 -0.002101
C17   C     C_1   0.857530 0.501731 0.500292 -0.019728
C18   C     C_3   0.612490 0.877443 0.273599 -0.392234
C19   C     C_3   0.705827 0.824335 0.324822 -0.835449
C20   C     C_R   0.432690 0.870172 0.852977 0.142004
C21   C     C_R   0.356904 0.802358 0.794526 -0.081939
C22   C     C_R   0.289306 0.744333 0.876108 -0.164611
C23   C     C_R   0.469058 0.060648 0.606776 0.071593
C24   C     C_R   0.295229 0.753670 0.017065 -0.134273
C25   C     C_R   0.368395 0.821894 0.076741 -0.131559
C26   C     C_R   0.435811 0.880731 0.995621 -0.184383
C27   C     C_R   0.609541 0.920701 0.810590 0.160105
C28   C     C_R   0.647859 0.994835 0.916746 -0.201314
C29   C     C_R   0.740920 0.978847 0.960604 -0.134976
C30   C     C_R   0.797848 0.887879 0.900859 -0.102505
C31   C     C_R   0.761979 0.813426 0.796436 -0.168803
C32   C     C_R   0.669158 0.829584 0.751578 -0.127286
C33   C     C_R   0.502212 0.127786 0.496912 -0.108291
C34   C     C_R   0.542925 0.066058 0.385611 -0.273159
C35   C     C_R   0.555807 0.937165 0.387846 0.163850
C36   C     C_R   0.522833 0.871169 0.502957 -0.150103
C37   C     C_R   0.485934 0.936374 0.613782 -0.002039
C38   C     C_3   0.505616 0.939652 0.765972 0.029497
H1    H     H_    0.569782 0.119225 0.300709 0.159402
H2    H     H_    0.749179 0.899696 0.371679 0.254649
H3    H     H_    0.693517 0.750581 0.400964 0.244508
H4    H     H_    0.745743 0.783083 0.238451 0.246061
H5    H     H_    0.571539 0.804817 0.218796 0.234431
H6    H     H_    0.630177 0.948042 0.196045 0.191281
H7    H     H_    0.348087 0.795229 0.685855 0.126897
H8    H     H_    0.232110 0.692092 0.829759 0.134410
H9    H     H_    0.243027 0.708219 0.080019 0.131912
H10   H     H_    0.372504 0.830236 0.186131 0.145679
H11   H     H_    0.489235 0.936158 0.045294 0.123245
H12   H     H_    0.376718 0.302117 0.874394 0.211543
H13   H     H_    0.605860 0.065633 0.967179 0.118594
H14   H     H_    0.768628 0.036673 0.041958 0.133375
H15   H     H_    0.869751 0.875136 0.935394 0.125678
H16   H     H_    0.806263 0.742834 0.749664 0.136627
H17   H     H_    0.646664 0.770059 0.670494 0.143396
H18   H     H_    0.279587 0.415633 0.121518 0.205921
H19   H     H_    0.378492 0.299215 0.118586 0.216063
H20   H     H_    0.413117 0.104963 0.804314 0.187376
H21   H     H_    0.539513 0.146036 0.777888 0.215504
H22   H     H_    0.646053 0.539139 0.126119 0.158402
H23   H     H_    0.646091 0.538898 0.874381 0.155226
H24   H     H_    0.278605 0.419008 0.878559 0.205498
N1    N     N_R   0.499420 0.499140 0.142800 -0.105685
N2    N     N_R   0.499420 0.499180 0.857150 -0.104411
O1    O     O_R   0.500010 0.316790 0.614690 -0.612171
O2    O     O_R   0.500000 0.316760 0.385350 -0.618482
O3    O     O_R   0.373720 0.500020 0.614700 -0.596670
O4    O     O_R   0.373710 0.499980 0.385350 -0.595378
O5    O     O_R   0.500000 0.683240 0.614650 -0.625686
O6    O     O_R   0.499990 0.683210 0.385310 -0.609377
O7    O     O_R   0.626290 0.500020 0.614650 -0.609704
O8    O     O_R   0.626280 0.499980 0.385300 -0.600903
Zn1   Zn    Zn3+2 0.500010 0.500020 0.653130 0.930967
Zn2   Zn    Zn3+2 0.499990 0.499980 0.346870 0.929528

loop_
_geom_bond_atom_site_label_1
_geom_bond_atom_site_label_2
_ccdc_geom_bond_type
C12   C17   T    
O6    Zn2   S    
C4    O3    A    
C1    O1    A    
N2    Zn1   S    
C2    H20   S    
O5    Zn1   S    
C37   C38   S    
O3    Zn1   S    
N1    Zn2   S    
C18   H6    S    
C20   C38   S    
C18   C35   S    
C2    C38   S    
C32   H17   S    
C21   H7    S    
C35   C36   A    
C14   C15   S    
C19   H4    S    
C30   C31   A    
C11   C12   S    
C21   C22   A    
C1    O2    A    
C27   C32   A    
C1    C33   S    
C7    C8    S    
C9    H18   S    
C18   H5    S    
C24   C25   A    
C25   H10   S    
C19   H3    S    
C29   C30   A    
C11   O7    A    
C20   C26   A    
C3    N1    A    
C3    C9    S    
C10   O6    A    
C6    H23   S    
O8    Zn2   S    
C28   C29   A    
C22   H8    S    
C33   C34   A    
C3    C7    A    
C5    H22   S    
C31   H16   S    
C5    C6    A    
C34   C35   A    
C28   H13   S    
C22   C24   A    
C7    N2    A    
C11   O8    A    
C16   C17   S    
C19   H2    S    
C27   C38   S    
O4    Zn2   S    
C15   C16   T    
O2    Zn2   S    
C10   O5    A    
C8    H12   S    
C27   C28   A    
O1    Zn1   S    
C20   C21   A    
C5    N1    A    
C9    H19   S    
C30   H15   S    
C18   C19   S    
C26   H11   S    
C6    N2    A    
C2    C23   S    
O7    Zn1   S    
C2    H21   S    
C36   C37   A    
C10   C36   S    
C13   C14   T    
C25   C26   A    
C23   C37   A    
C24   H9    S    
C4    O4    A    
C31   C32   A    
C34   H1    S    
C4    C13   S    
C8    H24   S    
C8    C9    S    
C23   C33   A    
C29   H14   S    
