data_mof_unit_66950.cif
_audit_creation_date              2013-03-05T15:57:31-0500
_audit_creation_method            fapswitch 2.2
_symmetry_space_group_name_H-M    P1
_symmetry_Int_Tables_number       1
_space_group_crystal_system       triclinic
_cell_length_a                    17.174357
_cell_length_b                    18.541862
_cell_length_c                    8.47489
_cell_angle_alpha                 90.179376
_cell_angle_beta                  101.938105
_cell_angle_gamma                 89.69015
_cell_volume                      2640.36813606

loop_
_atom_site_label
_atom_site_type_symbol
_atom_site_description
_atom_site_fract_x
_atom_site_fract_y
_atom_site_fract_z
_atom_type_partial_charge
P1    P     P_3+3 0.834140 0.419320 0.003900 0.540095
P2    P     P_3+3 0.834140 0.580680 0.503900 0.512018
P3    P     P_3+3 0.334140 0.919320 0.003900 0.540348
P4    P     P_3+3 0.334140 0.080680 0.503900 0.511796
O1    O     O_2   0.841960 0.394640 0.833410 -0.377481
O2    O     O_2   0.841960 0.605360 0.333410 -0.368327
O3    O     O_2   0.341960 0.894640 0.833410 -0.378063
O4    O     O_2   0.341960 0.105360 0.333410 -0.367540
O5    O     O_3   0.907950 0.463080 0.102990 -0.328541
O6    O     O_3   0.907950 0.536920 0.602990 -0.318011
O7    O     O_3   0.407950 0.963080 0.102990 -0.327895
O8    O     O_3   0.407950 0.036920 0.602990 -0.318104
O9    O     O_3   0.972780 0.329600 0.629720 -0.316706
O10   O     O_3   0.972780 0.670400 0.129720 -0.318497
O11   O     O_3   0.472780 0.829600 0.629720 -0.316665
O12   O     O_3   0.472780 0.170400 0.129720 -0.318376
O13   O     O_2   0.837442 0.277944 0.687611 -0.331597
O14   O     O_2   0.830940 0.715155 0.173369 -0.306876
O15   O     O_2   0.337400 0.777998 0.687543 -0.331578
O16   O     O_2   0.330954 0.215162 0.173425 -0.306744
O17   O     O_3   0.752726 0.477975 0.963075 -0.510634
O18   O     O_3   0.751091 0.524020 0.468348 -0.585047
O19   O     O_3   0.252723 0.978002 0.963531 -0.510463
O20   O     O_3   0.251090 0.024020 0.468252 -0.585413
O21   O     O_3   0.942060 0.181806 0.647871 -0.486236
O22   O     O_3   0.931282 0.816705 0.160442 -0.538467
O23   O     O_3   0.442007 0.681828 0.647985 -0.486112
O24   O     O_3   0.431279 0.316716 0.160419 -0.538570
H1    H     H_    0.064143 0.188843 0.682214 0.066506
H2    H     H_    0.053152 0.810651 0.230941 0.152991
H3    H     H_    0.564088 0.688685 0.682070 0.066760
H4    H     H_    0.553148 0.310714 0.231038 0.153044
C1    C     C_3   0.020301 0.093060 0.548398 -0.059088
C2    C     C_3   0.014641 0.909046 0.102537 -0.121070
C3    C     C_3   0.520003 0.592969 0.548247 -0.059574
C4    C     C_3   0.514618 0.409053 0.102406 -0.120974
H5    H     H_    0.573361 0.584275 0.495380 0.111770
H6    H     H_    0.513281 0.438010 0.216681 0.181269
H7    H     H_    0.073723 0.084450 0.495692 0.112020
H8    H     H_    0.013352 0.937965 0.216877 0.181464
H9    H     H_    0.025945 0.060194 0.659274 0.152614
H10   H     H_    0.964433 0.928438 0.007358 0.158233
H11   H     H_    0.525655 0.560109 0.659141 0.153292
H12   H     H_    0.464420 0.428399 0.007146 0.158254
P5    P     P_3+3 0.165830 0.418670 0.685610 0.471336
P6    P     P_3+3 0.165830 0.581330 0.185610 0.489653
P7    P     P_3+3 0.665830 0.918670 0.685610 0.471355
P8    P     P_3+3 0.665830 0.081330 0.185610 0.489569
P9    P     P_3+3 0.105241 0.267116 0.114795 0.484766
P10   P     P_3+3 0.101950 0.735290 0.613249 0.482343
P11   P     P_3+3 0.605227 0.767112 0.114785 0.485000
P12   P     P_3+3 0.601951 0.235288 0.613241 0.482332
O25   O     O_2   0.157990 0.394030 0.856030 -0.369773
O26   O     O_2   0.157990 0.605970 0.356030 -0.377361
O27   O     O_2   0.657990 0.894030 0.856030 -0.369790
O28   O     O_2   0.657990 0.105970 0.356030 -0.377344
O29   O     O_3   0.027110 0.329490 0.059550 -0.340421
O30   O     O_3   0.027110 0.670510 0.559550 -0.338066
O31   O     O_3   0.527110 0.829490 0.059550 -0.340451
O32   O     O_3   0.527110 0.170510 0.559550 -0.338004
O33   O     O_2   0.170720 0.286305 0.022693 -0.346957
O34   O     O_2   0.159674 0.727809 0.496448 -0.383761
O35   O     O_2   0.670684 0.786263 0.022594 -0.346951
O36   O     O_2   0.659678 0.227801 0.496448 -0.383788
O37   O     O_3   0.251561 0.471234 0.721942 -0.621358
O38   O     O_3   0.250643 0.526826 0.221961 -0.578774
O39   O     O_3   0.751559 0.971237 0.721932 -0.621389
O40   O     O_3   0.750651 0.026837 0.221976 -0.578969
O41   O     O_3   0.073509 0.183563 0.033452 -0.538118
O42   O     O_3   0.057024 0.819249 0.565177 -0.526182
O43   O     O_3   0.573423 0.683574 0.033486 -0.538341
O44   O     O_3   0.557027 0.319245 0.565144 -0.526173
C5    C     C_3   0.000216 0.167556 0.072497 0.395373
C6    C     C_3   0.987094 0.821641 0.626780 0.437523
C7    C     C_3   0.500136 0.667603 0.072601 0.395510
C8    C     C_3   0.487123 0.321660 0.626837 0.437577
H13   H     H_    0.951849 0.195677 0.987344 0.157487
H14   H     H_    0.939077 0.791955 0.544473 0.126641
H15   H     H_    0.451769 0.695717 0.987436 0.157540
H16   H     H_    0.439087 0.291945 0.544637 0.126588
H17   H     H_    0.997673 0.182883 0.198362 0.060903
H18   H     H_    0.995435 0.797969 0.749202 0.046486
H19   H     H_    0.497611 0.682968 0.198451 0.060768
H20   H     H_    0.495507 0.298035 0.749314 0.046433
C9    C     C_3   0.988904 0.086771 0.056495 -0.884125
C10   C     C_3   0.961963 0.899623 0.638864 -0.979376
C11   C     C_3   0.488801 0.586816 0.056703 -0.885243
C12   C     C_3   0.461990 0.399647 0.638807 -0.979238
H21   H     H_    0.429267 0.571329 0.075952 0.239426
H22   H     H_    0.406285 0.402705 0.685744 0.225078
H23   H     H_    0.929389 0.071255 0.075803 0.239156
H24   H     H_    0.906245 0.902663 0.685743 0.225093
H25   H     H_    0.995444 0.068550 0.935039 0.266202
H26   H     H_    0.952191 0.924482 0.518093 0.297470
H27   H     H_    0.495374 0.568554 0.935294 0.266647
H28   H     H_    0.452190 0.424467 0.517979 0.297360
C13   C     C_3   0.233263 0.457614 0.268427 0.213311
C14   C     C_3   0.235040 0.541408 0.765060 0.158130
C15   C     C_3   0.733272 0.957616 0.268392 0.213059
C16   C     C_3   0.735040 0.041408 0.765081 0.158215
H29   H     H_    0.230693 0.458611 0.397978 0.092758
H30   H     H_    0.228411 0.541503 0.892407 0.095136
H31   H     H_    0.730674 0.958598 0.397929 0.092730
H32   H     H_    0.728399 0.041489 0.892419 0.095155
H33   H     H_    0.176851 0.436047 0.195622 0.119245
H34   H     H_    0.180955 0.564356 0.685637 0.134642
H35   H     H_    0.676874 0.936046 0.195532 0.119355
H36   H     H_    0.680962 0.064362 0.685651 0.134606
C17   C     C_3   0.300612 0.408575 0.241472 0.062458
C18   C     C_3   0.305819 0.587398 0.746933 0.063209
C19   C     C_3   0.800641 0.908596 0.241475 0.062377
C20   C     C_3   0.805829 0.087399 0.747007 0.063108
H37   H     H_    0.359067 0.435238 0.281502 0.176224
H38   H     H_    0.362375 0.557596 0.791272 0.144865
H39   H     H_    0.859087 0.935261 0.281622 0.176185
H40   H     H_    0.862379 0.057578 0.791284 0.144852
H41   H     H_    0.293444 0.397904 0.110665 0.163614
H42   H     H_    0.302224 0.598813 0.617284 0.202658
H43   H     H_    0.793518 0.897957 0.110663 0.163603
H44   H     H_    0.802232 0.098854 0.617374 0.202491
Ba1   Ba    Ba6+2 0.000000 0.447380 0.844850 1.639960
Ba2   Ba    Ba6+2 0.000000 0.552620 0.344850 1.646964
Ba3   Ba    Ba6+2 0.500000 0.947380 0.844850 1.640036
Ba4   Ba    Ba6+2 0.500000 0.052620 0.344850 1.646995
C21   C     C_3   0.776622 0.546186 0.922007 0.401407
C22   C     C_3   0.771236 0.455900 0.416563 0.376287
C23   C     C_3   0.276356 0.046041 0.920767 0.399085
C24   C     C_3   0.271273 0.955866 0.416718 0.376100
H45   H     H_    0.795418 0.543192 0.804988 0.091085
H46   H     H_    0.774382 0.459011 0.287695 0.122380
H47   H     H_    0.293609 0.042715 0.802291 0.090681
H48   H     H_    0.274499 0.958904 0.287885 0.123004
H49   H     H_    0.825348 0.568354 0.016414 0.136933
H50   H     H_    0.828302 0.434840 0.488369 0.133771
H51   H     H_    0.326068 0.068189 0.013009 0.136676
H52   H     H_    0.328309 0.934828 0.488698 0.133808
C25   C     C_3   0.705758 0.596641 0.907556 -0.852420
C26   C     C_3   0.706327 0.403261 0.436155 -0.808651
C27   C     C_3   0.205945 0.096847 0.909352 -0.847178
C28   C     C_3   0.206338 0.903253 0.436285 -0.808822
H53   H     H_    0.655212 0.575577 0.816358 0.241937
H54   H     H_    0.646794 0.426953 0.388112 0.280374
H55   H     H_    0.154021 0.075291 0.822422 0.244393
H56   H     H_    0.146819 0.926938 0.388080 0.280535
H57   H     H_    0.720572 0.651255 0.871188 0.207623
H58   H     H_    0.712343 0.352397 0.370747 0.217699
H59   H     H_    0.220098 0.150973 0.868967 0.205366
H60   H     H_    0.212384 0.852358 0.371015 0.217819
H61   H     H_    0.688197 0.600044 0.026261 0.297618
H62   H     H_    0.710735 0.391268 0.565759 0.256728
H63   H     H_    0.190746 0.101561 0.030074 0.295301
H64   H     H_    0.210678 0.891322 0.565897 0.256555
O45   O     O_3   0.092100 0.536880 0.086720 -0.354382
O46   O     O_3   0.092100 0.463120 0.586720 -0.351430
O47   O     O_3   0.592100 0.036880 0.086720 -0.354397
O48   O     O_3   0.592100 0.963120 0.586720 -0.351398
P13   P     P_3+3 0.895704 0.734062 0.078998 0.529430
P14   P     P_3+3 0.898371 0.264228 0.580162 0.551534
P15   P     P_3+3 0.395704 0.234063 0.079014 0.529780
P16   P     P_3+3 0.398352 0.764246 0.580167 0.551616
C29   C     C_3   0.012143 0.172324 0.588065 0.331191
C30   C     C_3   0.006756 0.828815 0.126865 0.273919
C31   C     C_3   0.512021 0.672245 0.587997 0.331414
C32   C     C_3   0.506764 0.328825 0.126883 0.273700
H65   H     H_    0.013313 0.203697 0.476736 0.032100
H66   H     H_    0.016906 0.800631 0.016941 0.068503
H67   H     H_    0.513203 0.703620 0.476679 0.031926
H68   H     H_    0.516958 0.300594 0.017044 0.068489
H69   H     H_    0.535110 0.560095 0.148928 0.294088
H70   H     H_    0.509367 0.429895 0.720813 0.302473
H71   H     H_    0.035244 0.060042 0.148640 0.294471
H72   H     H_    0.009322 0.929847 0.720951 0.302402
C33   C     C_R   0.144256 0.673827 0.920475 -0.425253
C34   C     C_R   0.141174 0.324402 0.424245 -0.404225
C35   C     C_R   0.644248 0.173827 0.920472 -0.425163
C36   C     C_R   0.641178 0.824404 0.424234 -0.404317
C37   C     C_R   0.865543 0.319310 0.262842 0.044582
C38   C     C_R   0.867412 0.681529 0.760746 0.060456
C39   C     C_R   0.365560 0.819305 0.262840 0.044421
C40   C     C_R   0.367385 0.181506 0.760778 0.060355
C41   C     C_R   0.788623 0.214858 0.303677 -0.179474
C42   C     C_R   0.789963 0.786281 0.801832 -0.261472
C43   C     C_R   0.288628 0.714859 0.303680 -0.179245
C44   C     C_R   0.289945 0.286265 0.801857 -0.261263
C45   C     C_R   0.847639 0.265176 0.363800 0.112967
C46   C     C_R   0.849381 0.736023 0.861297 0.087383
C47   C     C_R   0.347649 0.765174 0.363796 0.112846
C48   C     C_R   0.349351 0.235999 0.861331 0.088057
C49   C     C_R   0.816543 0.332854 0.110998 0.172246
C50   C     C_R   0.817353 0.667297 0.610452 0.164469
C51   C     C_R   0.316561 0.832850 0.111001 0.172494
C52   C     C_R   0.317341 0.167290 0.610463 0.163494
C53   C     C_R   0.754523 0.281992 0.049966 -0.077837
C54   C     C_R   0.753704 0.717121 0.551185 -0.101004
C55   C     C_R   0.254536 0.781990 0.049970 -0.077975
C56   C     C_R   0.253696 0.217117 0.551199 -0.101085
C57   C     C_R   0.242027 0.720843 0.146314 -0.104160
C58   C     C_R   0.241797 0.278995 0.646612 -0.077856
C59   C     C_R   0.742019 0.220844 0.146313 -0.104046
C60   C     C_R   0.741807 0.779001 0.646596 -0.077607
C61   C     C_R   0.183910 0.667300 0.080781 0.273507
C62   C     C_R   0.182704 0.332012 0.582389 0.267387
C63   C     C_R   0.683903 0.167301 0.080779 0.273522
C64   C     C_R   0.682708 0.832014 0.582379 0.267389
C65   C     C_R   0.155230 0.732762 0.826506 0.232046
C66   C     C_R   0.151149 0.264615 0.331312 0.234764
C67   C     C_R   0.655226 0.232761 0.826499 0.231858
C68   C     C_R   0.651154 0.764617 0.331297 0.234828
C69   C     C_R   0.207492 0.787925 0.892686 -0.019110
C70   C     C_R   0.204732 0.209812 0.395937 -0.143419
C71   C     C_R   0.707486 0.287924 0.892678 -0.019072
C72   C     C_R   0.704740 0.709814 0.395916 -0.143610
H73   H     H_    0.280608 0.671063 0.381549 0.213805
H74   H     H_    0.282377 0.330652 0.879031 0.202054
H75   H     H_    0.780616 0.171053 0.381535 0.213678
H76   H     H_    0.782386 0.830661 0.879016 0.202132
H77   H     H_    0.712955 0.333592 0.817563 0.162876
H78   H     H_    0.710951 0.664421 0.319472 0.174175
H79   H     H_    0.212957 0.833595 0.817576 0.162711
H80   H     H_    0.210942 0.164415 0.319514 0.173641
H81   H     H_    0.108349 0.629726 0.864418 0.194284
H82   H     H_    0.105874 0.368958 0.367792 0.192042
H83   H     H_    0.608339 0.129728 0.864417 0.194272
H84   H     H_    0.605878 0.868960 0.367782 0.192048
O49   O     O_3   0.299816 0.343269 0.322224 -0.695915
H85   H     H_    0.318723 0.353974 0.438319 0.308000
O50   O     O_3   0.306102 0.652510 0.829927 -0.720738
H86   H     H_    0.321652 0.640890 0.946275 0.306010
O51   O     O_3   0.799819 0.843270 0.322132 -0.695881
H87   H     H_    0.818701 0.853946 0.438246 0.307962
O52   O     O_3   0.806135 0.152485 0.830110 -0.720816
H88   H     H_    0.821699 0.140828 0.946438 0.306034
Cl1   Cl    Cl    0.433520 0.564882 0.408253 -0.737603
Cl2   Cl    Cl    0.605092 0.427235 0.041207 -0.721630
Cl3   Cl    Cl    0.933925 0.064848 0.408247 -0.737569
Cl4   Cl    Cl    0.105095 0.927210 0.041253 -0.721578
Cl5   Cl    Cl    0.953041 0.367999 0.327250 -0.615974
Cl6   Cl    Cl    0.955164 0.632432 0.825985 -0.616457
Cl7   Cl    Cl    0.453049 0.868005 0.327259 -0.615958
Cl8   Cl    Cl    0.455148 0.132422 0.825995 -0.616434

loop_
_geom_bond_atom_site_label_1
_geom_bond_atom_site_label_2
_geom_bond_distance
_ccdc_geom_bond_type
C43   H73   1.075221 S    
C15   H31   1.107995 S    
C12   H28   1.104313 S    
P1    O17   1.744521 S    
C14   C18   1.522402 S    
P12   O36   1.544530 D    
P12   C67   1.849806 S    
P4    C52   1.889840 S    
P3    O19   1.744732 S    
O7    Ba4   2.850182 S    
C34   H82   1.075181 S    
C35   C67   1.390562 A    
P4    O4    1.549267 D    
O6    Ba1   2.847696 S    
C2    Cl4   1.771179 S    
C28   H60   1.107582 S    
C9    H23   1.107691 S    
C37   C45   1.397012 A    
Ba3   Ba4   4.670702 S    
Ba3   O47   2.850150 S    
C26   H62   1.108409 S    
P8    C63   1.885474 S    
C27   H59   1.105724 S    
C43   C57   1.410624 A    
C20   O52   1.394876 S    
O11   Ba3   2.818752 S    
C29   H65   1.113728 S    
C10   H72   1.108143 S    
O15   P16   1.542308 D    
C52   C56   1.437182 A    
O38   C13   1.395371 S    
C25   H57   1.105602 S    
C3    H5    1.111000 S    
C23   H51   1.111001 S    
O37   C14   1.393919 S    
C55   C69   1.412826 A    
P3    O3    1.546162 D    
C18   O50   1.394863 S    
C24   H52   1.110840 S    
P4    O20   1.750825 S    
C54   C72   1.413998 A    
O18   C22   1.400813 S    
C20   H40   1.111081 S    
C39   C47   1.397008 A    
P7    O48   1.593453 S    
C22   H46   1.106289 S    
C4    Cl2   1.771228 S    
C11   H69   1.109016 S    
O1    Ba1   2.872631 S    
C16   H32   1.108403 S    
P9    O29   1.756151 S    
P4    Ba4   3.430723 S    
O22   P13   1.739804 S    
C19   H43   1.107108 S    
C42   C46   1.394127 A    
C5    H17   1.112544 S    
O32   Ba4   2.818040 S    
P7    O27   1.548576 D    
C36   C64   1.389014 A    
C39   Cl7   1.744525 S    
C40   C48   1.394079 A    
O23   C31   1.409237 S    
C30   H66   1.111076 S    
P5    O37   1.743177 S    
C9    H25   1.109740 S    
P6    C61   1.885486 S    
C54   C60   1.439465 A    
O21   C29   1.409271 S    
P5    C62   1.876725 S    
O16   P15   1.540682 D    
C11   H27   1.109755 S    
P2    O18   1.750800 S    
C19   O51   1.394265 S    
O41   C5    1.399651 S    
C3    Cl1   1.777754 S    
P16   C47   1.860253 S    
P4    O8    1.588466 S    
C10   H26   1.104204 S    
C18   H38   1.111082 S    
C1    Cl3   1.777795 S    
C49   C53   1.439211 A    
C17   H37   1.109411 S    
C56   C70   1.413947 A    
C28   H56   1.108221 S    
O26   Ba2   2.876108 S    
C16   H36   1.111650 S    
C33   H81   1.075380 S    
P9    O41   1.737630 S    
O12   P15   1.755355 S    
C42   H76   1.073626 S    
C67   C71   1.401573 A    
Ba2   O46   2.847661 S    
C25   H61   1.109913 S    
P2    O2    1.549267 D    
P11   O43   1.737547 S    
C6    H18   1.109197 S    
C24   H48   1.106260 S    
P7    O39   1.743187 S    
P3    Ba3   3.436670 S    
O5    Ba2   2.850182 S    
C51   C55   1.439249 A    
Ba3   O48   2.968732 S    
P2    Ba2   3.430723 S    
O31   Ba3   2.822967 S    
C71   H77   1.077056 S    
H3    C31   1.111147 S    
C8    H20   1.109218 S    
C2    H10   1.110939 S    
O30   Ba2   2.818040 S    
Ba1   O46   2.968732 S    
O10   P13   1.755355 S    
C17   H41   1.107105 S    
C69   H79   1.077047 S    
C42   C60   1.408194 A    
P2    C50   1.889861 S    
C32   H68   1.111116 S    
P11   O35   1.539399 D    
P13   C46   1.852328 S    
C56   C58   1.439449 A    
C26   H54   1.108247 S    
C70   H80   1.078694 S    
P14   C45   1.860319 S    
C20   H44   1.108676 S    
C40   Cl8   1.746224 S    
C41   C45   1.396787 A    
P11   C68   1.841891 S    
O4    Ba4   2.862827 S    
C33   C61   1.393391 A    
C34   C66   1.388118 A    
C12   H70   1.108233 S    
P5    Ba1   3.432942 S    
O23   P16   1.744306 S    
C53   C59   1.441988 A    
O29   Ba1   2.822967 S    
O22   C30   1.402766 S    
O24   P15   1.739845 S    
C3    C31   1.518807 S    
C8    C12   1.515922 S    
C44   C48   1.394123 A    
P10   O30   1.753055 S    
P15   C48   1.852293 S    
C1    C29   1.518836 S    
C4    C32   1.513199 S    
O42   C6    1.405570 S    
O51   H87   0.990032 S    
P12   O44   1.745181 S    
C38   C46   1.394070 A    
C14   H30   1.108403 S    
C60   C64   1.434082 A    
O9    Ba1   2.818752 S    
C66   C70   1.401522 A    
C44   H74   1.073614 S    
O50   H86   0.990844 S    
C34   C62   1.389006 A    
C65   C69   1.401588 A    
C31   H67   1.113711 S    
C68   C72   1.401531 A    
C15   C19   1.520983 S    
O10   Ba2   2.823675 S    
P6    O26   1.545475 D    
O49   H85   0.990042 S    
C25   H53   1.108009 S    
P1    O5    1.592778 S    
O44   C8    1.405590 S    
C41   H75   1.075228 S    
C1    H7    1.110997 S    
C6    C10   1.515942 S    
C57   C61   1.438137 A    
C18   H42   1.108665 S    
C5    C9    1.513539 S    
Ba1   Ba2   4.670702 S    
Ba1   O45   2.850150 S    
O39   C16   1.393923 S    
C58   C62   1.434085 A    
C2    H8    1.110187 S    
C7    C11   1.513571 S    
P8    O47   1.597817 S    
C12   H22   1.110601 S    
C16   C20   1.522428 S    
C1    H9    1.108591 S    
C44   C58   1.408182 A    
Ba4   O48   2.847661 S    
C40   C52   1.406549 A    
P10   O34   1.544530 D    
Ba2   O45   2.965703 S    
P1    O1    1.546162 D    
C4    H12   1.110944 S    
P11   O31   1.756017 S    
O2    Ba2   2.862827 S    
O17   C21   1.398795 S    
P2    O6    1.588466 S    
O27   Ba3   2.866203 S    
O28   Ba4   2.876108 S    
O9    P14   1.752209 S    
C38   Cl6   1.746230 S    
C3    H11   1.108652 S    
O24   C32   1.402807 S    
C37   Cl5   1.744533 S    
C21   H49   1.110888 S    
P8    O28   1.545475 D    
P6    O45   1.597817 S    
C28   H64   1.108401 S    
C22   C26   1.520614 S    
C17   O49   1.394282 S    
C36   H84   1.075183 S    
C13   H33   1.111133 S    
P6    Ba2   3.439024 S    
C8    H16   1.110952 S    
O3    Ba3   2.872631 S    
C2    C30   1.513130 S    
C59   C63   1.438124 A    
P8    Ba4   3.439024 S    
C33   C65   1.390554 A    
P6    O38   1.743074 S    
P7    Ba3   3.432942 S    
C27   H55   1.108138 S    
H2    C30   1.111081 S    
C15   H35   1.111135 S    
O19   C23   1.398893 S    
C14   H34   1.111649 S    
P8    O40   1.743074 S    
C37   C49   1.406770 A    
C21   C25   1.515966 S    
C36   C68   1.388129 A    
C23   H47   1.105559 S    
C4    H6    1.110199 S    
C13   C17   1.521014 S    
O12   Ba4   2.823675 S    
O40   C15   1.395363 S    
C35   C63   1.393402 A    
O11   P16   1.752195 S    
O14   P13   1.540693 D    
O25   Ba1   2.866203 S    
O43   C7    1.399655 S    
P9    O33   1.539380 D    
C7    H19   1.112517 S    
P10   O42   1.745193 S    
O8    Ba3   2.847696 S    
C72   H78   1.078766 S    
C26   H58   1.107588 S    
C38   C50   1.406576 A    
H4    C32   1.111113 S    
C27   H63   1.110041 S    
P7    C64   1.876753 S    
C24   C28   1.520597 S    
P3    C51   1.900887 S    
P1    Ba1   3.436670 S    
O21   P14   1.744366 S    
C53   C71   1.412814 A    
P3    O7    1.592778 S    
C50   C54   1.437181 A    
C10   H24   1.110539 S    
P5    O25   1.548576 D    
C9    H71   1.109010 S    
P10   C65   1.849820 S    
C21   H45   1.105761 S    
C39   C51   1.406732 A    
P9    C66   1.841863 S    
C22   H50   1.110845 S    
C5    H13   1.110118 S    
P12   O32   1.753031 S    
C6    H14   1.110916 S    
Ba4   O47   2.965703 S    
O52   H88   0.990854 S    
O20   C24   1.400818 S    
C11   H21   1.107685 S    
C35   H83   1.075384 S    
O13   P14   1.542336 D    
C19   H39   1.109407 S    
P5    O46   1.593453 S    
H1    C29   1.111149 S    
C7    H15   1.110111 S    
C23   C27   1.516249 S    
C13   H29   1.107993 S    
C43   C47   1.396787 A    
P1    C49   1.900890 S    
C55   C57   1.441981 A    
C41   C59   1.410649 A    
