data_mof_unit_55329.cif
_audit_creation_date              2012-12-10T20:03:10-0500
_audit_creation_method            fapswitch 2.2
_symmetry_space_group_name_H-M    P1
_symmetry_Int_Tables_number       1
_space_group_crystal_system       triclinic
_cell_length_a                    8.58482
_cell_length_b                    19.134753
_cell_length_c                    18.456892
_cell_angle_alpha                 90.073139
_cell_angle_beta                  98.644361
_cell_angle_gamma                 89.990173
_cell_volume                      2997.44059117

loop_
_atom_site_label
_atom_site_type_symbol
_atom_type_description
_atom_site_fract_x
_atom_site_fract_y
_atom_site_fract_z
_atom_type_partial_charge
C1    C     C_R   0.504098 0.365354 0.500332 1.008493
C2    C     C_R   0.376864 0.470679 0.265744 -0.121243
C3    C     C_R   0.637846 0.519638 0.812074 0.383176
C4    C     C_R   0.371697 0.470716 0.189058 0.352961
C5    C     C_R   0.502912 0.498649 0.841683 -0.156836
C6    C     C_R   0.499102 0.499098 0.158295 -0.135676
C7    C     C_R   0.367798 0.478676 0.793207 0.493389
C8    C     C_R   0.624913 0.528859 0.206357 0.482476
C9    C     C_R   0.369009 0.479745 0.717322 -0.133052
C10   C     C_R   0.622282 0.529115 0.282189 -0.132933
C11   C     C_R   0.464317 0.437601 0.959010 -0.111238
C12   C     C_R   0.503586 0.634745 0.500220 0.997174
C13   C     C_R   0.536997 0.559677 0.040425 -0.139888
C14   C     C_R   0.464180 0.437596 0.035145 -0.130452
C15   C     C_R   0.538382 0.559501 0.964454 -0.154056
C16   C     C_R   0.200864 0.500000 0.480886 0.981605
C17   C     C_R   0.799121 0.500069 0.519110 0.984621
C18   C     C_R   0.500166 0.498708 0.076972 0.177094
C19   C     C_R   0.502139 0.498485 0.922777 0.222638
C20   C     C_2   0.035874 0.499965 0.470502 -0.366327
C21   C     C_2   0.964070 0.500243 0.529476 -0.348884
C22   C     C_R   0.475201 0.750981 0.439395 0.336049
C23   C     C_R   0.569115 0.965649 0.565408 0.636799
C24   C     C_R   0.630291 0.260995 0.563474 0.322443
C25   C     C_R   0.503342 0.822923 0.441598 0.557163
C26   C     C_R   0.670684 0.190524 0.562231 0.561443
C27   C     C_R   0.594504 0.852937 0.503066 -0.087914
C28   C     C_R   0.607569 0.148650 0.503016 -0.075117
C29   C     C_R   0.654250 0.811882 0.563192 -0.248972
C30   C     C_R   0.509691 0.177371 0.443120 -0.263277
C31   C     C_R   0.617824 0.741112 0.564260 0.443320
C32   C     C_R   0.475661 0.248704 0.441201 0.446902
C33   C     C_R   0.529322 0.710164 0.501768 -0.356468
C34   C     C_R   0.681455 0.036057 0.450601 0.648864
C35   C     C_R   0.533339 0.290340 0.502358 -0.351641
C36   C     C_3   0.469580 0.716670 0.320830 -0.144791
C37   C     C_3   0.618174 0.292323 0.681395 -0.129849
C38   C     C_3   0.597492 0.715642 0.682605 -0.220994
C39   C     C_3   0.444079 0.275724 0.319498 -0.186675
C40   C     C_3   0.835283 0.599096 0.847152 -0.242339
C41   C     C_3   0.121916 0.490899 0.133916 -0.171585
C42   C     C_R   0.574585 0.037923 0.565374 -0.262828
C43   C     C_R   0.676995 0.963484 0.450812 -0.254071
C44   C     C_R   0.627181 0.073280 0.507311 -0.029621
C45   C     C_R   0.617236 0.928268 0.507215 -0.041193
C46   C     C_R   0.633304 0.518855 0.735046 -0.122587
F1    F     F_    0.234413 0.459193 0.819051 -0.644298
F2    F     F_    0.751769 0.556044 0.180473 -0.690293
F3    F     F_    0.436389 0.863800 0.385237 -0.639647
F4    F     F_    0.771359 0.162801 0.618754 -0.635339
F5    F     F_    0.507382 0.932506 0.619603 -0.655157
F6    F     F_    0.734305 0.069964 0.394470 -0.639342
H1    H     H_    0.973967 0.499639 0.414545 0.180563
H2    H     H_    0.455934 0.143910 0.398918 0.210971
H3    H     H_    0.530014 0.066477 0.608685 0.208722
H4    H     H_    0.715760 0.934749 0.406146 0.213945
H5    H     H_    0.737358 0.531991 0.711552 0.182741
H6    H     H_    0.281292 0.447481 0.289450 0.179475
H7    H     H_    0.402388 0.684372 0.276874 0.170477
H8    H     H_    0.585425 0.690545 0.337503 0.132873
H9    H     H_    0.487243 0.768951 0.297257 0.199850
H10   H     H_    0.488913 0.300774 0.666542 0.137526
H11   H     H_    0.662069 0.331075 0.724423 0.181126
H12   H     H_    0.025911 0.500627 0.585422 0.180407
H13   H     H_    0.641553 0.239403 0.705323 0.193489
H14   H     H_    0.633281 0.677166 0.726680 0.156041
H15   H     H_    0.467691 0.710299 0.666240 0.170693
H16   H     H_    0.627136 0.768545 0.705585 0.177634
H17   H     H_    0.562180 0.301151 0.328517 0.162395
H18   H     H_    0.368946 0.305838 0.276283 0.189731
H19   H     H_    0.453105 0.221589 0.298648 0.171725
H20   H     H_    0.743037 0.639915 0.847564 0.118837
H21   H     H_    0.887111 0.601215 0.795577 0.172788
H22   H     H_    0.931143 0.611392 0.892680 0.203858
H23   H     H_    0.264737 0.463944 0.680688 0.177824
H24   H     H_    0.159180 0.538982 0.107200 0.155271
H25   H     H_    0.079500 0.504294 0.186319 0.184817
H26   H     H_    0.021164 0.468042 0.096759 0.217439
H27   H     H_    0.719112 0.552260 0.318567 0.168416
H28   H     H_    0.436824 0.389706 0.928431 0.168292
H29   H     H_    0.562767 0.607926 0.070553 0.176240
H30   H     H_    0.437596 0.389446 0.061493 0.179806
H31   H     H_    0.565456 0.607488 0.937982 0.141081
H32   H     H_    0.727264 0.835176 0.610017 0.208884
N1    N     N_R   0.500020 0.499980 0.689440 -0.144224
N2    N     N_R   0.499980 0.500020 0.310560 -0.142842
O1    O     O_R   0.500010 0.398180 0.560840 -0.592608
O2    O     O_3   0.698551 0.302717 0.620943 -0.557225
O3    O     O_3   0.680331 0.700934 0.623882 -0.591741
O4    O     O_3   0.372633 0.276706 0.383544 -0.586306
O5    O     O_3   0.777196 0.531791 0.859049 -0.565925
O6    O     O_3   0.244406 0.441195 0.144885 -0.619968
O7    O     O_R   0.499990 0.601820 0.439160 -0.597913
O8    O     O_R   0.499930 0.398180 0.439210 -0.593643
O9    O     O_R   0.500070 0.601820 0.560790 -0.584233
O10   O     O_R   0.271780 0.500000 0.546590 -0.633976
O11   O     O_R   0.728220 0.500000 0.453410 -0.637036
O12   O     O_R   0.271710 0.499990 0.424960 -0.619383
O13   O     O_R   0.728290 0.500010 0.575040 -0.609543
O14   O     O_3   0.381679 0.721511 0.379459 -0.560318
Zn1   Zn    Zn3+2 0.500050 0.500000 0.581210 0.982215
Zn2   Zn    Zn3+2 0.499950 0.500000 0.418790 0.968703

loop_
_geom_bond_atom_site_label_1
_geom_bond_atom_site_label_2
_ccdc_geom_bond_type
C1    O1    A    
C23   C45   A    
C27   C29   A    
C14   C18   A    
C37   O2    S    
C36   H7    S    
C37   H10   S    
C15   C19   A    
C30   H2    S    
C38   O3    S    
C11   C19   A    
C23   C42   A    
C13   C18   A    
C24   C26   A    
C26   F4    S    
C41   H25   S    
C11   C14   A    
C13   H29   S    
C40   H21   S    
C3    O5    S    
C21   H12   S    
C9    N1    A    
O1    Zn1   S    
C32   O4    S    
C38   H14   S    
C40   H22   S    
C1    O8    A    
C31   O3    S    
C22   C25   A    
C37   H13   S    
C31   C33   A    
C12   O9    A    
C39   O4    S    
O11   Zn2   S    
C46   N1    A    
C27   C45   S    
O10   Zn1   S    
C42   C44   A    
C37   H11   S    
C6    C18   S    
C16   O10   A    
C24   C35   A    
C22   O14   S    
C32   C35   A    
C34   C44   A    
C29   H32   S    
C4    C6    A    
C41   H26   S    
C5    C7    A    
C15   H31   S    
C36   H8    S    
O12   Zn2   S    
C17   O13   A    
C17   C21   S    
C7    F1    S    
C2    C4    A    
C8    F2    S    
C42   H3    S    
C43   C45   A    
C23   F5    S    
C16   C20   S    
C39   H17   S    
C36   O14   S    
C38   H15   S    
C24   O2    S    
O13   Zn1   S    
C38   H16   S    
C13   C15   A    
C46   H5    S    
C12   O7    A    
C14   H30   S    
C36   H9    S    
N2    Zn2   S    
N1    Zn1   S    
C1    C35   S    
C7    C9    A    
C22   C33   A    
C10   N2    A    
C40   H20   S    
C26   C28   A    
C34   C43   A    
C20   H1    S    
C3    C5    A    
O7    Zn2   S    
C6    C8    A    
C10   H27   S    
C2    H6    S    
C5    C19   S    
C25   C27   A    
C3    C46   A    
C34   F6    S    
C28   C30   A    
C29   C31   A    
C41   H24   S    
C30   C32   A    
C16   O12   A    
C39   H18   S    
C28   C44   S    
C2    N2    A    
C40   O5    S    
C25   F3    S    
C11   H28   S    
C43   H4    S    
C41   O6    S    
C20   C21   D    
O8    Zn2   S    
C8    C10   A    
C39   H19   S    
C9    H23   S    
C12   C33   S    
C17   O11   A    
O9    Zn1   S    
C4    O6    S    
