data_mof_unit_57035.cif
_audit_creation_date              2012-12-11T14:28:34-0500
_audit_creation_method            fapswitch 2.2
_symmetry_space_group_name_H-M    P1
_symmetry_Int_Tables_number       1
_space_group_crystal_system       triclinic
_cell_length_a                    10.993546
_cell_length_b                    19.251046
_cell_length_c                    18.594188
_cell_angle_alpha                 90.509525
_cell_angle_beta                  90.28086
_cell_angle_gamma                 89.32434
_cell_volume                      3934.74850017

loop_
_atom_site_label
_atom_site_type_symbol
_atom_type_description
_atom_site_fract_x
_atom_site_fract_y
_atom_site_fract_z
_atom_type_partial_charge
C1    C     C_R   0.316841 0.965189 0.645455 0.556096
C2    C     C_R   0.318744 0.968873 0.854009 0.558559
C3    C     C_R   0.318659 0.038975 0.357141 0.565651
C4    C     C_R   0.322696 0.030433 0.146465 0.563805
C5    C     C_R   0.816840 0.465196 0.645459 0.556108
C6    C     C_R   0.818744 0.468872 0.854010 0.558551
C7    C     C_R   0.818657 0.538979 0.357144 0.565641
C8    C     C_R   0.822696 0.530433 0.146465 0.563800
C9    C     C_3   0.210240 0.772121 0.446905 0.051947
C10   C     C_3   0.210465 0.758343 0.050515 0.044185
C11   C     C_3   0.210953 0.273497 0.546238 0.057059
C12   C     C_3   0.170559 0.298491 0.971377 0.074292
C13   C     C_3   0.710232 0.272134 0.446903 0.051934
C14   C     C_3   0.710463 0.258339 0.050513 0.044184
C15   C     C_3   0.710953 0.773492 0.546239 0.057063
C16   C     C_3   0.670569 0.798488 0.971374 0.074285
C17   C     C_3   0.083524 0.747755 0.427545 0.040014
C18   C     C_3   0.079624 0.747710 0.072325 0.023382
C19   C     C_3   0.087619 0.251971 0.574896 0.043962
C20   C     C_3   0.088998 0.252659 0.924926 0.029383
C21   C     C_3   0.583522 0.247756 0.427546 0.040014
C22   C     C_3   0.579622 0.247709 0.072324 0.023385
C23   C     C_3   0.587613 0.751973 0.574894 0.043966
C24   C     C_3   0.588999 0.752659 0.924926 0.029386
C25   C     C_R   0.319127 0.020955 0.431586 0.003499
C26   C     C_R   0.337802 0.996920 0.075204 0.006826
C27   C     C_R   0.312888 0.996615 0.576293 -0.020204
C28   C     C_R   0.321849 0.003730 0.924999 -0.027736
C29   C     C_R   0.819118 0.520963 0.431591 0.003453
C30   C     C_R   0.837803 0.496922 0.075204 0.006798
C31   C     C_R   0.812878 0.496633 0.576302 -0.020194
C32   C     C_R   0.821847 0.503730 0.924999 -0.027731
C33   C     C_R   0.548378 0.993875 0.438701 0.152980
C34   C     C_R   0.570444 0.011247 0.062573 0.158908
C35   C     C_R   0.527791 0.035043 0.583660 0.174159
C36   C     C_R   0.531676 0.040684 0.916335 0.170756
C37   C     C_R   0.048362 0.493879 0.438709 0.152983
C38   C     C_R   0.070445 0.511254 0.062570 0.158922
C39   C     C_R   0.027783 0.535055 0.583666 0.174159
C40   C     C_R   0.031670 0.540687 0.916332 0.170758
C41   C     C_R   0.651626 0.003064 0.481999 -0.139498
C42   C     C_R   0.666117 0.029629 0.017409 -0.089890
C43   C     C_R   0.641634 0.027629 0.552177 -0.108604
C44   C     C_R   0.647724 0.043016 0.945274 -0.097950
C45   C     C_R   0.151613 0.503071 0.482003 -0.139477
C46   C     C_R   0.166116 0.529635 0.017403 -0.089894
C47   C     C_R   0.141624 0.527640 0.552180 -0.108595
C48   C     C_R   0.147719 0.543020 0.945268 -0.097966
C49   C     C_R   0.423331 0.014362 0.543905 -0.025660
C50   C     C_R   0.434592 0.015125 0.958179 -0.016848
C51   C     C_R   0.430185 0.007615 0.469215 -0.026834
C52   C     C_R   0.448096 0.006160 0.033876 -0.020421
C53   C     C_R   0.923320 0.514377 0.543913 -0.025664
C54   C     C_R   0.934590 0.515127 0.958178 -0.016843
C55   C     C_R   0.930173 0.507626 0.469223 -0.026862
C56   C     C_R   0.948096 0.506163 0.033874 -0.020432
C57   C     C_R   0.199841 0.000099 0.537341 -0.016471
C58   C     C_R   0.215482 0.002657 0.966684 -0.017331
C59   C     C_R   0.204737 0.027307 0.469669 0.007693
C60   C     C_R   0.225692 0.986058 0.039206 0.001225
C61   C     C_R   0.699827 0.500120 0.537350 -0.016466
C62   C     C_R   0.715481 0.502656 0.966684 -0.017322
C63   C     C_R   0.704725 0.527317 0.469672 0.007685
C64   C     C_R   0.725692 0.486058 0.039206 0.001224
C65   C     C_R   0.081553 0.977315 0.560839 -0.085309
C66   C     C_R   0.098213 0.015208 0.937303 -0.089513
C67   C     C_R   0.092865 0.056603 0.442744 -0.062773
C68   C     C_R   0.119413 0.964680 0.075497 -0.069336
C69   C     C_R   0.581532 0.477348 0.560855 -0.085332
C70   C     C_R   0.598212 0.515207 0.937304 -0.089514
C71   C     C_R   0.592853 0.556606 0.442738 -0.062757
C72   C     C_R   0.619414 0.464680 0.075498 -0.069340
C73   C     C_R   0.975192 0.999971 0.528809 -0.147171
C74   C     C_R   0.994440 0.004142 0.977472 -0.107448
C75   C     C_R   0.980695 0.042789 0.471270 -0.155113
C76   C     C_R   0.004791 0.977506 0.046340 -0.103532
C77   C     C_R   0.475175 0.499991 0.528811 -0.147188
C78   C     C_R   0.494439 0.504143 0.977474 -0.107455
C79   C     C_R   0.480682 0.542794 0.471261 -0.155103
C80   C     C_R   0.504791 0.477508 0.046343 -0.103530
C81   C     C_R   0.188149 0.771871 0.636567 0.566027
C82   C     C_R   0.183345 0.771206 0.864166 0.557244
C83   C     C_R   0.184636 0.228878 0.363988 0.547267
C84   C     C_R   0.137958 0.240672 0.141769 0.566572
C85   C     C_R   0.688149 0.271872 0.636567 0.566038
C86   C     C_R   0.683343 0.271205 0.864166 0.557236
C87   C     C_R   0.684636 0.728878 0.363988 0.547257
C88   C     C_R   0.637961 0.740672 0.141768 0.566575
C89   C     C_R   0.544042 0.769067 0.646118 0.560048
C90   C     C_R   0.548565 0.767968 0.852169 0.555443
C91   C     C_R   0.540295 0.229471 0.356116 0.579815
C92   C     C_R   0.539731 0.229362 0.143924 0.578630
C93   C     C_R   0.044046 0.269066 0.646119 0.560042
C94   C     C_R   0.048565 0.267968 0.852169 0.555436
C95   C     C_R   0.040298 0.729472 0.356115 0.579808
C96   C     C_R   0.039731 0.729362 0.143924 0.578623
C97   C     C_3   0.024997 0.798092 0.481128 -0.111709
C98   C     C_3   0.036038 0.807454 0.024596 -0.119708
C99   C     C_3   0.097344 0.182019 0.537410 -0.156885
C100  C     C_3   0.133358 0.187251 0.963632 -0.164679
C101  C     C_3   0.524985 0.298089 0.481130 -0.111697
C102  C     C_3   0.536038 0.307455 0.024598 -0.119704
C103  C     C_3   0.597327 0.682021 0.537407 -0.156862
C104  C     C_3   0.633353 0.687250 0.963631 -0.164670
C105  C     C_3   0.153634 0.823068 0.502275 -0.134940
C106  C     C_3   0.169510 0.818350 0.001123 -0.133525
C107  C     C_3   0.222578 0.203036 0.506472 -0.179115
C108  C     C_3   0.215876 0.233602 0.011375 -0.144310
C109  C     C_3   0.653616 0.323075 0.502276 -0.134927
C110  C     C_3   0.669510 0.318348 0.001124 -0.133530
C111  C     C_3   0.722568 0.703031 0.506472 -0.179097
C112  C     C_3   0.715880 0.733598 0.011372 -0.144318
C113  C     C_3   0.160985 0.765308 0.558939 0.019364
C114  C     C_3   0.150077 0.764853 0.940378 0.022298
C115  C     C_3   0.155123 0.235884 0.441552 0.025214
C116  C     C_3   0.110216 0.243902 0.064917 0.062509
C117  C     C_3   0.660983 0.265313 0.558938 0.019370
C118  C     C_3   0.650071 0.264853 0.940377 0.022298
C119  C     C_3   0.655123 0.735884 0.441552 0.025201
C120  C     C_3   0.610223 0.743902 0.064915 0.062503
C121  C     C_3   0.034377 0.740211 0.537901 -0.107784
C122  C     C_3   0.018116 0.754686 0.962803 -0.118572
C123  C     C_3   0.031588 0.214536 0.471735 -0.117597
C124  C     C_3   0.029403 0.196399 0.018863 -0.091784
C125  C     C_3   0.534381 0.240208 0.537902 -0.107788
C126  C     C_3   0.518110 0.254688 0.962803 -0.118566
C127  C     C_3   0.531581 0.714544 0.471732 -0.117642
C128  C     C_3   0.529401 0.696402 0.018863 -0.091786
C129  C     C_3   0.092500 0.690109 0.483530 -0.144856
C130  C     C_3   0.060864 0.694864 0.011527 -0.135802
C131  C     C_3   0.022641 0.285195 0.510692 -0.127147
C132  C     C_3   0.985598 0.262315 0.979174 -0.128860
C133  C     C_3   0.592512 0.190110 0.483529 -0.144868
C134  C     C_3   0.560856 0.194864 0.011527 -0.135806
C135  C     C_3   0.522645 0.785202 0.510689 -0.127178
C136  C     C_3   0.485602 0.762320 0.979174 -0.128856
C137  C     C_3   0.220948 0.714526 0.504241 -0.133848
C138  C     C_3   0.194339 0.705003 0.989147 -0.121023
C139  C     C_3   0.147140 0.306836 0.481079 -0.102465
C140  C     C_3   0.067330 0.309232 0.025482 -0.121414
C141  C     C_3   0.720955 0.214537 0.504237 -0.133850
C142  C     C_3   0.694330 0.205000 0.989146 -0.121026
C143  C     C_3   0.647151 0.806837 0.481080 -0.102473
C144  C     C_3   0.567343 0.809234 0.025480 -0.121409
Cr1   Cr    Cr6+3 0.488160 0.884660 0.750000 1.069289
Cr2   Cr    Cr6+3 0.488160 0.115340 0.250000 1.042756
Cr3   Cr    Cr6+3 0.988160 0.384660 0.750000 1.069279
Cr4   Cr    Cr6+3 0.988160 0.615340 0.250000 1.042786
Cr5   Cr    Cr6+3 0.173480 0.883120 0.750000 1.000957
Cr6   Cr    Cr6+3 0.173480 0.116880 0.250000 1.036607
Cr7   Cr    Cr6+3 0.673480 0.383120 0.750000 1.000965
Cr8   Cr    Cr6+3 0.673480 0.616880 0.250000 1.036612
Cr9   Cr    Cr6+3 0.333410 0.727260 0.750000 0.975533
Cr10  Cr    Cr6+3 0.333410 0.272740 0.250000 0.993317
Cr11  Cr    Cr6+3 0.833410 0.227260 0.750000 0.975537
Cr12  Cr    Cr6+3 0.833410 0.772740 0.250000 0.993290
H1    H     H_    0.194571 0.874171 0.507910 0.129748
H2    H     H_    0.223728 0.864509 0.989940 0.133322
H3    H     H_    0.304710 0.169379 0.501623 0.087874
H4    H     H_    0.309627 0.220441 0.028689 0.106323
H5    H     H_    0.694518 0.374187 0.507916 0.129751
H6    H     H_    0.723731 0.364506 0.989942 0.133317
H7    H     H_    0.804695 0.669370 0.501627 0.087878
H8    H     H_    0.809631 0.720432 0.028685 0.106316
H9    H     H_    0.888911 0.985829 0.549954 0.156652
H10   H     H_    0.906551 0.014509 0.953890 0.128818
H11   H     H_    0.899138 0.065845 0.448518 0.108833
H12   H     H_    0.924577 0.966243 0.077367 0.135818
H13   H     H_    0.388893 0.485855 0.549959 0.156631
H14   H     H_    0.406550 0.514509 0.953891 0.128801
H15   H     H_    0.399126 0.565844 0.448501 0.108847
H16   H     H_    0.424578 0.466246 0.077371 0.135848
H17   H     H_    0.944841 0.831762 0.469431 0.162154
H18   H     H_    0.967192 0.845215 0.043711 0.172828
H19   H     H_    0.076087 0.134059 0.567021 0.147117
H20   H     H_    0.167981 0.141199 0.934470 0.111973
H21   H     H_    0.444822 0.331752 0.469432 0.162157
H22   H     H_    0.467198 0.345217 0.043715 0.172846
H23   H     H_    0.576057 0.634063 0.567018 0.147119
H24   H     H_    0.667972 0.641197 0.934468 0.111974
H25   H     H_    0.968030 0.721557 0.576206 0.158356
H26   H     H_    0.940642 0.755149 0.924894 0.159670
H27   H     H_    0.959496 0.187984 0.441102 0.171742
H28   H     H_    0.970828 0.154183 0.038630 0.154836
H29   H     H_    0.468033 0.221554 0.576206 0.158358
H30   H     H_    0.440630 0.255151 0.924898 0.159653
H31   H     H_    0.459486 0.687998 0.441095 0.171727
H32   H     H_    0.470822 0.654189 0.038632 0.154829
H33   H     H_    0.061095 0.636806 0.472756 0.139789
H34   H     H_    0.009898 0.646458 0.019247 0.125298
H35   H     H_    0.940475 0.319079 0.514628 0.103233
H36   H     H_    0.893633 0.277384 0.961494 0.106812
H37   H     H_    0.561123 0.136804 0.472755 0.139795
H38   H     H_    0.509888 0.146459 0.019247 0.125297
H39   H     H_    0.440485 0.819091 0.514625 0.103247
H40   H     H_    0.393638 0.777393 0.961496 0.106811
H41   H     H_    0.298111 0.679315 0.517398 0.117457
H42   H     H_    0.263605 0.665365 0.974024 0.113230
H43   H     H_    0.171729 0.357640 0.458130 0.153115
H44   H     H_    0.033485 0.359573 0.046506 0.151463
H45   H     H_    0.798122 0.179331 0.517396 0.117460
H46   H     H_    0.763594 0.165362 0.974021 0.113234
H47   H     H_    0.671753 0.857639 0.458133 0.153106
H48   H     H_    0.533507 0.859577 0.046506 0.151483
H49   H     H_    0.740425 0.992997 0.459735 0.114596
H50   H     H_    0.756072 0.036403 0.039800 0.122090
H51   H     H_    0.722040 0.041431 0.582411 0.111191
H52   H     H_    0.722605 0.060633 0.912904 0.102133
H53   H     H_    0.240410 0.493000 0.459739 0.114604
H54   H     H_    0.256072 0.536409 0.039792 0.122084
H55   H     H_    0.222030 0.541443 0.582414 0.111186
H56   H     H_    0.222597 0.560639 0.912896 0.102146
H57   H     H_    0.086529 0.094586 0.402440 0.186281
H58   H     H_    0.124870 0.941510 0.128346 0.158654
H59   H     H_    0.063671 0.937790 0.599537 0.179917
H60   H     H_    0.086067 0.036423 0.883980 0.129572
H61   H     H_    0.586514 0.594584 0.402430 0.186294
H62   H     H_    0.624872 0.441510 0.128346 0.158662
H63   H     H_    0.563626 0.437847 0.599570 0.179911
H64   H     H_    0.586064 0.536421 0.883980 0.129568
O1    O     O_R   0.575450 0.828820 0.667950 -0.476722
O2    O     O_R   0.575450 0.828820 0.832050 -0.462817
O3    O     O_R   0.575450 0.171180 0.332050 -0.497019
O4    O     O_R   0.575450 0.171180 0.167950 -0.490785
O5    O     O_R   0.075450 0.328820 0.667950 -0.476722
O6    O     O_R   0.075450 0.328820 0.832050 -0.462812
O7    O     O_R   0.075450 0.671180 0.332050 -0.496987
O8    O     O_R   0.075450 0.671180 0.167950 -0.490760
O9    O     O_R   0.416860 0.942890 0.674680 -0.463937
O10   O     O_R   0.416860 0.942890 0.825320 -0.464205
O11   O     O_R   0.416860 0.057110 0.325320 -0.478101
O12   O     O_R   0.416860 0.057110 0.174680 -0.471366
O13   O     O_R   0.916860 0.442890 0.674680 -0.463938
O14   O     O_R   0.916860 0.442890 0.825320 -0.464217
O15   O     O_R   0.916860 0.557110 0.325320 -0.478092
O16   O     O_R   0.916860 0.557110 0.174680 -0.471347
O17   O     O_R   0.213790 0.953680 0.668330 -0.571498
O18   O     O_R   0.213790 0.953680 0.831670 -0.545105
O19   O     O_R   0.213790 0.046320 0.331670 -0.538545
O20   O     O_R   0.213790 0.046320 0.168330 -0.520324
O21   O     O_R   0.713790 0.453680 0.668330 -0.571511
O22   O     O_R   0.713790 0.453680 0.831670 -0.545108
O23   O     O_R   0.713790 0.546320 0.331670 -0.538538
O24   O     O_R   0.713790 0.546320 0.168330 -0.520320
O25   O     O_R   0.121360 0.817890 0.672660 -0.487335
O26   O     O_R   0.121360 0.817890 0.827340 -0.479175
O27   O     O_R   0.121360 0.182110 0.327340 -0.509963
O28   O     O_R   0.121360 0.182110 0.172660 -0.466828
O29   O     O_R   0.621360 0.317890 0.672660 -0.487307
O30   O     O_R   0.621360 0.317890 0.827340 -0.479170
O31   O     O_R   0.621360 0.682110 0.327340 -0.509984
O32   O     O_R   0.621360 0.682110 0.172660 -0.466825
O33   O     O_R   0.206850 0.711370 0.665820 -0.527209
O34   O     O_R   0.206850 0.711370 0.834180 -0.535282
O35   O     O_R   0.206850 0.288630 0.334180 -0.545876
O36   O     O_R   0.206850 0.288630 0.165820 -0.558021
O37   O     O_R   0.706850 0.211370 0.665820 -0.527209
O38   O     O_R   0.706850 0.211370 0.834180 -0.535301
O39   O     O_R   0.706850 0.788630 0.334180 -0.545875
O40   O     O_R   0.706850 0.788630 0.165820 -0.558031
O41   O     O_R   0.457710 0.733190 0.672630 -0.538643
O42   O     O_R   0.457710 0.733190 0.827370 -0.536858
O43   O     O_R   0.457710 0.266810 0.327370 -0.515524
O44   O     O_R   0.457710 0.266810 0.172630 -0.514659
O45   O     O_R   0.957710 0.233190 0.672630 -0.538641
O46   O     O_R   0.957710 0.233190 0.827370 -0.536856
O47   O     O_R   0.957710 0.766810 0.327370 -0.515546
O48   O     O_R   0.957710 0.766810 0.172630 -0.514671
O49   O     O_3   0.331690 0.831680 0.750000 -0.317516
O50   O     O_3   0.331690 0.168320 0.250000 -0.305308
O51   O     O_3   0.831690 0.331680 0.750000 -0.317510
O52   O     O_3   0.831690 0.668320 0.250000 -0.305307
C145  C     C_2   0.282449 0.794775 0.383564 0.533006
O53   O     O_2   0.261585 0.852240 0.358784 -0.550803
O54   O     O_R   0.357772 0.747877 0.346764 -0.693261
H65   H     H_    0.396103 0.768929 0.302675 0.349324
C146  C     C_2   0.303668 0.762105 0.109369 0.556384
O55   O     O_2   0.335801 0.709163 0.140270 -0.516200
O56   O     O_R   0.345791 0.826706 0.132390 -0.736391
H66   H     H_    0.400840 0.822790 0.176050 0.322222
C147  C     C_2   0.295533 0.306949 0.599320 0.575090
O57   O     O_2   0.324721 0.276058 0.654079 -0.534879
O58   O     O_R   0.329455 0.375475 0.590319 -0.738454
H67   H     H_    0.375726 0.393807 0.633644 0.330114
C148  C     C_2   0.254705 0.353512 0.946077 0.566824
O59   O     O_2   0.282031 0.400412 0.987041 -0.600049
O60   O     O_R   0.304508 0.350193 0.877113 -0.675425
H68   H     H_    0.361582 0.390003 0.867455 0.335945
C149  C     C_2   0.782421 0.294790 0.383555 0.532996
O61   O     O_2   0.761475 0.352233 0.358739 -0.550727
O62   O     O_R   0.857840 0.247912 0.346792 -0.693313
H69   H     H_    0.896140 0.268959 0.302691 0.349304
C150  C     C_2   0.803665 0.262095 0.109368 0.556395
O63   O     O_2   0.835798 0.209149 0.140263 -0.516207
O64   O     O_R   0.845783 0.326693 0.132399 -0.736392
H70   H     H_    0.900827 0.322772 0.176061 0.322222
C151  C     C_2   0.795533 0.806938 0.599326 0.575087
O65   O     O_2   0.824709 0.776044 0.654085 -0.534889
O66   O     O_R   0.829470 0.875462 0.590329 -0.738466
H71   H     H_    0.875744 0.893790 0.633654 0.330127
C152  C     C_2   0.754716 0.853504 0.946064 0.566832
O67   O     O_2   0.782029 0.900416 0.987015 -0.600045
O68   O     O_R   0.804528 0.850170 0.877103 -0.675436
H72   H     H_    0.861598 0.889980 0.867437 0.335957
N1    N     N_2   0.568623 0.970485 0.366498 -0.489696
H73   H     H_    0.656660 0.974093 0.347957 0.236951
C153  C     C_3   0.506844 0.908738 0.342378 -0.252316
H74   H     H_    0.424881 0.923331 0.311100 0.206673
H75   H     H_    0.483662 0.875345 0.388341 0.176934
H76   H     H_    0.564959 0.878909 0.304630 0.151012
N2    N     N_2   0.602265 0.001830 0.136207 -0.477669
H77   H     H_    0.662859 0.038339 0.155188 0.265447
C154  C     C_3   0.638435 0.932882 0.156769 -0.277604
H78   H     H_    0.678692 0.934247 0.211612 0.125839
H79   H     H_    0.708287 0.911919 0.119315 0.194176
H80   H     H_    0.557627 0.899427 0.158452 0.166956
N3    N     N_2   0.519463 0.064710 0.654219 -0.489856
H81   H     H_    0.600237 0.073683 0.681005 0.252402
C155  C     C_3   0.424332 0.115932 0.667447 -0.262343
H82   H     H_    0.357151 0.094098 0.704577 0.158047
H83   H     H_    0.373975 0.129897 0.617832 0.134464
H84   H     H_    0.463755 0.163662 0.691429 0.191830
N4    N     N_2   0.509535 0.072401 0.848225 -0.489476
H85   H     H_    0.585248 0.080718 0.817049 0.259089
C156  C     C_3   0.422232 0.129690 0.848371 -0.285557
H86   H     H_    0.338822 0.114424 0.819133 0.135394
H87   H     H_    0.461712 0.176017 0.822634 0.179643
H88   H     H_    0.392800 0.143871 0.903538 0.124400
N5    N     N_2   0.068596 0.470472 0.366510 -0.489706
H89   H     H_    0.156635 0.474063 0.347968 0.236956
C157  C     C_3   0.006786 0.408730 0.342405 -0.252372
H90   H     H_    0.924843 0.423328 0.311113 0.206657
H91   H     H_    0.983564 0.375359 0.388379 0.176901
H92   H     H_    0.064895 0.378876 0.304676 0.151041
N6    N     N_2   0.102271 0.501839 0.136204 -0.477657
H93   H     H_    0.162904 0.538327 0.155178 0.265419
C158  C     C_3   0.138360 0.432883 0.156776 -0.277611
H94   H     H_    0.178584 0.434238 0.211627 0.125870
H95   H     H_    0.208211 0.411899 0.119334 0.194203
H96   H     H_    0.057520 0.399454 0.158444 0.166946
N7    N     N_2   0.019462 0.564714 0.654228 -0.489874
H97   H     H_    0.100238 0.573679 0.681016 0.252389
C159  C     C_3   0.924340 0.615938 0.667465 -0.262347
H98   H     H_    0.857172 0.594108 0.704607 0.158053
H99   H     H_    0.873968 0.629903 0.617856 0.134488
H100  H     H_    0.963776 0.663669 0.691439 0.191834
N8    N     N_2   0.009519 0.572405 0.848225 -0.489493
H101  H     H_    0.085216 0.580702 0.817029 0.259083
C160  C     C_3   0.922219 0.629694 0.848374 -0.285520
H102  H     H_    0.838775 0.614415 0.819166 0.135372
H103  H     H_    0.961682 0.676012 0.822600 0.179643
H104  H     H_    0.892838 0.643897 0.903549 0.124414

loop_
_geom_bond_atom_site_label_1
_geom_bond_atom_site_label_2
_ccdc_geom_bond_type
C6    C32   S    
Cr1   O10   S    
C7    C29   S    
C119  C143  S    
Cr4   O52   S    
O62   H69   S    
C120  C144  S    
C110  C118  S    
C158  H94   S    
C36   C50   A    
Cr10  O44   S    
C152  O67   D    
C4    O12   A    
C121  H25   S    
C16   C144  S    
Cr8   O24   S    
C57   C59   A    
Cr1   O1    S    
C8    O24   A    
C58   C60   A    
C62   C70   A    
C61   C63   A    
C62   C64   A    
Cr10  O43   S    
C144  H48   S    
C23   C103  S    
C48   H56   S    
C49   C51   A    
C34   C42   A    
C84   O36   A    
C50   C52   A    
C23   C89   S    
C88   O32   A    
C97   C105  S    
C128  H32   S    
C73   C75   A    
C42   C44   A    
C20   C132  S    
C21   C133  S    
C116  C140  S    
Cr3   O6    S    
Cr10  O35   S    
C45   C47   A    
C40   N8    S    
C112  H8    S    
C46   C48   A    
C115  C123  S    
N4    H85   S    
Cr2   O50   S    
C27   C57   A    
C87   O39   A    
C112  C120  S    
Cr11  O38   S    
C19   C99   S    
C29   C55   A    
C46   H54   S    
C30   C56   A    
C100  C124  S    
C15   C111  S    
Cr11  O51   S    
O68   H72   S    
C104  C128  S    
C12   C20   S    
C36   N4    S    
C13   C21   S    
C85   C117  S    
Cr11  O45   S    
C137  H41   S    
C113  C137  S    
C36   C44   A    
C33   C51   A    
C38   N6    S    
C80   H16   S    
C37   C45   A    
C130  C138  S    
C158  H96   S    
C91   O43   A    
C39   C47   A    
C40   C48   A    
Cr9   O33   S    
C34   C52   A    
C24   C90   S    
C28   C58   A    
C72   H62   S    
C98   C106  S    
C61   C69   A    
C140  H44   S    
C33   C41   A    
C148  O60   S    
C10   C18   S    
C76   H12   S    
C95   O7    A    
C2    C28   S    
C32   C62   A    
N6    H93   S    
C93   O5    A    
C134  H38   S    
C129  C137  S    
C126  C134  S    
Cr6   O19   S    
C83   O27   A    
C10   C138  S    
C85   O37   A    
Cr10  O50   S    
C130  H34   S    
C96   O48   A    
C143  H47   S    
C14   C142  S    
C85   O29   A    
Cr5   O26   S    
C47   H55   S    
C69   C77   A    
Cr4   O8    S    
Cr6   O50   S    
C71   C79   A    
C110  H6    S    
Cr6   O28   S    
C74   C76   A    
C96   O8    A    
C105  C113  S    
C65   H59   S    
C89   O1    A    
C78   C80   A    
C154  H79   S    
C9    C105  S    
C66   C74   A    
C78   H14   S    
C124  C132  S    
C125  H29   S    
C20   C94   S    
C156  H87   S    
C37   N5    S    
C59   C67   A    
C95   O47   A    
N1    C153  S    
C129  H33   S    
C35   C49   A    
C123  H27   S    
C35   C43   A    
C132  H36   S    
C24   C136  S    
C135  C143  S    
C6    O14   A    
C84   C116  S    
C146  O55   D    
C14   C150  S    
C151  O66   S    
Cr7   O30   S    
Cr2   O11   S    
N7    C159  S    
C100  C108  S    
C82   O26   A    
C83   C115  S    
C103  C127  S    
C73   H9    S    
C3    O11   A    
C104  C112  S    
C88   O40   A    
C1    O17   A    
C45   H53   S    
N4    C156  S    
C87   C119  S    
C150  O63   D    
Cr7   O21   S    
Cr2   O4    S    
C127  H31   S    
Cr12  O48   S    
C57   C65   A    
C149  O61   D    
C15   C151  S    
C15   C143  S    
C160  H104  S    
C40   C54   A    
N2    C154  S    
C102  H22   S    
C10   C106  S    
C67   C75   A    
C160  H103  S    
C138  H42   S    
Cr8   O32   S    
N6    C158  S    
C14   C110  S    
Cr1   O9    S    
C102  C126  S    
C147  O58   S    
C38   C56   A    
C84   O28   A    
Cr4   O15   S    
C81   O33   A    
C14   C22   S    
C159  H99   S    
C72   C80   A    
C145  O54   S    
C114  C138  S    
C10   C146  S    
C66   H60   S    
C90   O42   A    
C157  H92   S    
C38   C46   A    
C131  C139  S    
C2    O10   A    
C37   C55   A    
Cr3   O14   S    
C99   H19   S    
C133  H37   S    
O58   H67   S    
C22   C92   S    
C6    O22   A    
C25   C59   A    
C17   C97   S    
C27   C49   A    
C119  C127  S    
C29   C63   A    
C30   C64   A    
C41   C43   A    
C31   C61   A    
O54   H65   S    
N2    H77   S    
C155  H83   S    
Cr3   O5    S    
C109  C117  S    
Cr10  O36   S    
C11   C19   S    
C160  H102  S    
C142  H46   S    
C127  C135  S    
C136  H40   S    
C128  C136  S    
Cr11  O37   S    
C93   O45   A    
C101  C109  S    
C103  C111  S    
C151  O65   D    
C79   H15   S    
N3    C155  S    
C11   C139  S    
C86   O38   A    
Cr3   O51   S    
C9    C137  S    
C105  H1    S    
C16   C152  S    
C100  H20   S    
O56   H66   S    
C12   C140  S    
C17   C95   S    
C13   C141  S    
C88   C120  S    
C68   H58   S    
C19   C93   S    
Cr12  O39   S    
C77   C79   A    
C32   C54   A    
C158  H95   S    
C152  O68   S    
C7    O15   A    
C43   H51   S    
C153  H74   S    
C126  H30   S    
C97   H17   S    
Cr8   O23   S    
Cr7   O29   S    
N8    H101  S    
Cr1   O2    S    
C83   O35   A    
C117  C141  S    
O66   H71   S    
C148  O59   D    
C134  C142  S    
O60   H68   S    
C20   C100  S    
C92   O4    A    
Cr5   O18   S    
C4    O20   A    
C86   C118  S    
C63   C71   A    
C8    O16   A    
C22   C134  S    
Cr6   O20   S    
C102  C110  S    
C68   C76   A    
C11   C147  S    
C91   O3    A    
C74   H10   S    
C16   C112  S    
C12   C108  S    
C21   C91   S    
C9    C145  S    
Cr5   O25   S    
C116  C124  S    
C123  C131  S    
C69   H63   S    
C121  C129  S    
C4    C26   S    
C120  C128  S    
C124  H28   S    
Cr12  O52   S    
C132  C140  S    
C99   C107  S    
Cr4   O16   S    
C133  C141  S    
C71   H61   S    
C23   C135  S    
C8    C30   S    
C108  C116  S    
Cr5   O49   S    
C136  C144  S    
C159  H98   S    
C154  H78   S    
C39   C53   A    
C42   H50   S    
C103  H23   S    
C156  H86   S    
Cr11  O46   S    
C101  H21   S    
C94   O6    A    
C135  H39   S    
C155  H82   S    
C60   C68   A    
N1    H73   S    
C81   C113  S    
Cr5   O17   S    
C82   O34   A    
C3    O19   A    
C86   O30   A    
Cr9   O34   S    
C13   C149  S    
C70   C78   A    
C18   C96   S    
N5    H89   S    
C157  H90   S    
C35   N3    S    
Cr2   O12   S    
N7    H97   S    
C153  H76   S    
C106  C114  S    
C111  C119  S    
C141  H45   S    
C90   O2    A    
C98   H18   S    
C139  H43   S    
C39   N7    S    
C44   H52   S    
C65   C73   A    
Cr1   O49   S    
C28   C50   A    
C58   C66   A    
O64   H70   S    
C97   C121  S    
C21   C101  S    
C15   C23   S    
C155  H84   S    
C13   C109  S    
C16   C24   S    
C5    O13   A    
Cr4   O7    S    
C53   C55   A    
C19   C131  S    
Cr6   O27   S    
C94   O46   A    
C54   C56   A    
C17   C129  S    
C81   O25   A    
C111  H7    S    
C82   C114  S    
C2    O18   A    
C154  H80   S    
C147  O57   D    
C106  H2    S    
C70   H64   S    
C24   C104  S    
C156  H88   S    
C25   C51   A    
C26   C52   A    
C12   C148  S    
N8    C160  S    
C101  C125  S    
C145  O53   D    
N5    C157  S    
C113  C121  S    
C92   O44   A    
C31   C53   A    
Cr9   O42   S    
C157  H91   S    
C107  C115  S    
C98   C122  S    
Cr3   O13   S    
C9    C17   S    
C146  O56   S    
C11   C107  S    
C67   H57   S    
C33   N1    S    
Cr9   O41   S    
C99   C123  S    
C125  C133  S    
Cr9   O49   S    
C115  C139  S    
C118  C142  S    
C107  H3    S    
C108  H4    S    
C131  H35   S    
C118  C126  S    
C22   C102  S    
C5    O21   A    
C87   O31   A    
C153  H75   S    
C34   N2    S    
C150  O64   S    
C109  H5    S    
Cr7   O22   S    
Cr2   O3    S    
Cr7   O51   S    
C104  H24   S    
Cr12  O47   S    
C26   C60   A    
Cr8   O52   S    
C149  O62   S    
C64   C72   A    
C41   H49   S    
N3    H81   S    
C18   C130  S    
C114  C122  S    
C1    O9    A    
C122  H26   S    
C3    C25   S    
C89   O41   A    
C77   H13   S    
C159  H100  S    
C7    O23   A    
C1    C27   S    
C75   H11   S    
C18   C98   S    
Cr12  O40   S    
C117  C125  S    
C122  C130  S    
Cr8   O31   S    
C5    C31   S    
