data_mof_unit_32710.cif
_audit_creation_date              2012-10-26T17:10:27-0400
_audit_creation_method            fapswitch 2.2
_symmetry_space_group_name_H-M    P1
_symmetry_Int_Tables_number       1
_space_group_crystal_system       triclinic
_cell_length_a                    16.911674
_cell_length_b                    16.887415
_cell_length_c                    16.882612
_cell_angle_alpha                 67.9222
_cell_angle_beta                  67.760235
_cell_angle_gamma                 67.762991
_cell_volume                      3975.77900643

loop_
_atom_site_label
_atom_site_type_symbol
_atom_type_description
_atom_site_fract_x
_atom_site_fract_y
_atom_site_fract_z
_atom_type_partial_charge
C1    C     C_R   0.593856 0.034267 0.592738 -0.020795
C2    C     C_R   0.169553 0.432510 0.979276 0.558018
C3    C     C_R   0.567558 0.020202 0.830418 0.565440
C4    C     C_R   0.433428 0.976581 0.170312 0.550736
C5    C     C_R   0.432788 0.169678 0.978844 0.563426
C6    C     C_R   0.566478 0.829655 0.023718 0.550569
C7    C     C_R   0.976956 0.433173 0.169808 0.559936
C8    C     C_R   0.024092 0.566335 0.829468 0.558897
C9    C     C_R   0.170350 0.976513 0.433436 0.554752
C10   C     C_R   0.830433 0.020462 0.567543 0.569924
C11   C     C_R   0.543875 0.027329 0.540711 0.041938
C12   C     C_R   0.399465 0.990635 0.399823 -0.021859
C13   C     C_R   0.448786 0.004308 0.448095 0.041169
C14   C     C_R   0.013007 0.545973 0.545774 0.039867
C15   C     C_R   0.997322 0.449570 0.449403 0.041174
C16   C     C_R   0.549598 0.550195 0.001429 0.041296
C17   C     C_R   0.454047 0.456348 0.981253 0.040184
C18   C     C_R   0.585889 0.969808 0.485404 -0.112817
C19   C     C_R   0.406650 0.062399 0.502927 -0.112266
C20   C     C_R   0.061984 0.456493 0.552581 -0.113205
C21   C     C_R   0.948297 0.539030 0.442679 -0.112974
C22   C     C_R   0.459837 0.557672 0.048987 -0.112926
C23   C     C_R   0.021566 0.596578 0.596293 -0.021875
C24   C     C_R   0.543749 0.449070 0.933292 -0.111745
C25   C     C_R   0.539018 0.958467 0.439745 -0.113968
C26   C     C_R   0.453678 0.073678 0.548879 -0.111348
C27   C     C_R   0.412682 0.511324 0.039060 -0.113129
C28   C     C_R   0.591015 0.495581 0.943203 -0.111440
C29   C     C_R   0.054282 0.408851 0.504925 -0.113021
C30   C     C_R   0.956005 0.586645 0.490304 -0.114547
C31   C     C_R   0.555036 0.033532 0.682621 -0.167004
C32   C     C_R   0.439666 0.985091 0.311930 -0.172623
C33   C     C_R   0.024032 0.685369 0.557106 -0.172832
C34   C     C_R   0.988386 0.399042 0.399029 -0.022354
C35   C     C_R   0.984523 0.311043 0.438244 -0.165332
C36   C     C_R   0.687446 0.559147 0.017713 -0.165132
C37   C     C_R   0.314814 0.443421 0.972801 -0.172815
C38   C     C_R   0.311761 0.984981 0.440202 -0.171684
C39   C     C_R   0.683306 0.034513 0.554511 -0.168674
C40   C     C_R   0.443162 0.315542 0.972937 -0.166186
C41   C     C_R   0.559384 0.687267 0.017935 -0.173343
C42   C     C_R   0.984480 0.438485 0.311074 -0.170957
C43   C     C_R   0.024001 0.557269 0.685108 -0.168952
C44   C     C_R   0.607198 0.023704 0.735668 -0.011503
C45   C     C_R   0.599364 0.599146 0.013269 -0.021811
C46   C     C_R   0.394732 0.970399 0.265927 -0.017255
C47   C     C_R   0.032632 0.733358 0.604368 -0.018464
C48   C     C_R   0.973410 0.263793 0.391774 -0.004027
C49   C     C_R   0.733958 0.605031 0.030477 -0.013750
C50   C     C_R   0.263757 0.392417 0.976401 -0.008958
C51   C     C_R   0.265862 0.970479 0.394852 -0.015532
C52   C     C_R   0.735898 0.024087 0.607144 -0.010985
C53   C     C_R   0.392645 0.264053 0.976175 -0.012002
C54   C     C_R   0.604998 0.733905 0.030724 -0.018503
C55   C     C_R   0.973354 0.392252 0.263688 -0.004869
C56   C     C_R   0.403915 0.404813 0.973954 -0.021438
C57   C     C_R   0.032709 0.604368 0.733237 -0.015285
C58   C     C_R   0.699264 0.010550 0.699234 0.241282
C59   C     C_R   0.310061 0.956559 0.310018 0.229695
C60   C     C_R   0.043958 0.690240 0.690215 0.228857
C61   C     C_R   0.965118 0.304857 0.304117 0.236282
C62   C     C_R   0.690042 0.690139 0.043766 0.228426
C63   C     C_R   0.301507 0.301412 0.983097 0.238481
C64   C     C_3   0.779936 0.887407 0.779729 0.007627
C65   C     C_3   0.839920 0.853854 0.840359 -0.302198
C66   C     C_3   0.289864 0.841724 0.288335 0.017590
C67   C     C_R   0.024163 0.829486 0.566308 0.551147
C68   C     C_3   0.244843 0.817222 0.241613 -0.358313
C69   C     C_3   0.153641 0.715621 0.715374 0.018995
C70   C     C_3   0.173221 0.763449 0.763256 -0.354461
C71   C     C_3   0.994856 0.209066 0.217561 0.048797
C72   C     C_3   0.953127 0.143241 0.217061 -0.338553
C73   C     C_3   0.711248 0.712584 0.157614 0.018734
C74   C     C_3   0.757082 0.759167 0.181283 -0.357379
C75   C     C_3   0.221051 0.204492 0.083254 0.024086
C76   C     C_3   0.191243 0.127034 0.089458 -0.339882
C77   C     C_R   0.976771 0.169896 0.433106 0.568760
C78   C     C_R   0.829626 0.566528 0.023681 0.563187
Cu1   Cu    Cu3+1 0.995180 0.995180 0.424630 0.883822
Cu2   Cu    Cu3+1 0.004820 0.004820 0.575370 0.940629
Cu3   Cu    Cu3+1 0.995180 0.424630 0.995180 0.926491
Cu4   Cu    Cu3+1 0.004820 0.575370 0.004820 0.920007
Cu5   Cu    Cu3+1 0.424630 0.995180 0.995180 0.904409
Cu6   Cu    Cu3+1 0.575370 0.004820 0.004820 0.940979
H1    H     H_    0.419635 0.118980 0.590394 0.105717
H2    H     H_    0.426450 0.598108 0.095345 0.100625
H3    H     H_    0.902766 0.571861 0.401618 0.101504
H4    H     H_    0.107344 0.423674 0.593819 0.105832
H5    H     H_    0.485379 0.035968 0.712346 0.137310
H6    H     H_    0.505265 0.995035 0.278473 0.137424
H7    H     H_    0.019079 0.717193 0.489591 0.133875
H8    H     H_    0.988906 0.279619 0.505981 0.138388
H9    H     H_    0.719837 0.492170 0.010999 0.139432
H10   H     H_    0.284946 0.513184 0.970361 0.133982
H11   H     H_    0.279129 0.992250 0.506986 0.134179
H12   H     H_    0.573049 0.912143 0.399292 0.098909
H13   H     H_    0.712557 0.040091 0.484064 0.137514
H14   H     H_    0.512163 0.285273 0.973093 0.138811
H15   H     H_    0.493403 0.720309 0.008887 0.136841
H16   H     H_    0.991355 0.505349 0.279053 0.134403
H17   H     H_    0.016489 0.490663 0.717422 0.139338
H18   H     H_    0.817632 0.860827 0.720617 0.122537
H19   H     H_    0.721014 0.860779 0.816856 0.122289
H20   H     H_    0.803844 0.877937 0.900859 0.178154
H21   H     H_    0.860517 0.780019 0.860627 0.148224
H22   H     H_    0.900210 0.878013 0.804893 0.179151
H23   H     H_    0.916168 0.654973 0.484803 0.100912
H24   H     H_    0.266144 0.812137 0.361286 0.118457
H25   H     H_    0.362998 0.812666 0.265006 0.117283
H26   H     H_    0.267974 0.845020 0.168526 0.154101
H27   H     H_    0.261504 0.743782 0.257166 0.084713
H28   H     H_    0.171603 0.844286 0.264398 0.155952
H29   H     H_    0.184404 0.739472 0.642682 0.118547
H30   H     H_    0.184632 0.642974 0.738999 0.123704
H31   H     H_    0.144354 0.740185 0.836146 0.156694
H32   H     H_    0.246181 0.749417 0.748962 0.088197
H33   H     H_    0.144071 0.836295 0.740257 0.156115
H34   H     H_    0.093945 0.340455 0.510527 0.102058
H35   H     H_    0.055106 0.174128 0.241795 0.123830
H36   H     H_    0.019415 0.241623 0.146881 0.153285
H37   H     H_    0.905355 0.178446 0.176121 0.128387
H38   H     H_    0.005571 0.090137 0.187893 0.064626
H39   H     H_    0.916457 0.112044 0.284809 0.193928
H40   H     H_    0.734727 0.639679 0.187487 0.125219
H41   H     H_    0.638224 0.736256 0.187013 0.116870
H42   H     H_    0.734155 0.832224 0.153321 0.156533
H43   H     H_    0.740907 0.743833 0.254683 0.080118
H44   H     H_    0.830233 0.736064 0.153853 0.156933
H45   H     H_    0.659698 0.489580 0.904536 0.105780
H46   H     H_    0.164809 0.250759 0.118771 0.110944
H47   H     H_    0.274397 0.176773 0.117706 0.123335
H48   H     H_    0.245291 0.081686 0.051611 0.198238
H49   H     H_    0.172688 0.087696 0.159679 0.127375
H50   H     H_    0.134031 0.152145 0.061193 0.113145
H51   H     H_    0.344197 0.516947 0.078323 0.104223
H52   H     H_    0.337543 0.099773 0.509674 0.102227
H53   H     H_    0.654698 0.931485 0.479249 0.101683
H54   H     H_    0.577147 0.408001 0.887548 0.107839
O1    O     O_R   0.124540 0.978640 0.385460 -0.467494
O2    O     O_R   0.124540 0.385460 0.978640 -0.462623
O3    O     O_R   0.021360 0.875460 0.614540 -0.464708
O4    O     O_R   0.978640 0.124540 0.385460 -0.499039
O5    O     O_R   0.013780 0.867370 0.487190 -0.535063
O6    O     O_R   0.986220 0.132630 0.512810 -0.523916
O7    O     O_R   0.867370 0.487190 0.013780 -0.523535
O8    O     O_R   0.132630 0.512810 0.986220 -0.536932
O9    O     O_R   0.487190 0.013780 0.867370 -0.528731
O10   O     O_R   0.512810 0.986220 0.132630 -0.534593
O11   O     O_R   0.512810 0.132630 0.986220 -0.526675
O12   O     O_R   0.875460 0.021360 0.614540 -0.450536
O13   O     O_R   0.487190 0.867370 0.013780 -0.536117
O14   O     O_R   0.986220 0.512810 0.132630 -0.533283
O15   O     O_R   0.013780 0.487190 0.867370 -0.526096
O16   O     O_R   0.132630 0.986220 0.512810 -0.535612
O17   O     O_R   0.867370 0.013780 0.487190 -0.536474
O18   O     O_3   0.754020 0.981495 0.754167 -0.520493
O19   O     O_3   0.268043 0.935210 0.267777 -0.532654
O20   O     O_3   0.060679 0.734173 0.734217 -0.531197
O21   O     O_3   0.929260 0.269376 0.266776 -0.526252
O22   O     O_3   0.732468 0.732737 0.064158 -0.530540
O23   O     O_R   0.978640 0.385460 0.124540 -0.498195
O24   O     O_3   0.249881 0.249577 0.992409 -0.516193
O25   O     O_R   0.021360 0.614540 0.875460 -0.464145
O26   O     O_R   0.385460 0.124540 0.978640 -0.470641
O27   O     O_R   0.614540 0.875460 0.021360 -0.465090
O28   O     O_R   0.614540 0.021360 0.875460 -0.452312
O29   O     O_R   0.385460 0.978640 0.124540 -0.477451
O30   O     O_R   0.875460 0.614540 0.021360 -0.463737

loop_
_geom_bond_atom_site_label_1
_geom_bond_atom_site_label_2
_ccdc_geom_bond_type
C16   C28   A    
C63   O24   S    
Cu1   O1    S    
Cu5   O26   S    
C21   H3    S    
C11   C18   A    
C3    O9    A    
C72   H37   S    
Cu3   O2    S    
C59   O19   S    
C73   C74   S    
C66   C68   S    
C34   C42   A    
C7    C55   S    
C10   C52   S    
Cu3   Cu4   S    
C5    O11   A    
Cu4   O30   S    
Cu2   O12   S    
C7    O23   A    
C73   O22   S    
C69   H29   S    
C71   H36   S    
C75   O24   S    
C5    C53   S    
C14   C30   A    
C28   H45   S    
C42   H16   S    
C61   O21   S    
C40   H14   S    
C30   H23   S    
C39   H13   S    
Cu1   O4    S    
Cu4   O25   S    
C70   H33   S    
C4    O10   A    
C55   C61   A    
C1    C31   A    
Cu3   O15   S    
C49   C78   S    
C34   C35   A    
C68   H28   S    
C65   H21   S    
C19   C26   A    
C77   O4    A    
Cu6   O27   S    
C2    C50   S    
C78   O7    A    
C47   C60   A    
C37   C56   A    
C36   H9    S    
C74   H44   S    
Cu5   Cu6   S    
C44   C58   A    
C31   H5    S    
Cu2   O6    S    
C38   H11   S    
C52   C58   A    
C41   H15   S    
C15   C34   S    
C75   H46   S    
C35   H8    S    
Cu6   O11   S    
C39   C52   A    
C6    O27   A    
C67   O5    A    
C40   C56   A    
C12   C32   A    
C50   C63   A    
C13   C25   A    
C18   C25   A    
Cu3   O23   S    
C6    C54   S    
C35   C48   A    
C9    O1    A    
C47   C67   S    
C66   O19   S    
Cu4   O8    S    
C75   H47   S    
C15   C29   A    
Cu5   O13   S    
C20   C29   A    
Cu6   O10   S    
C3    C44   S    
C32   H6    S    
C69   H30   S    
C17   C24   A    
C31   C44   A    
C13   C19   A    
C17   C27   A    
C5    O26   A    
C14   C20   A    
C60   O20   S    
C23   C33   A    
C76   H50   S    
C57   C60   A    
C4    C46   S    
C38   C51   A    
C54   C62   A    
C11   C26   A    
C24   H54   S    
C19   H52   S    
Cu5   O29   S    
Cu1   Cu2   S    
C68   H27   S    
C14   C23   S    
C16   C45   S    
C18   H53   S    
C64   H18   S    
C75   C76   S    
C43   H17   S    
Cu1   O5    S    
C42   C55   A    
C1    C39   A    
C74   H43   S    
C73   H40   S    
C48   C77   S    
C69   O20   S    
C36   C45   A    
C68   H26   S    
C8    O15   A    
C17   C56   S    
C58   O18   S    
C25   H12   S    
Cu5   O9    S    
C6    O13   A    
C9    O16   A    
Cu2   O3    S    
Cu3   O7    S    
C22   C27   A    
C72   H39   S    
C33   C47   A    
C62   O22   S    
C51   C59   A    
C67   O3    A    
C65   H22   S    
C29   H34   S    
C16   C22   A    
C49   C62   A    
C72   H38   S    
C23   C43   A    
C32   C46   A    
C24   C28   A    
C66   H24   S    
C8    O25   A    
C10   O17   A    
C76   H49   S    
Cu2   O16   S    
C70   H31   S    
C2    O8    A    
C71   O21   S    
C21   C30   A    
C64   O18   S    
C78   O30   A    
C4    O29   A    
C71   H35   S    
C2    O2    A    
C9    C51   S    
C33   H7    S    
C77   O6    A    
C27   H51   S    
C71   C72   S    
C76   H48   S    
C10   O12   A    
C37   C50   A    
C53   C63   A    
C48   C61   A    
C74   H42   S    
C26   H1    S    
C73   H41   S    
C20   H4    S    
C64   C65   S    
C37   H10   S    
C22   H2    S    
C66   H25   S    
C12   C38   A    
C69   C70   S    
C64   H19   S    
C41   C54   A    
Cu6   O28   S    
C43   C57   A    
Cu1   O17   S    
C7    O14   A    
C15   C21   A    
C12   C13   S    
C46   C59   A    
C40   C53   A    
C70   H32   S    
C41   C45   A    
C1    C11   S    
C65   H20   S    
C8    C57   S    
Cu4   O14   S    
C36   C49   A    
C3    O28   A    
