data_mof_unit_68338.cif
_audit_creation_date              2012-12-11T15:50:33-0500
_audit_creation_method            fapswitch 2.2
_symmetry_space_group_name_H-M    P1
_symmetry_Int_Tables_number       1
_space_group_crystal_system       triclinic
_cell_length_a                    6.965292
_cell_length_b                    14.658294
_cell_length_c                    15.968057
_cell_angle_alpha                 90.000028
_cell_angle_beta                  90.001236
_cell_angle_gamma                 89.999707
_cell_volume                      1630.32740863

loop_
_atom_site_label
_atom_site_type_symbol
_atom_type_description
_atom_site_fract_x
_atom_site_fract_y
_atom_site_fract_z
_atom_type_partial_charge
O1    O     O_R   0.638140 0.833910 0.163320 -0.542660
O2    O     O_R   0.361860 0.166090 0.836680 -0.547790
O3    O     O_R   0.361860 0.166090 0.663320 -0.542704
O4    O     O_R   0.638140 0.833910 0.336680 -0.547785
O5    O     O_R   0.138140 0.666090 0.336680 -0.542706
O6    O     O_R   0.861860 0.333910 0.663320 -0.547785
O7    O     O_R   0.861860 0.333910 0.836680 -0.542710
O8    O     O_R   0.138140 0.666090 0.163320 -0.547781
O9    O     O_R   0.308390 0.844930 0.336080 -0.519889
O10   O     O_R   0.691610 0.155070 0.663920 -0.537350
O11   O     O_R   0.691610 0.155070 0.836080 -0.519888
O12   O     O_R   0.308390 0.844930 0.163920 -0.537434
O13   O     O_R   0.808390 0.655070 0.163920 -0.519889
O14   O     O_R   0.191610 0.344930 0.836080 -0.537347
O15   O     O_R   0.191610 0.344930 0.663920 -0.519894
O16   O     O_R   0.808390 0.655070 0.336080 -0.537361
C1    C     C_R   0.478732 0.873013 0.359510 0.697995
C2    C     C_R   0.523070 0.137541 0.631054 0.701933
C3    C     C_R   0.521269 0.126988 0.859511 0.697981
C4    C     C_R   0.476927 0.862461 0.131054 0.701937
C5    C     C_R   0.978733 0.626989 0.140488 0.697996
C6    C     C_R   0.023074 0.362458 0.868947 0.701942
C7    C     C_R   0.021267 0.373010 0.640487 0.697976
C8    C     C_R   0.976929 0.637539 0.368945 0.701926
O17   O     O_3   0.471620 0.691320 0.250000 -0.372445
O18   O     O_3   0.528380 0.308680 0.750000 -0.372429
O19   O     O_3   0.971620 0.808680 0.250000 -0.372429
O20   O     O_3   0.028380 0.191320 0.750000 -0.372427
V1    V     V_3+5 0.196770 0.760880 0.250000 1.408070
V2    V     V_3+5 0.803230 0.239120 0.750000 1.408145
V3    V     V_3+5 0.696770 0.739120 0.250000 1.408152
V4    V     V_3+5 0.303230 0.260880 0.750000 1.408142
C9    C     C_R   0.817131 0.553032 0.490973 0.443240
C10   C     C_R   0.171141 0.504477 0.559017 0.440636
C11   C     C_R   0.182875 0.446967 0.990980 0.443253
C12   C     C_R   0.828866 0.495520 0.059020 0.440628
C13   C     C_R   0.317129 0.946971 0.009024 0.443323
C14   C     C_R   0.671139 0.995517 0.940982 0.440657
C15   C     C_R   0.682867 0.053032 0.509026 0.443286
C16   C     C_R   0.328860 0.004486 0.440974 0.440626
C17   C     C_R   0.829183 0.481682 0.549818 -0.286955
C18   C     C_R   0.162144 0.559926 0.486631 -0.286891
C19   C     C_R   0.170821 0.518319 0.049823 -0.286885
C20   C     C_R   0.837863 0.440069 0.986634 -0.286910
C21   C     C_R   0.329184 0.018320 0.950179 -0.286964
C22   C     C_R   0.662140 0.940065 0.013366 -0.286913
C23   C     C_R   0.670813 0.981677 0.450186 -0.286949
C24   C     C_R   0.337857 0.059937 0.513359 -0.286884
H1    H     H_    0.697803 0.451010 0.572410 0.203227
H2    H     H_    0.291227 0.590508 0.462942 0.200388
H3    H     H_    0.302200 0.548992 0.072418 0.203231
H4    H     H_    0.708781 0.409486 0.962943 0.200383
H5    H     H_    0.197806 0.048995 0.927586 0.203221
H6    H     H_    0.791221 0.909478 0.037055 0.200402
H7    H     H_    0.802191 0.950992 0.427607 0.203206
H8    H     H_    0.208774 0.090518 0.537050 0.200386
C25   C     C_R   0.007856 0.452612 0.581557 -0.238464
C26   C     C_R   0.985368 0.580700 0.447865 -0.229790
C27   C     C_R   0.992147 0.547387 0.081559 -0.238490
C28   C     C_R   0.014639 0.419297 0.947869 -0.229780
C29   C     C_R   0.507858 0.047386 0.918442 -0.238468
C30   C     C_R   0.485365 0.919299 0.052133 -0.229778
C31   C     C_R   0.492142 0.952616 0.418439 -0.238479
C32   C     C_R   0.514631 0.080705 0.552130 -0.229794
O21   O     O_3   0.638102 0.589925 0.474319 -0.576619
C33   C     C_3   0.633689 0.685613 0.489958 0.132301
H9    H     H_    0.524293 0.715165 0.447552 0.141929
H10   H     H_    0.771007 0.721816 0.477644 0.099787
C34   C     C_3   0.574364 0.706488 0.579387 -0.370929
H11   H     H_    0.434749 0.673712 0.591475 0.230403
H12   H     H_    0.686940 0.680031 0.622166 0.191241
C35   C     C_3   0.550239 0.808517 0.594096 -0.863433
H13   H     H_    0.681663 0.845064 0.574327 0.240484
H14   H     H_    0.524810 0.821697 0.661682 0.228055
H15   H     H_    0.425437 0.834632 0.558094 0.238395
O22   O     O_3   0.338260 0.503165 0.606744 -0.558970
C36   C     C_3   0.300988 0.541359 0.687424 0.122200
H16   H     H_    0.215206 0.494199 0.726593 0.132419
H17   H     H_    0.215428 0.605530 0.682530 0.057971
C37   C     C_3   0.490663 0.563823 0.732924 -0.356157
H18   H     H_    0.615150 0.534517 0.698883 0.214171
H19   H     H_    0.508516 0.638977 0.735846 0.168185
C38   C     C_3   0.496378 0.529751 0.823002 -0.715164
H20   H     H_    0.367927 0.553202 0.857481 0.222217
H21   H     H_    0.626495 0.556497 0.854825 0.212520
H22   H     H_    0.501883 0.454527 0.824511 0.275692
O23   O     O_3   0.361909 0.410081 0.974327 -0.576616
C39   C     C_3   0.366338 0.314390 0.989954 0.132272
H23   H     H_    0.475683 0.284846 0.947520 0.141989
H24   H     H_    0.229004 0.278188 0.977668 0.099737
C40   C     C_3   0.425783 0.293507 0.079368 -0.370937
H25   H     H_    0.565359 0.326326 0.091442 0.230464
H26   H     H_    0.313209 0.319913 0.122173 0.191213
C41   C     C_3   0.450097 0.191482 0.094047 -0.863426
H27   H     H_    0.318733 0.154888 0.074276 0.240448
H28   H     H_    0.475581 0.178290 0.161628 0.228048
H29   H     H_    0.574930 0.165430 0.058029 0.238393
O24   O     O_3   0.661756 0.496830 0.106749 -0.558963
C42   C     C_3   0.699045 0.458630 0.187427 0.122179
H30   H     H_    0.784825 0.505791 0.226600 0.132381
H31   H     H_    0.784618 0.394461 0.182527 0.057963
C43   C     C_3   0.509376 0.436149 0.232926 -0.356185
H32   H     H_    0.384864 0.465425 0.198872 0.214141
H33   H     H_    0.491571 0.360989 0.235866 0.168146
C44   C     C_3   0.503645 0.470249 0.322995 -0.714712
H34   H     H_    0.632121 0.446767 0.357501 0.222140
H35   H     H_    0.373422 0.443526 0.354802 0.212461
H36   H     H_    0.498228 0.545509 0.324485 0.275662
O25   O     O_3   0.138100 0.910074 0.025667 -0.576632
C45   C     C_3   0.133700 0.814384 0.010034 0.132234
H37   H     H_    0.024303 0.784832 0.052436 0.141920
H38   H     H_    0.271019 0.778185 0.022354 0.099803
C46   C     C_3   0.074389 0.793504 0.920604 -0.370872
H39   H     H_    0.934758 0.826266 0.908512 0.230383
H40   H     H_    0.186958 0.819972 0.877830 0.191247
C47   C     C_3   0.050315 0.691472 0.905893 -0.863530
H41   H     H_    0.181763 0.654945 0.925650 0.240502
H42   H     H_    0.024864 0.678291 0.838313 0.228071
H43   H     H_    0.925554 0.665339 0.941901 0.238403
O26   O     O_3   0.838258 0.996830 0.893259 -0.558960
C48   C     C_3   0.800991 0.958630 0.812581 0.122232
H44   H     H_    0.715158 0.005776 0.773414 0.132368
H45   H     H_    0.715482 0.894444 0.817481 0.057971
C49   C     C_3   0.990674 0.936195 0.767077 -0.356173
H46   H     H_    0.115140 0.965525 0.801111 0.214191
H47   H     H_    0.008589 0.861047 0.764157 0.168190
C50   C     C_3   0.996349 0.970260 0.677000 -0.715222
H48   H     H_    0.867945 0.946761 0.642521 0.222216
H49   H     H_    0.126507 0.943561 0.645182 0.212533
H50   H     H_    0.001743 0.045481 0.675489 0.275737
O27   O     O_3   0.861899 0.089920 0.525681 -0.576612
C51   C     C_3   0.866321 0.185610 0.510050 0.132301
H51   H     H_    0.975747 0.215154 0.552447 0.141918
H52   H     H_    0.729018 0.221817 0.522380 0.099793
C52   C     C_3   0.925590 0.206490 0.420617 -0.370926
H53   H     H_    0.065187 0.173705 0.408509 0.230390
H54   H     H_    0.812968 0.180044 0.377853 0.191227
C53   C     C_3   0.949741 0.308521 0.405914 -0.863460
H55   H     H_    0.818357 0.345074 0.425724 0.240481
H56   H     H_    0.975082 0.321710 0.338324 0.228057
H57   H     H_    0.074603 0.334618 0.441890 0.238378
O28   O     O_3   0.161720 0.003150 0.393263 -0.558970
C54   C     C_3   0.198913 0.041352 0.312580 0.122175
H58   H     H_    0.284782 0.994224 0.273409 0.132349
H59   H     H_    0.284353 0.105560 0.317469 0.058008
C55   C     C_3   0.009172 0.063728 0.267091 -0.356097
H60   H     H_    0.884774 0.034313 0.301111 0.214220
H61   H     H_    0.991088 0.138869 0.264207 0.168170
C56   C     C_3   0.003554 0.029720 0.176997 -0.715216
H62   H     H_    0.131658 0.053536 0.142461 0.222110
H63   H     H_    0.873013 0.056172 0.145275 0.212562
H64   H     H_    0.998891 0.954472 0.175437 0.275851

loop_
_geom_bond_atom_site_label_1
_geom_bond_atom_site_label_2
_ccdc_geom_bond_type
O17   V3    S    
C52   C53   S    
C33   H10   S    
O23   C39   S    
O18   V4    S    
C9    C26   A    
C16   O28   S    
O12   V1    S    
O19   V1    S    
C10   C18   A    
C24   H8    S    
C12   C27   A    
C2    C32   S    
C18   C26   A    
C13   C30   A    
C9    O21   S    
C52   H53   S    
C36   H16   S    
O16   V3    S    
C15   C32   A    
C44   H35   S    
O11   C3    A    
C16   C31   A    
C22   C30   A    
O8    V1    S    
C15   C23   A    
O10   C2    A    
C55   H60   S    
C56   H63   S    
C23   C31   A    
C3    C29   S    
C24   C32   A    
C33   C34   S    
C54   H58   S    
O24   C42   S    
C54   H59   S    
O1    V3    S    
C47   H41   S    
O3    C2    A    
O2    V4    S    
C34   H12   S    
C16   C24   A    
C45   H37   S    
C48   C49   S    
C43   C44   S    
C11   O23   S    
C38   H20   S    
O11   V2    S    
C51   H51   S    
C42   C43   S    
C10   C25   A    
C11   C19   A    
C13   O25   S    
C19   C27   A    
C14   C29   A    
C14   O26   S    
C20   H4    S    
O15   C7    A    
C33   H9    S    
C23   H7    S    
C21   H5    S    
O16   C8    A    
O7    V2    S    
O12   C4    A    
O3    V4    S    
C35   H15   S    
C17   H1    S    
C55   H61   S    
C36   H17   S    
O17   V1    S    
C44   H36   S    
C14   C22   A    
O19   V3    S    
C43   H32   S    
O20   V4    S    
O22   C36   S    
C35   H14   S    
C56   H64   S    
C40   H25   S    
C37   H18   S    
C41   H29   S    
O6    V2    S    
C11   C28   A    
C34   C35   S    
C41   H28   S    
C50   H49   S    
C40   H26   S    
C55   C56   S    
O10   V2    S    
C42   H30   S    
C39   C40   S    
C22   H6    S    
O8    C5    A    
O13   C5    A    
C41   H27   S    
C43   H33   S    
C45   C46   S    
C48   H44   S    
C53   H56   S    
C18   H2    S    
C49   C50   S    
C7    C25   S    
O4    C1    A    
O9    C1    A    
C38   H21   S    
C39   H24   S    
O18   V2    S    
O14   C6    A    
C12   C20   A    
C54   C55   S    
C13   C21   A    
C50   H48   S    
O5    V1    S    
O26   C48   S    
C49   H47   S    
C46   H39   S    
C36   C37   S    
C52   H54   S    
O1    C4    A    
C42   H31   S    
O2    C3    A    
O13   V3    S    
O14   V4    S    
C35   H13   S    
C53   H57   S    
O15   V4    S    
C5    C27   S    
O9    V1    S    
O7    C6    A    
C44   H34   S    
C47   H43   S    
C9    C17   A    
C46   C47   S    
O20   V2    S    
C50   H50   S    
C17   C25   A    
O25   C45   S    
C1    C31   S    
C40   C41   S    
C6    C28   S    
C19   H3    S    
O5    C8    A    
C15   O27   S    
C20   C28   A    
C51   C52   S    
C51   H52   S    
O6    C7    A    
C21   C29   A    
C37   C38   S    
C37   H19   S    
C47   H42   S    
C4    C30   S    
C34   H11   S    
C45   H38   S    
C48   H45   S    
O4    V3    S    
C53   H55   S    
C38   H22   S    
C39   H23   S    
C8    C26   S    
O21   C33   S    
O28   C54   S    
C12   O24   S    
C56   H62   S    
O27   C51   S    
C10   O22   S    
C49   H46   S    
C46   H40   S    
