data_mof_unit_34719.cif
_audit_creation_date              2012-12-10T18:58:14-0500
_audit_creation_method            fapswitch 2.2
_symmetry_space_group_name_H-M    P1
_symmetry_Int_Tables_number       1
_space_group_crystal_system       triclinic
_cell_length_a                    10.640518
_cell_length_b                    9.856659
_cell_length_c                    15.817972
_cell_angle_alpha                 90.01683
_cell_angle_beta                  90.123737
_cell_angle_gamma                 91.156927
_cell_volume                      1658.64607544

loop_
_atom_site_label
_atom_site_type_symbol
_atom_type_description
_atom_site_fract_x
_atom_site_fract_y
_atom_site_fract_z
_atom_type_partial_charge
C1    C     C_R   0.872008 0.506574 0.499978 -0.170284
C2    C     C_R   0.543182 0.375930 0.955677 -0.077139
C3    C     C_R   0.537989 0.500899 0.912527 -0.037484
C4    C     C_R   0.537664 0.500972 0.087556 -0.038790
C5    C     C_1   0.524799 0.500594 0.823316 0.050540
C6    C     C_1   0.524370 0.500670 0.176727 0.050049
C7    C     C_1   0.512295 0.500286 0.251224 -0.053261
C8    C     C_1   0.512682 0.500392 0.748791 -0.057341
C9    C     C_R   0.576135 0.073564 0.553885 -0.024309
C10   C     C_R   0.423859 0.926441 0.446121 -0.026477
C11   C     C_R   0.423842 0.070232 0.446132 -0.020189
C12   C     C_R   0.127754 0.493407 0.500042 -0.166053
C13   C     C_R   0.576153 0.929771 0.553873 -0.023503
C14   C     C_R   0.065177 0.495525 0.578188 -0.083806
C15   C     C_R   0.934492 0.504209 0.421778 -0.085664
C16   C     C_R   0.934855 0.503670 0.578208 -0.093240
C17   C     C_R   0.064811 0.496048 0.421868 -0.092616
C18   C     C_2   0.555589 0.756817 0.091618 0.985986
C19   C     C_2   0.556121 0.245865 0.908536 0.959611
C20   C     C_2   0.530728 0.756505 0.908453 0.970376
C21   C     C_2   0.530463 0.245065 0.091586 0.958810
C22   C     C_2   0.136282 0.491028 0.659201 0.941923
C23   C     C_R   0.260480 0.498352 0.500064 0.907702
C24   C     C_2   0.863385 0.506302 0.340560 0.934292
C25   C     C_2   0.864087 0.505171 0.659367 0.927518
C26   C     C_2   0.135575 0.492033 0.340908 0.941894
C27   C     C_R   0.739426 0.501618 0.499951 0.913543
C28   C     C_R   0.500898 0.500015 0.339321 0.937538
C29   C     C_R   0.501125 0.500059 0.660674 0.935127
C30   C     C_R   0.539882 0.626135 0.955735 -0.075992
C31   C     C_R   0.539788 0.375830 0.044353 -0.079531
C32   C     C_R   0.542932 0.626176 0.044427 -0.077875
H1    H     H_    0.637053 0.129282 0.597003 0.154934
H2    H     H_    0.829333 0.418480 0.227412 0.369274
H3    H     H_    0.830235 0.416271 0.772088 0.358289
H4    H     H_    0.255049 0.390281 0.266560 0.343253
H5    H     H_    0.362928 0.870726 0.403012 0.160074
H6    H     H_    0.362895 0.123293 0.403050 0.170935
H7    H     H_    0.637091 0.876713 0.596963 0.175224
H8    H     H_    0.648217 0.936447 0.104312 0.378310
H9    H     H_    0.648975 0.070400 0.896229 0.375629
H10   H     H_    0.445044 0.936319 0.896455 0.378498
H11   H     H_    0.444536 0.061639 0.103292 0.376650
H12   H     H_    0.256109 0.388891 0.733380 0.355197
N1    N     N_R   0.500000 0.857200 0.500000 -0.098270
N2    N     N_R   0.500000 0.142800 0.500000 -0.094580
O1    O     O_R   0.316770 0.614620 0.499990 -0.636447
O2    O     O_R   0.647019 0.852748 0.067063 -0.749004
O3    O     O_2   0.487394 0.219159 0.848473 -0.609320
O4    O     O_R   0.647551 0.154016 0.933495 -0.752031
O5    O     O_2   0.597659 0.778540 0.847002 -0.585190
O6    O     O_R   0.444590 0.853387 0.934308 -0.750886
O7    O     O_2   0.597267 0.225882 0.153284 -0.605295
O8    O     O_R   0.444285 0.144519 0.065406 -0.751354
O9    O     O_2   0.122852 0.579908 0.712192 -0.574567
O10   O     O_R   0.216589 0.383518 0.675082 -0.763335
O11   O     O_2   0.788507 0.596204 0.326940 -0.608173
O12   O     O_R   0.683230 0.385380 0.500010 -0.632688
O13   O     O_R   0.883232 0.406159 0.279689 -0.744828
O14   O     O_2   0.789361 0.595057 0.673246 -0.605562
O15   O     O_R   0.884006 0.404420 0.719855 -0.759031
O16   O     O_2   0.122097 0.581357 0.288208 -0.574585
O17   O     O_R   0.215686 0.384512 0.324775 -0.787665
O18   O     O_R   0.683230 0.614620 0.500010 -0.570599
O19   O     O_R   0.316770 0.385380 0.499990 -0.558933
O20   O     O_R   0.499980 0.614630 0.378020 -0.587992
O21   O     O_R   0.500020 0.385370 0.621980 -0.600193
O22   O     O_R   0.500020 0.614630 0.621980 -0.593555
O23   O     O_R   0.499980 0.385370 0.378020 -0.604808
O24   O     O_2   0.486614 0.780467 0.151359 -0.597924
Zn1   Zn    Zn3+2 0.500000 0.653120 0.500000 1.036938
Zn2   Zn    Zn3+2 0.500000 0.346880 0.500000 1.032251

loop_
_geom_bond_atom_site_label_1
_geom_bond_atom_site_label_2
_ccdc_geom_bond_type
C12   C17   A    
C18   O24   D    
C11   H6    S    
C28   O20   A    
C26   O17   S    
O19   Zn2   S    
C6    C7    T    
C1    C15   A    
C25   O14   D    
N1    Zn1   S    
C29   O22   A    
H12   O10   S    
H11   O8    S    
N2    Zn2   S    
C28   O23   A    
C19   O4    S    
C22   O10   S    
O12   Zn2   S    
C14   C22   S    
C10   N1    A    
C2    C3    A    
C26   O16   D    
C9    N2    A    
C20   O6    S    
C1    C16   A    
C20   C30   S    
C30   C32   A    
C21   C31   S    
C12   C23   S    
O1    Zn1   S    
C22   O9    D    
C9    H1    S    
C10   H5    S    
C29   O21   A    
C17   C26   S    
C21   O7    D    
C3    C30   A    
C4    C6    S    
C15   C24   S    
C12   C14   A    
C20   O5    D    
O22   Zn1   S    
C21   O8    S    
C14   C16   A    
C19   O3    D    
C13   H7    S    
C4    C31   A    
C18   C32   S    
C27   O18   A    
C8    C29   S    
C4    C32   A    
H4    O17   S    
H9    O4    S    
O23   Zn2   S    
C23   O1    A    
C13   N1    A    
C1    C27   S    
O21   Zn2   S    
C10   C11   A    
O18   Zn1   S    
H10   O6    S    
C16   C25   S    
C15   C17   A    
C5    C8    T    
C9    C13   A    
H8    O2    S    
C24   O11   D    
C11   N2    A    
C25   O15   S    
C2    C19   S    
H3    O15   S    
H2    O13   S    
C24   O13   S    
C7    C28   S    
O20   Zn1   S    
C23   O19   A    
C2    C31   A    
C3    C5    S    
C27   O12   A    
C18   O2    S    
