data_mof_unit_33927.cif
_audit_creation_date              2012-12-10T18:50:53-0500
_audit_creation_method            fapswitch 2.2
_symmetry_space_group_name_H-M    P1
_symmetry_Int_Tables_number       1
_space_group_crystal_system       triclinic
_cell_length_a                    10.682855
_cell_length_b                    10.016676
_cell_length_c                    15.587998
_cell_angle_alpha                 85.227528
_cell_angle_beta                  94.351054
_cell_angle_gamma                 92.278069
_cell_volume                      1656.50770252

loop_
_atom_site_label
_atom_site_type_symbol
_atom_type_description
_atom_site_fract_x
_atom_site_fract_y
_atom_site_fract_z
_atom_type_partial_charge
C1    C     C_R   0.260542 0.497931 0.500531 0.853260
C2    C     C_R   0.945073 0.599043 0.540715 -0.225145
C3    C     C_R   0.872399 0.503012 0.498180 0.003182
C4    C     C_R   0.128131 0.495191 0.502350 -0.002796
C5    C     C_R   0.577502 0.068108 0.557963 0.207285
C6    C     C_R   0.588493 0.927485 0.550522 0.162887
C7    C     C_R   0.493986 0.505085 0.338010 0.906417
C8    C     C_R   0.415413 0.931803 0.447830 -0.138071
C9    C     C_R   0.418823 0.074752 0.445321 -0.130428
C10   C     C_R   0.739587 0.501784 0.499445 0.834832
C11   C     C_R   0.506970 0.494771 0.661983 0.883112
C12   C     C_3   0.661832 0.466593 0.972957 -0.482701
C13   C     C_3   0.428647 0.629700 0.023117 0.236727
C14   C     C_3   0.436016 0.359291 0.052729 0.237028
C15   C     C_3   0.445003 0.363312 0.952688 -0.458751
C16   C     C_3   0.473107 0.616542 0.930546 -0.389060
C17   C     C_1   0.527915 0.481495 0.752122 -0.219098
C18   C     C_3   0.499277 0.506503 0.081408 0.147965
C19   C     C_3   0.532034 0.479315 0.920400 0.207828
C20   C     C_3   0.277878 0.629232 0.025664 -0.388646
C21   C     C_3   0.193186 0.613655 0.941229 -0.368532
C22   C     C_3   0.054502 0.600692 0.958266 -0.954816
C23   C     C_3   0.653498 0.513325 0.066584 0.235885
C24   C     C_3   0.292332 0.326590 0.070739 -0.409955
C25   C     C_3   0.237825 0.185567 0.049500 -0.396946
C26   C     C_3   0.094558 0.175486 0.042663 -0.918454
C27   C     C_3   0.506253 0.229964 0.092968 -0.383159
C28   C     C_3   0.502471 0.194221 0.191571 -0.352800
C29   C     C_3   0.570926 0.065208 0.219688 -0.915163
C30   C     C_3   0.463240 0.775583 0.052829 -0.405743
C31   C     C_3   0.426879 0.890721 0.983567 -0.349675
C32   C     C_3   0.540515 0.969467 0.948668 -0.945753
C33   C     C_3   0.727078 0.655002 0.064914 -0.374734
C34   C     C_1   0.539817 0.473970 0.828673 -0.073481
C35   C     C_3   0.758156 0.718411 0.152406 -0.362314
C36   C     C_3   0.816743 0.859436 0.138728 -0.925203
C37   C     C_3   0.735068 0.425726 0.139545 -0.384563
C38   C     C_3   0.876725 0.412984 0.129116 -0.390484
C39   C     C_3   0.940228 0.337536 0.209142 -0.930221
C40   C     C_3   0.639709 0.131714 0.636393 -0.362806
C41   C     C_3   0.569141 0.099732 0.719044 -0.364619
C42   C     C_3   0.425824 0.085603 0.704201 -0.784683
C43   C     C_3   0.713654 0.868264 0.582828 -0.388462
C44   C     C_3   0.713217 0.784105 0.670288 -0.260721
C45   C     C_1   0.484472 0.517731 0.171526 -0.142518
C46   C     C_3   0.824277 0.820007 0.732861 -0.982881
C47   C     C_1   0.484695 0.516893 0.247663 -0.245328
C48   C     C_R   0.055940 0.397518 0.460840 -0.208861
C49   C     C_R   0.073385 0.595379 0.542737 -0.180647
C50   C     C_R   0.927272 0.401681 0.458548 -0.198879
H1    H     H_    0.347264 0.881567 0.405586 0.147187
H2    H     H_    0.205005 0.704098 0.895918 0.214315
H3    H     H_    0.215920 0.526047 0.907640 0.219998
H4    H     H_    0.246649 0.568569 0.082978 0.179534
H5    H     H_    0.244445 0.726008 0.044130 0.199663
H6    H     H_    0.058962 0.182247 0.106776 0.280136
H7    H     H_    0.054537 0.254852 0.995760 0.261483
H8    H     H_    0.062875 0.076542 0.020092 0.251251
H9    H     H_    0.268672 0.161429 0.986303 0.225770
H10   H     H_    0.269870 0.107555 0.100223 0.227184
H11   H     H_    0.275064 0.343822 0.138242 0.191841
H12   H     H_    0.353661 0.130475 0.400825 0.142598
H13   H     H_    0.231636 0.389749 0.027362 0.241104
H14   H     H_    0.526784 0.980382 0.185680 0.265592
H15   H     H_    0.671159 0.077656 0.205564 0.263733
H16   H     H_    0.566243 0.041350 0.290219 0.265329
H17   H     H_    0.547103 0.273264 0.229578 0.244067
H18   H     H_    0.404476 0.180254 0.210211 0.223282
H19   H     H_    0.463880 0.142066 0.063160 0.210574
H20   H     H_    0.599372 0.222130 0.068585 0.170044
H21   H     H_    0.600379 0.011533 0.001521 0.257334
H22   H     H_    0.598729 0.906583 0.913549 0.259348
H23   H     H_    0.098710 0.320697 0.428904 0.147847
H24   H     H_    0.507308 0.053149 0.902937 0.247012
H25   H     H_    0.368239 0.854632 0.928015 0.227918
H26   H     H_    0.367576 0.959702 0.012728 0.194335
H27   H     H_    0.413894 0.789168 0.111814 0.150583
H28   H     H_    0.555648 0.797828 0.080311 0.233651
H29   H     H_    0.480215 0.268315 0.933193 0.158965
H30   H     H_    0.545378 0.693976 0.914029 0.174462
H31   H     H_    0.904215 0.856893 0.104688 0.261824
H32   H     H_    0.750646 0.927145 0.100355 0.264835
H33   H     H_    0.840610 0.900354 0.202216 0.256503
H34   H     H_    0.129786 0.670054 0.576163 0.151064
H35   H     H_    0.674146 0.720943 0.189781 0.227314
H36   H     H_    0.828392 0.659779 0.194058 0.233265
H37   H     H_    0.819462 0.644846 0.039021 0.187863
H38   H     H_    0.690161 0.727439 0.013344 0.194832
H39   H     H_    0.922223 0.386622 0.268086 0.267582
H40   H     H_    0.904412 0.231770 0.215484 0.262532
H41   H     H_    0.043453 0.339586 0.204379 0.254539
H42   H     H_    0.889054 0.358384 0.071437 0.226046
H43   H     H_    0.927543 0.510944 0.122545 0.237500
H44   H     H_    0.724845 0.465277 0.202859 0.197539
H45   H     H_    0.398469 0.638249 0.878848 0.156111
H46   H     H_    0.704192 0.323616 0.152246 0.220237
H47   H     H_    0.733914 0.525156 0.936256 0.162842
H48   H     H_    0.692798 0.361836 0.975564 0.169478
H49   H     H_    0.870742 0.326487 0.425717 0.154076
H50   H     H_    0.903687 0.674129 0.574140 0.148776
H51   H     H_    0.386711 0.172668 0.664027 0.288401
H52   H     H_    0.398831 0.992696 0.672134 0.243064
H53   H     H_    0.382887 0.078587 0.767113 0.219810
H54   H     H_    0.603499 0.005336 0.753310 0.215648
H55   H     H_    0.592730 0.180261 0.763101 0.212346
H56   H     H_    0.352128 0.371672 0.916354 0.169079
H57   H     H_    0.738406 0.104571 0.651289 0.134464
H58   H     H_    0.652078 0.239549 0.623100 0.240797
H59   H     H_    0.914422 0.805919 0.704200 0.266343
H60   H     H_    0.820340 0.925443 0.749041 0.265912
H61   H     H_    0.821024 0.753750 0.793515 0.253419
H62   H     H_    0.625020 0.796553 0.701733 0.230153
H63   H     H_    0.720379 0.676799 0.659606 0.226118
H64   H     H_    0.749189 0.816063 0.531511 0.202544
H65   H     H_    0.789132 0.947043 0.585175 0.165015
H66   H     H_    0.036049 0.505909 0.997573 0.260744
H67   H     H_    0.027121 0.686919 0.992306 0.261481
H68   H     H_    0.996473 0.598794 0.896141 0.257376
N1    N     N_R   0.499970 0.857200 0.499980 -0.102266
N2    N     N_R   0.499970 0.142800 0.499980 -0.106755
O1    O     O_R   0.316750 0.614620 0.499990 -0.618109
O2    O     O_R   0.316750 0.385380 0.499990 -0.622298
O3    O     O_R   0.499990 0.614720 0.377140 -0.603890
O4    O     O_R   0.499990 0.385280 0.377140 -0.616926
O5    O     O_R   0.683220 0.614710 0.500000 -0.636970
O6    O     O_R   0.683220 0.385290 0.500000 -0.640447
O7    O     O_R   0.499980 0.614620 0.622860 -0.619752
O8    O     O_R   0.499980 0.385380 0.622860 -0.622443
Zn1   Zn    Zn3+2 0.499980 0.653120 0.500000 0.928688
Zn2   Zn    Zn3+2 0.499980 0.346880 0.500000 0.918246

loop_
_geom_bond_atom_site_label_1
_geom_bond_atom_site_label_2
_ccdc_geom_bond_type
C22   H67   S    
C18   C45   S    
C24   H11   S    
N1    Zn1   S    
C41   C42   S    
C14   C18   S    
C35   C36   S    
C7    O4    A    
C42   H53   S    
C32   H22   S    
C15   C19   S    
C12   C23   S    
C50   H49   S    
C46   H59   S    
C41   H55   S    
C13   C18   S    
N2    Zn2   S    
C15   H56   S    
C28   C29   S    
C28   H18   S    
C33   H38   S    
C43   H64   S    
C32   H24   S    
C30   C31   S    
C35   H36   S    
O6    Zn2   S    
C36   H33   S    
C38   H42   S    
C38   H43   S    
C14   C24   S    
C1    O2    A    
C43   H65   S    
C30   H27   S    
C15   H29   S    
C36   H32   S    
C8    C9    A    
C23   C33   S    
C25   H10   S    
C14   C27   S    
C10   O5    A    
C39   H40   S    
C12   H48   S    
C27   H19   S    
C40   H58   S    
C22   H66   S    
C29   H14   S    
C2    H50   S    
C21   C22   S    
O3    Zn1   S    
C20   H5    S    
C42   H52   S    
C39   H41   S    
C3    C50   A    
C44   C46   S    
C32   H21   S    
C45   C47   T    
C38   C39   S    
C5    N2    A    
C9    H12   S    
C13   C30   S    
C28   H17   S    
C24   C25   S    
C20   H4    S    
O1    Zn1   S    
C25   C26   S    
C23   C37   S    
C18   C23   S    
C37   H46   S    
O8    Zn2   S    
C16   H30   S    
C7    C47   S    
C11   O7    A    
C43   C44   S    
O7    Zn1   S    
C37   C38   S    
C2    C49   A    
C31   H25   S    
C31   C32   S    
C36   H31   S    
C46   H61   S    
O4    Zn2   S    
C26   H8    S    
C8    H1    S    
C12   H47   S    
C27   H20   S    
C40   H57   S    
C29   H15   S    
C44   H62   S    
C40   C41   S    
C44   H63   S    
C24   H13   S    
C6    C43   S    
C46   H60   S    
C13   C16   S    
C17   C34   T    
C42   H51   S    
C6    N1    A    
C49   H34   S    
C4    C48   A    
C22   H68   S    
C11   C17   S    
C16   H45   S    
C13   C20   S    
C48   H23   S    
C7    O3    A    
C19   C34   S    
C26   H6    S    
C41   H54   S    
C4    C49   A    
C1    C4    S    
C11   O8    A    
C33   H37   S    
C3    C10   S    
C21   H3    S    
C35   H35   S    
C31   H26   S    
C5    C6    A    
C16   C19   S    
C12   C19   S    
C48   C50   A    
C33   C35   S    
O2    Zn2   S    
C37   H44   S    
C2    C3    A    
C26   H7    S    
C1    O1    A    
C29   H16   S    
C30   H28   S    
O5    Zn1   S    
C20   C21   S    
C5    C40   S    
C27   C28   S    
C9    N2    A    
C14   C15   S    
C25   H9    S    
C10   O6    A    
C39   H39   S    
C21   H2    S    
C8    N1    A    
