data_mof_unit_16118.cif
_audit_creation_date              2012-12-10T19:45:47-0500
_audit_creation_method            fapswitch 2.2
_symmetry_space_group_name_H-M    P1
_symmetry_Int_Tables_number       1
_space_group_crystal_system       triclinic
_cell_length_a                    10.798794
_cell_length_b                    14.66189
_cell_length_c                    14.671258
_cell_angle_alpha                 65.279025
_cell_angle_beta                  103.334254
_cell_angle_gamma                 102.823185
_cell_volume                      2032.34437014

loop_
_atom_site_label
_atom_site_type_symbol
_atom_type_description
_atom_site_fract_x
_atom_site_fract_y
_atom_site_fract_z
_atom_type_partial_charge
C1    C     C_R   0.476962 0.119674 0.312116 0.790041
C2    C     C_R   0.556563 0.784272 0.973252 -0.206555
C3    C     C_R   0.405145 0.149124 0.128390 -0.209027
C4    C     C_R   0.557439 0.850569 0.872239 -0.210029
C5    C     C_R   0.478621 0.291986 0.178925 -0.261430
C6    C     C_R   0.493863 0.708061 0.820672 -0.256605
C7    C     C_R   0.449078 0.360535 0.078584 0.087848
C8    C     C_R   0.488685 0.639773 0.921498 0.086853
C9    C     C_R   0.402552 0.320870 0.001970 0.171313
C10   C     C_R   0.523069 0.679405 0.998509 0.167966
C11   C     C_R   0.468000 0.467222 0.052242 0.063447
C12   C     C_R   0.520754 0.880287 0.687881 0.790568
C13   C     C_R   0.454205 0.533271 0.947938 0.066077
C14   C     C_R   0.404980 0.490658 0.873819 -0.231617
C15   C     C_R   0.498150 0.509952 0.126652 -0.230809
C16   C     C_R   0.262806 0.999587 0.501916 0.792686
C17   C     C_R   0.737186 0.000596 0.497872 0.792715
C18   C     C_R   0.378755 0.386443 0.900767 -0.240276
C19   C     C_R   0.524378 0.614087 0.099903 -0.236535
C20   C     C_R   0.722944 0.289443 0.661654 -0.334329
C21   C     C_R   0.279413 0.711743 0.336341 -0.337925
C22   C     C_R   0.686114 0.205921 0.634627 0.088823
C23   C     C_R   0.870530 0.000642 0.495908 -0.092447
C24   C     C_R   0.314918 0.794593 0.364475 0.089350
C25   C     C_R   0.516415 0.284120 0.510630 0.028953
C26   C     C_R   0.483818 0.716019 0.489171 0.029383
C27   C     C_R   0.549753 0.372184 0.533744 -0.024350
C28   C     C_R   0.452074 0.628751 0.464720 -0.025074
C29   C     C_R   0.654740 0.372448 0.612052 0.154227
C30   C     C_R   0.347959 0.628920 0.385674 0.151858
C31   C     C_R   0.482697 0.458683 0.483258 0.060680
C32   C     C_R   0.519901 0.542650 0.514583 0.059251
C33   C     C_R   0.623528 0.537648 0.594574 -0.223835
C34   C     C_R   0.129488 0.000303 0.503074 -0.092064
C35   C     C_R   0.380342 0.464315 0.402263 -0.230155
C36   C     C_R   0.690306 0.454885 0.641155 -0.186077
C37   C     C_R   0.313774 0.547198 0.355450 -0.188360
C38   C     C_R   0.352201 0.071441 0.773933 -0.122760
C39   C     C_R   0.639274 0.929891 0.229647 -0.116651
C40   C     C_R   0.264490 0.030535 0.709849 -0.106259
C41   C     C_R   0.731997 0.971220 0.290868 -0.105287
C42   C     C_R   0.186746 0.092215 0.625361 0.077414
C43   C     C_R   0.812614 0.909727 0.373063 0.075857
C44   C     C_R   0.196029 0.196456 0.607326 0.029547
C45   C     C_R   0.906832 0.956231 0.438814 -0.006793
C46   C     C_R   0.802622 0.805579 0.390474 0.028304
C47   C     C_R   0.284909 0.236062 0.672897 -0.179887
C48   C     C_R   0.709396 0.765705 0.327231 -0.177605
C49   C     C_R   0.362972 0.174061 0.755128 -0.145214
C50   C     C_R   0.627244 0.827207 0.248385 -0.140765
C51   C     C_R   0.963457 0.044295 0.555385 -0.209663
C52   C     C_R   0.036563 0.957103 0.443138 -0.208747
C53   C     C_R   0.114347 0.265363 0.521621 0.100524
C54   C     C_R   0.039522 0.321174 0.540210 -0.162359
C55   C     C_R   0.961619 0.385714 0.459931 -0.121410
C56   C     C_R   0.093154 0.045284 0.559654 -0.007303
C57   C     C_R   0.958521 0.395708 0.360492 -0.112109
C58   C     C_R   0.033243 0.341112 0.341187 -0.144569
C59   C     C_R   0.110968 0.276212 0.421282 -0.129036
C60   C     C_R   0.887287 0.736892 0.473496 0.099548
C61   C     C_R   0.960000 0.682257 0.451348 -0.163654
C62   C     C_R   0.041266 0.618384 0.528939 -0.123287
C63   C     C_R   0.049911 0.607908 0.629238 -0.109937
C64   C     C_R   0.977130 0.661164 0.652126 -0.142187
C65   C     C_R   0.895918 0.725283 0.574747 -0.130752
C66   C     C_R   0.454756 0.187205 0.204550 -0.053186
C67   C     C_R   0.525600 0.812637 0.795451 -0.053752
C68   C     C_R   0.380378 0.215680 0.027477 -0.208012
Cu1   Cu    Cu3+1 0.466270 0.918260 0.475690 0.939109
Cu2   Cu    Cu3+1 0.533730 0.081740 0.524310 0.939431
H1    H     H_    0.431580 0.205619 0.804654 0.131433
H2    H     H_    0.436288 0.276013 0.454116 0.116624
H3    H     H_    0.262618 0.858885 0.326183 0.117714
H4    H     H_    0.738404 0.141626 0.672902 0.117969
H5    H     H_    0.803958 0.288997 0.721239 0.133715
H6    H     H_    0.199222 0.712607 0.276055 0.134426
H7    H     H_    0.655717 0.596656 0.623593 0.133239
H8    H     H_    0.349579 0.405964 0.372263 0.132444
H9    H     H_    0.411591 0.023397 0.838648 0.120421
H10   H     H_    0.576248 0.977526 0.167774 0.119465
H11   H     H_    0.257247 0.950545 0.725878 0.113201
H12   H     H_    0.553952 0.795144 0.201752 0.122785
H13   H     H_    0.739571 0.051112 0.275401 0.109826
H14   H     H_    0.294678 0.315595 0.659686 0.135886
H15   H     H_    0.698690 0.686162 0.340220 0.137345
H16   H     H_    0.935025 0.076499 0.600591 0.153173
H17   H     H_    0.065019 0.924993 0.397867 0.153674
H18   H     H_    0.341197 0.357015 0.841641 0.137582
H19   H     H_    0.547785 0.643494 0.159356 0.140607
H20   H     H_    0.476416 0.681403 0.760188 0.151359
H21   H     H_    0.523060 0.318529 0.238630 0.152289
H22   H     H_    0.583678 0.931162 0.854356 0.148094
H23   H     H_    0.343321 0.184923 0.969358 0.131791
H24   H     H_    0.385261 0.068206 0.146731 0.146529
H25   H     H_    0.040359 0.313807 0.616948 0.116699
H26   H     H_    0.903507 0.427857 0.474851 0.137828
H27   H     H_    0.898356 0.445852 0.298391 0.121825
H28   H     H_    0.031264 0.349316 0.264070 0.126312
H29   H     H_    0.169343 0.235277 0.404965 0.121720
H30   H     H_    0.955003 0.690108 0.373869 0.118120
H31   H     H_    0.097779 0.577193 0.511255 0.138972
H32   H     H_    0.112853 0.558425 0.689227 0.119374
H33   H     H_    0.983419 0.652596 0.729922 0.125804
H34   H     H_    0.582717 0.815015 0.031681 0.129014
H35   H     H_    0.839182 0.765224 0.593856 0.121249
H36   H     H_    0.381925 0.535714 0.794044 0.140489
H37   H     H_    0.498962 0.465043 0.206595 0.142631
H38   H     H_    0.770030 0.455003 0.701581 0.144966
H39   H     H_    0.235166 0.547657 0.294110 0.146888
H40   H     H_    0.562920 0.723689 0.546544 0.117069
N1    N     N_R   0.584450 0.204570 0.560790 -0.172326
N2    N     N_R   0.415550 0.795430 0.439210 -0.172009
O1    O     O_R   0.455540 0.022090 0.338120 -0.587221
O2    O     O_R   0.544460 0.977910 0.661880 -0.586169
O3    O     O_R   0.512510 0.160150 0.379180 -0.590408
O4    O     O_R   0.487490 0.839850 0.620820 -0.591120
O5    O     O_R   0.291160 0.930970 0.479480 -0.582203
O6    O     O_R   0.708840 0.069030 0.520520 -0.582811
O7    O     O_R   0.348130 0.069020 0.520540 -0.580324
O8    O     O_R   0.651870 0.930980 0.479460 -0.579054

loop_
_geom_bond_atom_site_label_1
_geom_bond_atom_site_label_2
_ccdc_geom_bond_type
C64   H33   S    
Cu1   O4    S    
C34   C56   A    
C8    C13   A    
C23   C45   A    
C36   H38   S    
C59   H29   S    
C14   C18   A    
C2    C4    A    
C3    C68   A    
C58   H28   S    
C53   C59   A    
C39   C41   A    
C38   C49   A    
C53   C54   A    
Cu2   O2    S    
C15   C19   A    
C21   H6    S    
Cu1   O1    S    
C17   C23   S    
C1    O1    A    
C35   C37   A    
Cu1   N2    S    
C24   H3    S    
C27   C29   A    
C38   H9    S    
C41   H13   S    
C33   C36   A    
C51   C56   A    
C15   H37   S    
C17   O8    A    
C16   C34   S    
C11   C15   A    
C44   C53   S    
C24   N2    A    
Cu2   O7    S    
C37   H39   S    
C44   C47   A    
C62   H31   S    
C42   C56   S    
C40   C42   A    
C13   C14   A    
C41   C43   A    
C61   C62   A    
C42   C44   A    
C63   H32   S    
C51   H16   S    
C65   H35   S    
C12   O2    A    
C20   C29   A    
C12   C67   S    
C46   C48   A    
C27   C31   A    
C28   C32   A    
C47   C49   A    
C16   O7    A    
C5    C7    A    
C55   H26   S    
C6    C8    A    
C45   C52   A    
C58   C59   A    
C6    H20   S    
C18   H18   S    
C30   C37   A    
C60   C61   A    
C7    C11   A    
C62   C63   A    
C19   H19   S    
C23   C51   A    
C31   C32   A    
C29   C36   A    
C2    H34   S    
C10   C19   A    
C57   H27   S    
C1    C66   S    
C25   H2    S    
C47   H14   S    
C48   C50   A    
C43   C45   S    
C54   H25   S    
C5    H21   S    
C17   O6    A    
C6    C67   A    
C20   C22   A    
C60   C65   A    
C55   C57   A    
C31   C35   A    
C61   H30   S    
C22   H4    S    
C2    C10   A    
C26   N2    A    
C50   H12   S    
C7    C9    A    
C26   H40   S    
C54   C55   A    
C32   C33   A    
C35   H8    S    
C46   C60   S    
C26   C28   A    
C40   H11   S    
C52   H17   S    
C5    C66   A    
C4    C67   A    
Cu2   O3    S    
C25   C27   A    
C21   C30   A    
Cu1   O8    S    
C34   C52   A    
C68   H23   S    
C39   H10   S    
C28   C30   A    
C9    C68   A    
C16   O5    A    
C64   C65   A    
C38   C40   A    
C11   C13   A    
C33   H7    S    
C57   C58   A    
Cu2   O6    S    
Cu1   O5    S    
C3    H24   S    
Cu1   Cu2   S    
C43   C46   A    
Cu2   N1    S    
C25   N1    A    
C63   C64   A    
C3    C66   A    
C9    C18   A    
C14   H36   S    
C39   C50   A    
C20   H5    S    
C8    C10   A    
C22   N1    A    
C49   H1    S    
C21   C24   A    
C48   H15   S    
C1    O3    A    
C4    H22   S    
C12   O4    A    
