data_mof_unit_13767.cif
_audit_creation_date              2013-03-05T15:40:48-0500
_audit_creation_method            fapswitch 2.2
_symmetry_space_group_name_H-M    P1
_symmetry_Int_Tables_number       1
_space_group_crystal_system       triclinic
_cell_length_a                    7.817907
_cell_length_b                    8.656681
_cell_length_c                    14.901593
_cell_angle_alpha                 91.481358
_cell_angle_beta                  85.83112
_cell_angle_gamma                 93.259957
_cell_volume                      1003.96212095

loop_
_atom_site_label
_atom_site_type_symbol
_atom_site_description
_atom_site_fract_x
_atom_site_fract_y
_atom_site_fract_z
_atom_type_partial_charge
O1    O     O_R   0.389250 0.738570 0.505970 -0.603286
O2    O     O_R   0.610750 0.261430 0.494030 -0.607471
O3    O     O_R   0.678390 0.711620 0.490370 -0.553740
O4    O     O_R   0.321610 0.288380 0.509630 -0.571798
C1    C     C_R   0.544608 0.793487 0.496053 0.874757
C2    C     C_R   0.455395 0.206282 0.501261 0.917294
O5    O     O_R   0.355420 0.513510 0.639950 -0.599912
O6    O     O_R   0.644580 0.486490 0.360050 -0.562154
O7    O     O_R   0.644560 0.486560 0.624350 -0.581268
O8    O     O_R   0.355440 0.513440 0.375650 -0.599513
C3    C     C_R   0.501318 0.496689 0.672473 0.910604
C4    C     C_R   0.499095 0.506077 0.327678 0.874839
Zn1   Zn    Zn3+2 0.306940 0.517990 0.510420 1.168119
Zn2   Zn    Zn3+2 0.693060 0.482010 0.489580 1.188443
C5    C     C_R   0.412928 0.390284 0.190174 -0.158102
C6    C     C_R   0.582458 0.616089 0.810416 -0.157073
C7    C     C_R   0.495936 0.514048 0.232687 -0.060498
C8    C     C_R   0.503244 0.490413 0.767699 -0.056467
C9    C     C_R   0.570820 0.642348 0.185682 -0.033159
C10   C     C_R   0.412720 0.370152 0.815372 -0.052201
C11   C     C_R   0.566768 0.640378 0.091618 0.019902
C12   C     C_R   0.407601 0.376359 0.909641 0.011227
C13   C     C_R   0.487516 0.510544 0.047584 0.042674
C14   C     C_R   0.487575 0.505787 0.953608 0.046548
C15   C     C_R   0.410482 0.384392 0.097438 -0.002147
C16   C     C_R   0.570408 0.629043 0.903461 -0.005379
C17   C     C_R   0.643574 0.763255 0.040489 -0.213259
C18   C     C_R   0.329995 0.253820 0.960656 -0.224856
C19   C     C_R   0.643651 0.760231 0.947287 0.310719
C20   C     C_R   0.332312 0.255543 0.053634 0.318630
H1    H     H_    0.351641 0.298170 0.230903 0.214132
H2    H     H_    0.650836 0.704739 0.769679 0.216894
H3    H     H_    0.704477 0.863707 0.072076 0.195627
H4    H     H_    0.272771 0.151679 0.928968 0.190848
C21   C     C_2   0.569012 0.955299 0.498392 0.004041
C22   C     C_2   0.432045 0.044323 0.494593 0.004980
N1    N     N_2   0.950330 0.457950 0.475660 0.049232
N2    N     N_2   0.049670 0.542050 0.524340 0.052497
C23   C     C_2   0.644554 0.780126 0.234610 0.430654
H5    H     H_    0.611424 0.895403 0.218053 0.121713
O9    O     O_2   0.746315 0.766602 0.291807 -0.468318
C24   C     C_2   0.326843 0.238350 0.766772 0.510454
H6    H     H_    0.197981 0.195748 0.789102 0.117086
O10   O     O_2   0.401379 0.174142 0.702735 -0.538942
N3    N     N_R   0.715781 0.892690 0.898637 0.213968
O11   O     O_R   0.858101 0.962594 0.921940 -0.329571
O12   O     O_R   0.624474 0.960061 0.843057 -0.350650
N4    N     N_R   0.258970 0.123168 0.101844 0.221001
O13   O     O_R   0.110803 0.060757 0.081837 -0.312742
O14   O     O_R   0.353356 0.047565 0.152031 -0.402675
N5    N     N_R   0.740166 0.015590 0.512492 0.245579
O15   O     O_R   0.856345 0.018912 0.445466 -0.226623
O16   O     O_R   0.782722 0.053173 0.593328 -0.258110
N6    N     N_R   0.261830 0.983857 0.478481 0.240430
O17   O     O_R   0.141848 0.983857 0.543623 -0.227319
O18   O     O_R   0.225409 0.937009 0.398050 -0.289838
N7    N     N_R   0.021573 0.425863 0.389912 0.302152
O19   O     O_R   0.009794 0.523804 0.326215 -0.298749
O20   O     O_R   0.065740 0.286276 0.368895 -0.310461
N8    N     N_R   0.978887 0.573182 0.610292 0.304119
O21   O     O_R   0.990309 0.473939 0.673365 -0.355401
O22   O     O_R   0.937566 0.713208 0.632295 -0.307480

loop_
_geom_bond_atom_site_label_1
_geom_bond_atom_site_label_2
_geom_bond_distance
_ccdc_geom_bond_type
C4    C7    1.421046 S    
O5    Zn1   1.995682 S    
C10   C24   1.489251 S    
O7    Zn2   2.016292 S    
C3    C8    1.422669 S    
C5    H1    1.083085 S    
N1    N2    1.284404 D    
N6    O18   1.301325 A    
C6    H2    1.083263 S    
C21   C22   1.359647 D    
O6    C4    1.288814 A    
C13   C14   1.399903 A    
O3    C1    1.292916 A    
N4    O14   1.301007 A    
C11   C17   1.405450 A    
C18   H4    1.081233 S    
C18   C20   1.386645 A    
C23   O9    1.219596 D    
C12   C18   1.404530 A    
N3    O11   1.301335 A    
C17   H3    1.081091 S    
Zn2   N1    2.028926 S    
O5    C3    1.288413 A    
O7    C3    1.291185 A    
C14   C16   1.417219 A    
Zn1   N2    2.028926 S    
O2    C2    1.277629 A    
O3    Zn2   1.997149 S    
C24   O10   1.219705 D    
C16   C19   1.409309 A    
N2    N8    1.383985 S    
C9    C23   1.491428 S    
C6    C8    1.384627 A    
N4    O13   1.301254 A    
C9    C11   1.404005 A    
C2    C22   1.405416 S    
C8    C10   1.403809 A    
C11   C13   1.421074 A    
C21   N5    1.436224 S    
N1    N7    1.384150 S    
O2    Zn2   1.981220 S    
C12   C14   1.420359 A    
N7    O20   1.299854 A    
O4    C2    1.294445 A    
C22   N6    1.436381 S    
C24   H6    1.084896 S    
N5    O15   1.299999 A    
C1    C21   1.402774 S    
O1    C1    1.278635 A    
C13   C15   1.417505 A    
O1    Zn1   1.981218 S    
C17   C19   1.388381 A    
C5    C15   1.383008 A    
N8    O22   1.299922 A    
N3    O12   1.301518 A    
C20   N4    1.437347 S    
C23   H5    1.084077 S    
C5    C7    1.384181 A    
N6    O17   1.299917 A    
C15   C20   1.409436 A    
O6    Zn2   1.995683 S    
C7    C9    1.404835 A    
N7    O19   1.300567 A    
O8    C4    1.290525 A    
O8    Zn1   2.016294 S    
C19   N3    1.438186 S    
O4    Zn1   1.997151 S    
C10   C12   1.402148 A    
N8    O21   1.300809 A    
N5    O16   1.301253 A    
C6    C16   1.384939 A    
