data_mof_unit_27418.cif
_audit_creation_date              2012-12-11T15:18:33-0500
_audit_creation_method            fapswitch 2.2
_symmetry_space_group_name_H-M    P1
_symmetry_Int_Tables_number       1
_space_group_crystal_system       triclinic
_cell_length_a                    6.935949
_cell_length_b                    20.079787
_cell_length_c                    23.687478
_cell_angle_alpha                 93.48264
_cell_angle_beta                  92.062817
_cell_angle_gamma                 87.405148
_cell_volume                      3287.71369153

loop_
_atom_site_label
_atom_site_type_symbol
_atom_type_description
_atom_site_fract_x
_atom_site_fract_y
_atom_site_fract_z
_atom_type_partial_charge
O1    O     O_R   0.620100 0.812200 0.810870 -0.503183
O2    O     O_R   0.379900 0.187800 0.189130 -0.504143
O3    O     O_R   0.296960 0.671650 0.794750 -0.536156
O4    O     O_R   0.703040 0.328350 0.205250 -0.548468
O5    O     O_R   0.120160 0.687800 0.689130 -0.555999
O6    O     O_R   0.879840 0.312200 0.310870 -0.555614
C1    C     C_R   0.471461 0.646738 0.804545 0.776506
C2    C     C_R   0.528449 0.353549 0.195907 0.831858
O7    O     O_R   0.290810 0.810670 0.817290 -0.520756
O8    O     O_R   0.709190 0.189330 0.182710 -0.543442
O9    O     O_R   0.113980 0.827820 0.711840 -0.505552
O10   O     O_R   0.886020 0.172180 0.288160 -0.530716
C3    C     C_R   0.461196 0.829389 0.835836 0.782299
C4    C     C_R   0.539042 0.170739 0.164075 0.830069
O11   O     O_R   0.626290 0.672180 0.788160 -0.511732
O12   O     O_R   0.373710 0.327820 0.211840 -0.505186
O13   O     O_3   0.451520 0.755460 0.715370 -0.363430
O14   O     O_3   0.548480 0.244540 0.284630 -0.381054
V1    V     V_3+5 0.179200 0.748980 0.756420 1.724570
V2    V     V_3+5 0.820800 0.251020 0.243580 1.657755
O15   O     O_R   0.783880 0.828350 0.705250 -0.521986
O16   O     O_R   0.216120 0.171650 0.294750 -0.523310
C5    C     C_R   0.947716 0.853076 0.694464 0.802839
C6    C     C_R   0.052599 0.147313 0.305665 0.929399
O17   O     O_R   0.790030 0.689320 0.682700 -0.539331
O18   O     O_R   0.209970 0.310680 0.317300 -0.532702
C7    C     C_R   0.959191 0.668610 0.665271 0.721882
C8    C     C_R   0.040770 0.331478 0.334665 0.814121
V3    V     V_3+5 0.678400 0.751010 0.743570 1.740176
V4    V     V_3+5 0.321600 0.248990 0.256430 1.742090
O19   O     O_3   0.955950 0.744540 0.784620 -0.328525
O20   O     O_3   0.044050 0.255460 0.215380 -0.348002
C9    C     C_R   0.862593 0.422150 0.391823 -0.166177
C10   C     C_R   0.137133 0.577676 0.608277 -0.133442
C11   C     C_R   0.029627 0.380555 0.384309 -0.057596
C12   C     C_R   0.970151 0.619319 0.615761 -0.054418
C13   C     C_R   0.184727 0.386744 0.424046 -0.172149
C14   C     C_R   0.814773 0.612939 0.576140 -0.230559
C15   C     C_R   0.173444 0.433875 0.470431 0.082649
C16   C     C_R   0.825947 0.565726 0.529809 0.094896
C17   C     C_R   0.005653 0.475819 0.477029 0.068508
C18   C     C_R   0.993747 0.523786 0.523212 0.071595
C19   C     C_R   0.849790 0.469929 0.437478 0.082241
C20   C     C_R   0.149707 0.529742 0.562721 0.074825
C21   C     C_R   0.326967 0.439944 0.510383 -0.141938
C22   C     C_R   0.672395 0.559638 0.489870 -0.151961
C23   C     C_R   0.315250 0.487431 0.556078 -0.144232
C24   C     C_R   0.684202 0.512208 0.444143 -0.144678
H1    H     H_    0.743597 0.418030 0.361451 0.165627
H2    H     H_    0.256339 0.581924 0.638561 0.164508
H3    H     H_    0.313860 0.354750 0.418999 0.145163
H4    H     H_    0.685595 0.644907 0.581190 0.139431
H5    H     H_    0.456811 0.408198 0.506128 0.152152
H6    H     H_    0.542542 0.591379 0.494123 0.154382
H7    H     H_    0.436311 0.491189 0.586105 0.157675
H8    H     H_    0.563212 0.508502 0.414093 0.157403
C25   C     C_R   0.935137 0.916664 0.664053 -0.288389
C26   C     C_R   0.062667 0.085345 0.337887 -0.345368
C27   C     C_R   0.740460 0.018615 0.647365 0.290752
C28   C     C_R   0.204025 0.972762 0.347077 0.278042
C29   C     C_R   0.810762 0.969681 0.684442 0.384179
C30   C     C_R   0.156019 0.027019 0.313417 0.330674
C31   C     C_R   0.024926 0.922223 0.611648 0.254250
C32   C     C_R   0.013339 0.087196 0.395971 0.346521
C33   C     C_R   0.938639 0.966554 0.571276 -0.051122
C34   C     C_R   0.019897 0.026181 0.425243 -0.075988
C35   C     C_R   0.787768 0.012987 0.589264 -0.105466
C36   C     C_R   0.118229 0.968599 0.400040 -0.139828
C37   C     C_R   0.993478 0.966103 0.513194 0.076861
C38   C     C_R   0.936860 0.020208 0.479378 0.079515
C39   C     C_R   0.773056 0.058583 0.495735 -0.081115
C40   C     C_R   0.071390 0.908576 0.484808 -0.079667
C41   C     C_R   0.692304 0.052914 0.548149 0.354794
C42   C     C_R   0.125292 0.908321 0.428713 0.339218
H9    H     H_    0.696783 0.089420 0.465600 0.194485
H10   H     H_    0.074942 0.861489 0.504608 0.176962
C43   C     C_R   0.503081 0.584855 0.835665 -0.184956
C44   C     C_R   0.496048 0.415829 0.165471 -0.197566
C45   C     C_R   0.654808 0.474174 0.843364 -0.151879
C46   C     C_R   0.339176 0.525828 0.157900 -0.140659
C47   C     C_R   0.610839 0.529319 0.811489 0.455995
C48   C     C_R   0.385865 0.470782 0.189715 0.444381
C49   C     C_R   0.452465 0.584447 0.892944 -0.266968
C50   C     C_R   0.547385 0.416876 0.108454 -0.131047
C51   C     C_R   0.517346 0.531634 0.927318 0.075737
C52   C     C_R   0.481961 0.469747 0.074314 0.109675
C53   C     C_R   0.604654 0.474166 0.899917 0.005608
C54   C     C_R   0.390583 0.526426 0.101487 -0.041568
C55   C     C_R   0.490888 0.531976 0.987233 -0.099391
C56   C     C_R   0.510806 0.469851 0.014659 -0.054765
C57   C     C_R   0.553678 0.410461 0.980904 0.342923
C58   C     C_R   0.445244 0.591080 0.021288 0.376717
C59   C     C_R   0.626213 0.414821 0.927381 -0.163975
C60   C     C_R   0.366392 0.585626 0.073957 -0.119434
H11   H     H_    0.672653 0.369323 0.903702 0.182295
H12   H     H_    0.314634 0.630521 0.097504 0.199037
H13   H     H_    0.637676 0.376203 0.091231 0.178971
H14   H     H_    0.364532 0.625665 0.910249 0.201113
H15   H     H_    0.728830 0.430472 0.823789 0.192536
H16   H     H_    0.262649 0.569012 0.177463 0.195754
C61   C     C_R   0.673752 0.075261 0.104779 -0.162234
C62   C     C_R   0.326845 0.924470 0.895439 -0.101288
C63   C     C_R   0.525371 0.124243 0.112664 -0.197633
C64   C     C_R   0.476042 0.875704 0.887289 -0.186745
C65   C     C_R   0.366291 0.126023 0.072650 0.374682
C66   C     C_R   0.637710 0.874641 0.926652 0.314630
C67   C     C_R   0.350521 0.073393 0.029677 -0.023424
C68   C     C_R   0.652034 0.927130 0.969911 -0.008120
C69   C     C_R   0.504813 0.025325 0.022278 0.041136
C70   C     C_R   0.496683 0.974764 0.977626 0.043188
C71   C     C_R   0.667902 0.027750 0.059267 0.086339
C72   C     C_R   0.333304 0.972292 0.940752 0.078310
C73   C     C_R   0.184929 0.067197 0.993579 -0.075112
C74   C     C_R   0.817992 0.933860 0.005898 -0.068901
C75   C     C_R   0.178073 0.018209 0.949346 -0.148371
C76   C     C_R   0.823803 0.982331 0.050461 -0.145362
H17   H     H_    0.795027 0.073827 0.134700 0.201597
H18   H     H_    0.204834 0.925798 0.865612 0.186572
H19   H     H_    0.056635 0.098971 0.999498 0.196436
H20   H     H_    0.947789 0.903013 0.999821 0.210389
H21   H     H_    0.049268 0.015789 0.922099 0.154607
H22   H     H_    0.952722 0.984928 0.077655 0.161074
S1    S     S_3+6 0.301205 0.473837 0.259485 0.007071
O21   O     O_2   0.293008 0.544841 0.283723 -0.296814
O22   O     O_2   0.101287 0.447754 0.257318 -0.344667
O23   O     O_3   0.445831 0.427439 0.301318 -0.541968
H23   H     H_    0.397513 0.437558 0.339813 0.332291
S2    S     S_3+6 0.696091 0.525747 0.741732 0.012624
O24   O     O_2   0.895712 0.552086 0.743852 -0.339637
O25   O     O_2   0.705126 0.454600 0.717853 -0.299770
O26   O     O_3   0.551468 0.571674 0.699526 -0.536453
H24   H     H_    0.602375 0.562243 0.661253 0.336794
S3    S     S_3+6 0.448348 0.333975 0.992368 0.093051
O27   O     O_2   0.272928 0.348511 0.027160 -0.257305
O28   O     O_2   0.385739 0.300462 0.936634 -0.261995
O29   O     O_3   0.605320 0.281682 0.025241 -0.492534
H25   H     H_    0.719263 0.277423 0.001039 0.353357
S4    S     S_3+6 0.554671 0.667977 0.013334 0.093658
O30   O     O_2   0.426035 0.713177 0.978766 -0.327690
O31   O     O_2   0.586221 0.702932 0.070663 -0.237406
O32   O     O_3   0.773290 0.654250 0.985000 -0.428698
H26   H     H_    0.751274 0.633628 0.946617 0.342633
S5    S     S_3+6 0.199364 0.196334 0.071514 0.049855
O33   O     O_2   0.276335 0.256600 0.103793 -0.298976
O34   O     O_2   0.156717 0.213688 0.011350 -0.266671
O35   O     O_3   0.993597 0.176337 0.100009 -0.536441
H27   H     H_    0.896718 0.210966 0.088230 0.363200
S6    S     S_3+6 0.815345 0.806870 0.926045 0.080012
O36   O     O_2   0.995193 0.829820 0.901361 -0.345887
O37   O     O_2   0.862410 0.788282 0.985645 -0.229404
O38   O     O_3   0.749003 0.737489 0.888792 -0.475307
H28   H     H_    0.613298 0.732134 0.898077 0.318605
Br1   Br    Br    0.431506 0.089677 0.552871 -0.293200
Br2   Br    Br    0.167042 0.820586 0.392534 -0.319109
S7    S     S_3+6 0.989299 0.167453 0.433171 0.008002
O39   O     O_2   0.019729 0.163176 0.495995 -0.267486
O40   O     O_2   0.137710 0.212320 0.413471 -0.365938
O41   O     O_3   0.767885 0.201320 0.419001 -0.511698
H29   H     H_    0.774755 0.249017 0.432000 0.358158
S8    S     S_3+6 0.266872 0.887968 0.605623 0.035088
O42   O     O_2   0.376052 0.923781 0.563897 -0.307732
O43   O     O_2   0.372467 0.895862 0.661951 -0.287038
O44   O     O_3   0.266469 0.806169 0.585226 -0.492909
H30   H     H_    0.139469 0.790971 0.595703 0.281463
S9    S     S_3+6 0.229055 0.022753 0.241652 0.059062
O45   O     O_2   0.435752 0.042043 0.240685 -0.327994
O46   O     O_2   0.213036 0.952640 0.216348 -0.254219
O47   O     O_3   0.091738 0.074059 0.201850 -0.525672
H31   H     H_    0.146845 0.068451 0.163772 0.348265
S10   S     S_3+6 0.756495 0.978393 0.758031 0.082255
O48   O     O_2   0.809707 0.046492 0.781802 -0.272368
O49   O     O_2   0.543582 0.971213 0.764023 -0.293729
O50   O     O_3   0.878679 0.921920 0.796679 -0.515627
H32   H     H_    0.846058 0.934763 0.836336 0.344428
Br3   Br    Br    0.603870 0.097754 0.679130 -0.184608
Br4   Br    Br    0.428987 0.916505 0.327273 -0.250719

loop_
_geom_bond_atom_site_label_1
_geom_bond_atom_site_label_2
_ccdc_geom_bond_type
C26   C30   A    
S5    O35   S    
C34   C36   A    
C31   C33   A    
O23   H23   S    
C75   H21   S    
S7    O40   D    
O13   V3    S    
C17   C18   A    
C62   C72   A    
O44   H30   S    
S6    O38   S    
C24   H8    S    
O4    C2    A    
C58   S4    S    
S2    O24   D    
C45   C53   A    
S3    O27   D    
C4    C63   S    
S1    O21   D    
C15   C17   A    
C34   C38   A    
O50   H32   S    
C16   C22   A    
C65   C67   A    
C32   S7    S    
O9    V1    S    
S9    O45   D    
C76   H22   S    
C50   H13   S    
C45   H15   S    
C11   C13   A    
S6    O37   D    
O3    C1    A    
C69   C71   A    
C13   H3    S    
C52   C54   A    
S1    O22   D    
C14   H4    S    
S10   O48   D    
C43   C49   A    
C36   C42   A    
S5    O33   D    
C46   C54   A    
C66   S6    S    
C42   Br2   S    
C28   C30   A    
C68   C74   A    
O7    C3    A    
C67   C73   A    
C27   C35   A    
O5    C7    A    
O7    V1    S    
O6    C8    A    
C8    C11   S    
O8    V2    S    
C33   C35   A    
C49   H14   S    
S3    O29   S    
O38   H28   S    
O3    V1    S    
C71   C76   A    
C35   C41   A    
V4    O20   S    
C19   C24   A    
C10   C12   A    
C62   H18   S    
C20   C23   A    
C40   H10   S    
C1    C43   S    
C16   C18   A    
V1    O19   S    
C2    O12   A    
C73   H19   S    
C46   H16   S    
S7    O41   S    
C2    C44   S    
C17   C19   A    
C22   H6    S    
S9    O46   D    
C18   C20   A    
C31   S8    S    
O1    V3    S    
O11   V3    S    
C22   C24   A    
C21   C23   A    
O17   V3    S    
C54   C60   A    
C10   H2    S    
C27   C29   A    
C51   C53   A    
C9    C19   A    
S8    O44   S    
C10   C20   A    
S6    O36   D    
C40   C42   A    
C52   C56   A    
C45   C47   A    
C51   C55   A    
S1    O23   S    
C1    O11   A    
C26   C32   A    
O15   V3    S    
C3    C64   S    
S8    O43   D    
C37   C40   A    
C60   H12   S    
C57   C59   A    
C44   C48   A    
C57   S3    S    
C43   C47   A    
V3    O19   S    
O10   V2    S    
C58   C60   A    
C63   C65   A    
C55   C58   A    
C62   C64   A    
C38   C39   A    
S4    O31   D    
C5    C25   S    
C6    C26   S    
O47   H31   S    
C49   C51   A    
O18   V4    S    
S9    O47   S    
O15   C5    A    
C47   S2    S    
O8    C4    A    
O41   H29   S    
C28   Br4   S    
O16   C6    A    
O1    C3    A    
O12   V4    S    
C41   Br1   S    
O26   H24   S    
S2    O26   S    
C48   S1    S    
C23   H7    S    
O35   H27   S    
V2    O20   S    
S5    O34   D    
O16   V4    S    
O18   C8    A    
C39   H9    S    
C25   C31   A    
C50   C52   A    
O29   H25   S    
S4    O32   S    
S2    O25   D    
C65   S5    S    
C74   C76   A    
C25   C29   A    
C64   C66   A    
O5    V1    S    
C7    C12   S    
O17   C7    A    
O6    V2    S    
O10   C6    A    
C27   Br3   S    
C61   C63   A    
C15   C21   A    
O2    V4    S    
C61   H17   S    
S8    O42   D    
C12   C14   A    
C13   C15   A    
C69   C70   A    
C14   C16   A    
C9    C11   A    
C56   C57   A    
C67   C69   A    
C66   C68   A    
C33   C37   A    
C61   C71   A    
C53   C59   A    
O9    C5    A    
O13   V1    S    
C46   C48   A    
C68   C70   A    
O14   V2    S    
C37   C38   A    
O2    C4    A    
C70   C72   A    
S4    O30   D    
O14   V4    S    
C21   H5    S    
O4    V2    S    
C44   C50   A    
C30   S9    S    
C28   C36   A    
C59   H11   S    
C39   C41   A    
S7    O39   D    
S3    O28   D    
C29   S10   S    
S10   O49   D    
C55   C56   A    
O32   H26   S    
C9    H1    S    
C72   C75   A    
C74   H20   S    
C32   C34   A    
C73   C75   A    
S10   O50   S    
