data_mof_unit_66656.cif
_audit_creation_date              2012-10-26T21:06:56-0400
_audit_creation_method            fapswitch 2.2
_symmetry_space_group_name_H-M    P1
_symmetry_Int_Tables_number       1
_space_group_crystal_system       triclinic
_cell_length_a                    10.745762
_cell_length_b                    8.687203
_cell_length_c                    7.585869
_cell_angle_alpha                 103.370574
_cell_angle_beta                  95.154497
_cell_angle_gamma                 94.311567
_cell_volume                      682.792168942

loop_
_atom_site_label
_atom_site_type_symbol
_atom_type_description
_atom_site_fract_x
_atom_site_fract_y
_atom_site_fract_z
_atom_type_partial_charge
Br1   Br    Br    0.143665 0.617666 0.910453 -0.392970
Br2   Br    Br    0.872060 0.449988 0.106183 -0.450401
Br3   Br    Br    0.348720 0.290400 0.900573 -0.265209
Br4   Br    Br    0.172490 0.850707 0.617136 -0.444079
Br5   Br    Br    0.822331 0.156620 0.257778 -0.375170
C1    C     C_R   0.488283 0.199757 0.452918 0.577693
C2    C     C_3   0.080180 0.459003 0.683829 0.021789
C3    C     C_3   0.935014 0.434796 0.668864 -0.122910
C4    C     C_3   0.075287 0.655247 0.475202 0.038334
C5    C     C_3   0.056890 0.358331 0.343235 -0.248198
C6    C     C_3   0.122305 0.496034 0.503802 -0.012848
C7    C     C_2   0.377829 0.939225 0.263027 0.288075
C8    C     C_2   0.625158 0.667343 0.064920 0.472143
C9    C     C_2   0.889947 0.266580 0.676376 0.291489
C10   C     C_3   0.876545 0.484775 0.495922 -0.021792
C11   C     C_3   0.935753 0.657243 0.507684 -0.231583
C12   C     C_3   0.913204 0.369500 0.319656 0.265067
C13   C     C_2   0.461251 0.030806 0.428600 -0.024993
C14   C     C_2   0.502018 0.967838 0.567232 -0.085103
C15   C     C_R   0.260388 0.498636 0.501027 0.562475
C16   C     C_R   0.500049 0.799420 0.546248 0.532785
C17   C     C_R   0.738655 0.491199 0.497757 0.574815
Cu1   Cu    Cu3+1 0.514070 0.517380 0.684380 1.198876
Cu2   Cu    Cu3+1 0.485930 0.482620 0.315620 1.118361
H1    H     H_    0.083626 0.659888 0.331384 0.193991
H2    H     H_    0.650278 0.687467 0.207875 0.134275
H3    H     H_    0.949506 0.170706 0.642893 0.149065
H4    H     H_    0.885467 0.712523 0.407219 0.161625
H5    H     H_    0.549744 0.041526 0.694633 0.205155
H6    H     H_    0.120663 0.348688 0.700889 0.156016
H7    H     H_    0.905374 0.516921 0.788332 0.237866
H8    H     H_    0.926687 0.734217 0.644372 0.199707
H9    H     H_    0.096076 0.360596 0.212983 0.214565
H10   H     H_    0.076674 0.242058 0.371948 0.139066
H11   H     H_    0.316302 0.836229 0.269491 0.170603
N1    N     N_2   0.464720 0.456420 0.038520 -0.014662
N2    N     N_2   0.535280 0.543580 0.961480 -0.116309
O1    O     O_R   0.509140 0.286130 0.619770 -0.477330
O2    O     O_2   0.681222 0.754737 0.987478 -0.443776
O3    O     O_2   0.784318 0.234817 0.713442 -0.423347
O4    O     O_R   0.485380 0.256770 0.308360 -0.423854
O5    O     O_R   0.329570 0.514650 0.655700 -0.439411
O6    O     O_R   0.305810 0.485300 0.344290 -0.509451
O7    O     O_R   0.514620 0.743230 0.691640 -0.425027
O8    O     O_R   0.490860 0.713870 0.380230 -0.592055
O9    O     O_R   0.694190 0.514700 0.655710 -0.462302
O10   O     O_R   0.670430 0.485350 0.344300 -0.511059
O11   O     O_2   0.375671 0.978875 0.118532 -0.389997

loop_
_geom_bond_atom_site_label_1
_geom_bond_atom_site_label_2
_ccdc_geom_bond_type
C11   H4    S    
C15   O5    A    
Cu1   Cu2   S    
C1    O1    A    
C9    H3    S    
C11   H8    S    
C16   O7    A    
C8    N2    S    
C7    O11   D    
C17   O10   A    
C4    H1    S    
C2    C3    S    
C5    H10   S    
C2    H6    S    
Br1   C2    S    
C7    H11   S    
C2    C6    S    
Cu2   O4    S    
C4    C6    S    
Cu2   N1    S    
Cu1   O5    S    
Br3   N1    S    
Cu2   O8    S    
N1    N2    D    
C14   C16   S    
C4    C11   S    
C5    H9    S    
C16   O8    A    
C1    C13   S    
C8    H2    S    
C8    O2    D    
Br5   C12   S    
C5    C6    S    
Cu1   O7    S    
C5    C12   S    
C9    O3    D    
C10   C11   S    
Cu1   O1    S    
C15   O6    A    
C10   C12   S    
C13   C14   D    
C7    C13   S    
Cu1   O9    S    
Cu2   O6    S    
C3    C9    S    
C3    C10   S    
C17   O9    A    
Br4   C4    S    
Cu1   N2    S    
Cu2   O10   S    
C6    C15   S    
C10   C17   S    
C3    H7    S    
Br2   C12   S    
C1    O4    A    
C14   H5    S    
