data_mof_unit_16271.cif
_audit_creation_date              2013-03-05T15:46:34-0500
_audit_creation_method            fapswitch 2.2
_symmetry_space_group_name_H-M    P1
_symmetry_Int_Tables_number       1
_space_group_crystal_system       triclinic
_cell_length_a                    10.662326
_cell_length_b                    11.067799
_cell_length_c                    9.836311
_cell_angle_alpha                 111.795704
_cell_angle_beta                  97.744731
_cell_angle_gamma                 91.383695
_cell_volume                      1064.48057159

loop_
_atom_site_label
_atom_site_type_symbol
_atom_site_description
_atom_site_fract_x
_atom_site_fract_y
_atom_site_fract_z
_atom_type_partial_charge
O1    O     O_R   0.511880 0.332340 0.577400 -0.619454
O2    O     O_R   0.488120 0.667660 0.422600 -0.619763
O3    O     O_R   0.474280 0.295500 0.332650 -0.503042
O4    O     O_R   0.525720 0.704500 0.667350 -0.502720
C1    C     C_R   0.490993 0.253579 0.439272 0.780618
C2    C     C_R   0.509285 0.746441 0.560717 0.780123
O5    O     O_R   0.335640 0.518390 0.622350 -0.563776
O6    O     O_R   0.664360 0.481610 0.377650 -0.563966
O7    O     O_R   0.298050 0.481550 0.377590 -0.547101
O8    O     O_R   0.701950 0.518450 0.622410 -0.547319
C3    C     C_R   0.259785 0.499011 0.501497 0.903180
C4    C     C_R   0.740214 0.501039 0.498518 0.902433
Cu1   Cu    Cu3+1 0.522260 0.521810 0.644920 1.077493
Cu2   Cu    Cu3+1 0.477740 0.478190 0.355080 1.077348
C5    C     C_3   0.056186 0.526975 0.640068 0.264646
C6    C     C_3   0.943810 0.473143 0.359979 0.264507
C7    C     C_3   0.958015 0.409184 0.548816 -0.326227
C8    C     C_3   0.041981 0.590936 0.451233 -0.326174
H1    H     H_    0.922640 0.333640 0.586628 0.216039
H2    H     H_    0.077356 0.666478 0.413419 0.216245
C9    C     C_3   0.875953 0.501275 0.495866 -0.241227
C10   C     C_3   0.124043 0.498837 0.504177 -0.241465
C11   C     C_3   0.973327 0.616486 0.586204 0.290145
C12   C     C_3   0.026661 0.383633 0.413846 0.290009
H3    H     H_    0.467510 0.861394 0.374436 0.210538
H4    H     H_    0.537357 0.138490 0.624967 0.210685
C13   C     C_2   0.487001 0.112680 0.401674 0.179943
C14   C     C_2   0.514002 0.887379 0.598206 0.180440
C15   C     C_2   0.509507 0.069105 0.512186 -0.197189
C16   C     C_2   0.493821 0.930860 0.487410 -0.197853
H5    H     H_    0.415929 0.415773 0.844928 0.177834
H6    H     H_    0.584069 0.584230 0.155074 0.177275
N1    N     N_2   0.444270 0.445410 0.137360 -0.263046
N2    N     N_2   0.555730 0.554590 0.862640 -0.263205
C17   C     C_2   0.510548 0.510865 0.081543 0.015270
C18   C     C_2   0.489450 0.489137 0.918458 0.015627
H7    H     H_    0.624332 0.624229 0.935219 0.246958
H8    H     H_    0.375668 0.375770 0.064780 0.247113
Br1   Br    Br    0.132244 0.566722 0.843961 -0.344709
Br2   Br    Br    0.867761 0.433398 0.156082 -0.345208
N3    N     N_R   0.946742 0.746835 0.681301 0.168475
O9    O     O_R   0.040097 0.835142 0.751975 -0.239311
O10   O     O_R   0.830504 0.777615 0.691036 -0.313605
N4    N     N_R   0.053229 0.253280 0.318765 0.168589
O11   O     O_R   0.959865 0.164996 0.248025 -0.239497
O12   O     O_R   0.169470 0.222451 0.309213 -0.312469
N5    N     N_R   0.538651 0.975053 0.751475 0.150389
O13   O     O_R   0.628027 0.954634 0.842614 -0.211900
O14   O     O_R   0.458998 0.061306 0.804732 -0.310685
N6    N     N_R   0.460413 0.025098 0.248486 0.149993
O15   O     O_R   0.368659 0.044773 0.159444 -0.211818
O16   O     O_R   0.540364 0.940034 0.192904 -0.309186

loop_
_geom_bond_atom_site_label_1
_geom_bond_atom_site_label_2
_geom_bond_distance
_ccdc_geom_bond_type
N6    O16   1.301583 A    
O7    Cu2   1.957751 S    
C14   N5    1.441550 S    
C15   C16   1.458845 S    
C13   C15   1.340308 D    
N2    H7    1.030621 S    
N3    O10   1.299773 A    
N3    O9    1.300481 A    
C6    C12   1.532472 S    
C3    C10   1.451077 S    
C8    H2    1.110477 S    
N5    O13   1.301335 A    
C11   N3    1.457990 S    
C13   N6    1.441318 S    
O6    C4    1.287023 A    
Cu2   N1    2.013968 S    
C14   C16   1.340479 D    
N6    O15   1.301003 A    
Cu1   N2    2.013968 S    
N5    O14   1.301820 A    
C8    C10   1.546050 S    
Cu1   Cu2   2.681127 S    
O5    C3    1.287021 A    
O7    C3    1.285371 A    
C5    Br1   1.939763 S    
O2    C2    1.298111 A    
O3    Cu2   1.949706 S    
O8    C4    1.285336 A    
C6    Br2   1.939770 S    
O1    C1    1.298085 A    
C5    C11   1.532515 S    
N1    C17   1.304175 D    
C12   N4    1.457920 S    
N4    O12   1.299750 A    
N2    C18   1.304174 D    
C9    C11   1.529541 S    
O2    Cu2   1.945653 S    
C10   C12   1.529533 S    
O4    C2    1.289286 A    
O1    Cu1   1.945653 S    
C8    C11   1.539974 S    
C7    C12   1.539910 S    
H6    C17   1.085027 S    
O5    Cu1   1.970052 S    
N4    O11   1.300518 A    
H4    C15   1.084497 S    
C6    C8    1.553342 S    
O4    Cu1   1.949705 S    
C5    C7    1.553327 S    
H5    C18   1.085025 S    
H3    C16   1.084339 S    
O6    Cu2   1.970052 S    
C7    H1    1.110481 S    
C1    C13   1.461068 S    
C6    C9    1.539304 S    
C4    C9    1.450991 S    
O8    Cu1   1.957751 S    
C5    C10   1.539329 S    
C2    C14   1.461435 S    
N1    H8    1.030621 S    
O3    C1    1.289147 A    
C17   C18   1.515053 S    
C7    C9    1.546012 S    
