data_mof_unit_27051.cif
_audit_creation_date              2012-12-11T14:46:14-0500
_audit_creation_method            fapswitch 2.2
_symmetry_space_group_name_H-M    P1
_symmetry_Int_Tables_number       1
_space_group_crystal_system       triclinic
_cell_length_a                    10.893284
_cell_length_b                    10.920466
_cell_length_c                    18.771781
_cell_angle_alpha                 89.519946
_cell_angle_beta                  90.456054
_cell_angle_gamma                 119.761561
_cell_volume                      1938.45249138

loop_
_atom_site_label
_atom_site_type_symbol
_atom_type_description
_atom_site_fract_x
_atom_site_fract_y
_atom_site_fract_z
_atom_type_partial_charge
C1    C     C_R   0.867966 0.636002 0.605112 0.562696
C2    C     C_R   0.958090 0.161485 0.711191 -0.008612
C3    C     C_R   0.966917 0.186454 0.786273 -0.010101
C4    C     C_R   0.206621 0.593212 0.610776 0.537721
C5    C     C_R   0.718304 0.122795 0.709227 0.037322
C6    C     C_R   0.731899 0.163952 0.780675 0.027873
C7    C     C_R   0.584914 0.065746 0.675253 -0.050909
C8    C     C_R   0.472281 0.067169 0.708886 -0.104269
C9    C     C_R   0.493759 0.132318 0.774672 -0.109667
C10   C     C_R   0.623964 0.185342 0.809171 -0.065199
C11   C     C_R   0.839358 0.147449 0.671952 0.010651
C12   C     C_R   0.439632 0.729579 0.770207 0.165887
C13   C     C_R   0.717819 0.547214 0.713771 -0.129644
C14   C     C_R   0.707867 0.551534 0.787551 -0.136372
C15   C     C_R   0.822888 0.653705 0.827149 0.091999
C16   C     C_R   0.860523 0.220941 0.601877 0.550879
C17   C     C_R   0.951647 0.745945 0.792142 0.259325
C18   C     C_R   0.956517 0.745902 0.719503 -0.076915
C19   C     C_R   0.841270 0.647654 0.679520 0.004461
C20   C     C_R   0.243503 0.536736 0.275398 -0.092667
C21   C     C_R   0.260347 0.552877 0.202732 -0.116686
C22   C     C_R   0.333554 0.688190 0.173345 0.015449
C23   C     C_R   0.395081 0.700915 0.700012 -0.092061
C24   C     C_R   0.377316 0.807442 0.216711 -0.130393
C25   C     C_R   0.357964 0.790867 0.290010 -0.139953
C26   C     C_R   0.296411 0.655489 0.319586 0.043246
C27   C     C_R   0.786809 0.254498 0.274707 -0.116850
C28   C     C_R   0.867881 0.638048 0.396512 0.591936
C29   C     C_R   0.789834 0.243501 0.201713 0.182156
C30   C     C_R   0.857958 0.175065 0.171848 0.036664
C31   C     C_R   0.942854 0.140507 0.216260 0.170331
C32   C     C_R   0.939628 0.153960 0.289627 -0.124994
C33   C     C_R   0.856288 0.204307 0.318982 -0.062971
C34   C     C_R   0.251126 0.625233 0.684201 -0.049280
C35   C     C_R   0.960922 0.700025 0.277097 -0.150351
C36   C     C_R   0.944789 0.702546 0.204529 -0.089841
C37   C     C_R   0.810257 0.654232 0.176144 0.041656
C38   C     C_R   0.690407 0.594787 0.220301 -0.051412
C39   C     C_R   0.706050 0.590599 0.293485 0.207909
C40   C     C_R   0.266004 0.631163 0.394805 0.566207
C41   C     C_R   0.842662 0.647792 0.321964 0.031932
C42   C     C_R   0.809261 0.108238 0.895418 0.638270
C43   C     C_R   0.390870 0.699774 0.897875 0.659008
C44   C     C_R   0.799327 0.689729 0.898304 0.616222
C45   C     C_R   0.846240 0.172171 0.822273 0.045243
C46   C     C_R   0.810881 0.109896 0.101810 0.599495
C47   C     C_R   0.393633 0.704318 0.103047 0.554307
C48   C     C_R   0.797187 0.693462 0.104371 0.569901
C49   C     C_R   0.864094 0.234813 0.394140 0.555269
C50   C     C_R   0.150339 0.578835 0.738515 -0.140479
C51   C     C_R   0.193987 0.608073 0.809474 0.235244
C52   C     C_R   0.339262 0.684338 0.825312 0.085096
C53   C     C_R   0.098752 0.230975 0.821376 0.268820
C54   C     C_R   0.212674 0.240235 0.783636 -0.098758
C55   C     C_R   0.196025 0.194196 0.713714 -0.114715
C56   C     C_R   0.068543 0.150205 0.677975 0.256419
Cl1   Cl    Cl    0.112616 0.869063 0.834047 -0.574072
Cl2   Cl    Cl    0.065528 0.546621 0.877129 -0.558173
Cl3   Cl    Cl    0.704246 0.315411 0.150318 -0.580620
Cl4   Cl    Cl    0.054652 0.079263 0.184543 -0.558912
Cl5   Cl    Cl    0.554520 0.521329 0.347575 -0.572711
Cl6   Cl    Cl    0.622533 0.813042 0.787387 -0.649627
Cl7   Cl    Cl    0.136553 0.294095 0.909608 -0.513046
Cl8   Cl    Cl    0.045204 0.062025 0.596301 -0.577777
Cr1   Cr    Cr6+3 0.791660 0.390250 0.499930 1.067456
Cr2   Cr    Cr6+3 0.098520 0.708290 0.500540 1.065574
Cr3   Cr    Cr6+3 0.109770 0.401430 0.499480 1.104874
Cr4   Cr    Cr6+3 0.874790 0.925890 0.000070 1.192513
Cr5   Cr    Cr6+3 0.574120 0.948670 0.999300 1.120838
Cr6   Cr    Cr6+3 0.551420 0.625320 0.000920 1.123399
H1    H     H_    0.038571 0.518725 0.725770 0.117291
H2    H     H_    0.314503 0.280972 0.809497 0.138328
H3    H     H_    0.637897 0.239183 0.859277 0.153801
H4    H     H_    0.370067 0.022004 0.682886 0.140184
H5    H     H_    0.568252 0.020388 0.622527 0.138514
H6    H     H_    0.408548 0.138231 0.800097 0.151851
H7    H     H_    0.629591 0.467039 0.683686 0.143375
H8    H     H_    0.608543 0.479852 0.813040 0.135775
H9    H     H_    0.224239 0.459732 0.170051 0.178891
H10   H     H_    0.394065 0.882814 0.323534 0.146378
H11   H     H_    0.472637 0.735047 0.657739 0.171201
H12   H     H_    0.055871 0.820163 0.694751 0.185239
H13   H     H_    0.282780 0.192221 0.687173 0.136314
H14   H     H_    0.189044 0.430671 0.297043 0.164981
H15   H     H_    0.434602 0.913220 0.194783 0.173473
H16   H     H_    0.732410 0.305929 0.296723 0.192874
H17   H     H_    0.002496 0.125655 0.323768 0.184880
H18   H     H_    0.066578 0.738769 0.298214 0.153239
H19   H     H_    0.037723 0.748275 0.170921 0.170304
H20   H     H_    0.585636 0.558923 0.198521 0.180528
O1    O     O_R   0.766500 0.250040 0.579790 -0.529108
O2    O     O_R   0.413330 0.603360 0.920440 -0.456419
O3    O     O_R   0.676110 0.626250 0.926750 -0.503878
O4    O     O_R   0.798570 0.516780 0.574780 -0.503181
O5    O     O_R   0.895350 0.809870 0.080950 -0.469981
O6    O     O_R   0.872490 0.049760 0.073800 -0.445734
O7    O     O_R   0.691680 0.088070 0.079070 -0.466845
O8    O     O_R   0.451720 0.825250 0.074050 -0.505596
O9    O     O_R   0.413580 0.606370 0.080960 -0.497367
O10   O     O_R   0.676340 0.629040 0.075550 -0.498024
O11   O     O_3   0.666780 0.833290 0.000090 -0.301544
O12   O     O_R   0.218690 0.701900 0.425960 -0.514799
O13   O     O_R   0.984000 0.732950 0.581090 -0.483855
O14   O     O_R   0.218600 0.700890 0.574760 -0.498894
O15   O     O_R   0.249390 0.515350 0.579940 -0.485457
O16   O     O_R   0.982790 0.280900 0.573700 -0.464297
O17   O     O_R   0.766600 0.251130 0.419260 -0.506762
O18   O     O_R   0.798660 0.517790 0.425980 -0.460622
O19   O     O_R   0.984100 0.734040 0.420570 -0.504033
O20   O     O_R   0.249490 0.516440 0.419420 -0.468134
O21   O     O_R   0.982880 0.281910 0.424890 -0.490224
O22   O     O_3   0.999980 0.499990 0.499980 -0.308279
O23   O     O_R   0.895110 0.806860 0.920430 -0.428006
O24   O     O_R   0.872260 0.046970 0.925000 -0.431149
O25   O     O_R   0.691430 0.085060 0.918550 -0.516202
O26   O     O_R   0.451490 0.822460 0.925250 -0.465240

loop_
_geom_bond_atom_site_label_1
_geom_bond_atom_site_label_2
_ccdc_geom_bond_type
C36   H19   S    
C55   C56   A    
Cr5   O26   S    
C6    C45   A    
C27   C29   A    
C25   H10   S    
C3    C53   A    
Cr2   O12   S    
C35   C36   A    
Cr6   O11   S    
C7    C8    A    
C39   C41   A    
C53   C54   A    
C27   C33   A    
C12   C23   A    
Cr4   O6    S    
C47   O8    A    
C36   C37   A    
C48   O5    A    
C15   C44   S    
C5    C11   A    
C30   C31   A    
C10   H3    S    
C43   C52   S    
C33   C49   S    
C28   C41   S    
C47   O9    A    
C15   C17   A    
C18   C19   A    
C11   C16   S    
C44   O3    A    
C42   O24   A    
C29   Cl3   S    
C1    O4    A    
C56   Cl8   S    
C9    H6    S    
C13   C14   A    
C29   C30   A    
C24   H15   S    
C1    O13   A    
Cr1   O18   S    
C16   O16   A    
Cr4   O23   S    
C49   O21   A    
Cr5   O8    S    
C22   C47   S    
C21   C22   A    
C48   O10   A    
C2    C11   A    
C12   C52   A    
Cr6   O10   S    
C17   C18   A    
C4    C34   S    
C38   C39   A    
C39   Cl5   S    
C13   H7    S    
C1    C19   S    
Cr4   O5    S    
C34   C50   A    
C13   C19   A    
C51   C52   A    
Cr2   O14   S    
Cr6   O3    S    
C24   C25   A    
C49   O17   A    
C5    C7    A    
C8    C9    A    
C7    H5    S    
C25   C26   A    
C32   H17   S    
C3    C45   A    
C42   C45   S    
C31   Cl4   S    
C27   H16   S    
C50   H1    S    
Cr1   O22   S    
C37   C38   A    
C43   O26   A    
C12   Cl6   S    
C35   H18   S    
C42   O25   A    
Cr3   O20   S    
C31   C32   A    
C23   C34   A    
C21   H9    S    
C8    H4    S    
C50   C51   A    
C46   O6    A    
C51   Cl2   S    
Cr4   O11   S    
C37   C48   S    
Cr3   O21   S    
Cr1   O4    S    
C46   O7    A    
C44   O23   A    
C20   H14   S    
C22   C24   A    
C55   H13   S    
Cr6   O9    S    
C9    C10   A    
Cr1   O1    S    
C54   C55   A    
Cr5   O25   S    
C23   H11   S    
Cr2   O13   S    
C30   C46   S    
Cr6   O2    S    
C6    C10   A    
C40   O20   A    
Cr3   O16   S    
Cr5   O11   S    
C28   O19   A    
C4    O15   A    
C38   H20   S    
C43   O2    A    
C32   C33   A    
C2    C3    A    
C2    C56   A    
C53   Cl7   S    
C26   C40   S    
C5    C6    A    
C20   C26   A    
C28   O18   A    
C4    O14   A    
C18   H12   S    
C14   H8    S    
Cr2   O19   S    
C35   C41   A    
C40   O12   A    
Cr3   O22   S    
C54   H2    S    
C20   C21   A    
C16   O1    A    
C17   Cl1   S    
C14   C15   A    
Cr2   O22   S    
Cr3   O15   S    
Cr1   O17   S    
Cr4   O24   S    
Cr5   O7    S    
