data_mof_unit_18906.cif
_audit_creation_date              2012-12-10T17:05:11-0500
_audit_creation_method            fapswitch 2.2
_symmetry_space_group_name_H-M    P1
_symmetry_Int_Tables_number       1
_space_group_crystal_system       triclinic
_cell_length_a                    10.725502
_cell_length_b                    10.98225
_cell_length_c                    9.901985
_cell_angle_alpha                 110.413633
_cell_angle_beta                  98.50285
_cell_angle_gamma                 92.600241
_cell_volume                      1075.16428776

loop_
_atom_site_label
_atom_site_type_symbol
_atom_type_description
_atom_site_fract_x
_atom_site_fract_y
_atom_site_fract_z
_atom_type_partial_charge
C1    C     C_R   0.495857 0.254619 0.441741 0.860605
C2    C     C_3   0.878157 0.500962 0.500436 0.137144
C3    C     C_3   0.951189 0.524569 0.656936 -0.371468
C4    C     C_3   0.925240 0.611678 0.451347 -0.387605
C5    C     C_2   0.497365 0.115291 0.412353 -0.364725
C6    C     C_2   0.562379 0.068690 0.507763 0.203957
C7    C     C_2   0.534172 0.885388 0.589389 -0.365417
C8    C     C_2   0.538205 0.929394 0.479832 -0.178274
C9    C     C_2   0.512235 0.512041 0.080661 0.271305
C10   C     C_2   0.488144 0.489652 0.919495 -0.087764
C11   C     C_R   0.260204 0.499922 0.500667 0.765875
C12   C     C_R   0.513116 0.745863 0.558542 0.840688
C13   C     C_R   0.739954 0.500048 0.499776 0.745908
C14   C     C_3   0.051937 0.369603 0.394734 -0.447999
C15   C     C_3   0.908057 0.368317 0.394814 -0.390073
C16   C     C_3   0.093627 0.521131 0.657034 -0.369253
C17   C     C_3   0.070032 0.613664 0.451749 0.033144
C18   C     C_3   0.122459 0.502622 0.502251 0.157736
Cu1   Cu    Cu3+1 0.522160 0.521810 0.644910 0.918485
Cu2   Cu    Cu3+1 0.477840 0.478190 0.355090 0.921539
H1    H     H_    0.088053 0.288271 0.426634 0.161476
H2    H     H_    0.900408 0.706792 0.524466 0.161460
H3    H     H_    0.145680 0.612399 0.740699 0.177916
H4    H     H_    0.933993 0.621158 0.734481 0.168543
H5    H     H_    0.516145 0.863024 0.366568 0.164569
H6    H     H_    0.550539 0.952057 0.702579 0.164214
H7    H     H_    0.437887 0.048650 0.312771 0.117914
H8    H     H_    0.411730 0.417492 0.848276 0.134542
H9    H     H_    0.630006 0.621911 0.925822 0.206767
H10   H     H_    0.069516 0.351827 0.281730 0.171349
H11   H     H_    0.373630 0.376706 0.066310 0.158068
H12   H     H_    0.857072 0.348690 0.281737 0.178022
H13   H     H_    0.874985 0.287793 0.429076 0.157179
H14   H     H_    0.125915 0.438923 0.689893 0.159233
H15   H     H_    0.917111 0.448301 0.697087 0.169420
H16   H     H_    0.085078 0.592753 0.337157 0.156529
H17   H     H_    0.875615 0.596232 0.338936 0.145682
N1    N     N_2   0.444530 0.445420 0.137360 -0.286667
N2    N     N_2   0.555520 0.554510 0.862630 -0.291441
O1    O     O_R   0.511820 0.332340 0.577400 -0.563043
O2    O     O_R   0.474400 0.295500 0.332650 -0.574436
O3    O     O_R   0.336400 0.518400 0.622370 -0.580540
O4    O     O_R   0.298980 0.481560 0.377620 -0.584786
O5    O     O_R   0.525600 0.704500 0.667350 -0.570252
O6    O     O_R   0.488180 0.667660 0.422600 -0.577797
O7    O     O_R   0.701020 0.518440 0.622380 -0.587216
O8    O     O_R   0.663600 0.481600 0.377630 -0.587230
C19   C     C_3   0.659485 0.152816 0.639062 -0.780347
H18   H     H_    0.722969 0.091678 0.680430 0.208332
H19   H     H_    0.720858 0.219456 0.608148 0.213702
H20   H     H_    0.611357 0.210075 0.729180 0.238928
C20   C     C_3   0.619676 0.616629 0.171054 -0.748511
H21   H     H_    0.599465 0.710456 0.157760 0.173470
H22   H     H_    0.639802 0.640163 0.288082 0.270142
H23   H     H_    0.709428 0.587074 0.131958 0.173739
C21   C     C_3   0.138316 0.750849 0.542791 -0.900124
H24   H     H_    0.122813 0.782911 0.657833 0.240041
H25   H     H_    0.241557 0.752939 0.541478 0.234235
H26   H     H_    0.101230 0.822501 0.494981 0.233111

loop_
_geom_bond_atom_site_label_1
_geom_bond_atom_site_label_2
_ccdc_geom_bond_type
C2    C4    S    
C21   H26   S    
C11   C18   S    
C11   O4    A    
C8    H5    S    
C17   H16   S    
C10   N2    D    
C4    H2    S    
C9    C10   S    
C14   C18   S    
Cu1   Cu2   S    
Cu1   O3    S    
C3    H15   S    
Cu1   O5    S    
H9    N2    S    
H11   N1    S    
C19   H19   S    
Cu2   O2    S    
Cu1   O7    S    
C15   H12   S    
C12   O5    A    
C16   C18   S    
C21   H24   S    
C2    C15   S    
C9    C20   S    
C17   C21   S    
C3    H4    S    
C5    C6    D    
C7    H6    S    
C6    C19   S    
C14   H10   S    
C1    C5    S    
C4    C17   S    
Cu1   N2    S    
C14   H1    S    
C1    O2    A    
C19   H18   S    
C4    H17   S    
C20   H23   S    
C20   H22   S    
C2    C3    S    
C16   H3    S    
C13   O7    A    
C7    C12   S    
Cu2   O8    S    
Cu1   O1    S    
C7    C8    D    
Cu2   O4    S    
Cu2   N1    S    
C20   H21   S    
C11   O3    A    
C17   C18   S    
C10   H8    S    
C13   O8    A    
C2    C13   S    
C14   C15   S    
C9    N1    D    
C6    C8    S    
C1    O1    A    
C16   H14   S    
C5    H7    S    
C15   H13   S    
C19   H20   S    
C3    C16   S    
Cu2   O6    S    
C21   H25   S    
C12   O6    A    
