data_mof_unit_18360.cif
_audit_creation_date              2013-03-05T15:42:15-0500
_audit_creation_method            fapswitch 2.2
_symmetry_space_group_name_H-M    P1
_symmetry_Int_Tables_number       1
_space_group_crystal_system       triclinic
_cell_length_a                    11.505214
_cell_length_b                    11.666731
_cell_length_c                    19.543916
_cell_angle_alpha                 90.485654
_cell_angle_beta                  89.714329
_cell_angle_gamma                 59.71811
_cell_volume                      2265.19133333

loop_
_atom_site_label
_atom_site_type_symbol
_atom_site_description
_atom_site_fract_x
_atom_site_fract_y
_atom_site_fract_z
_atom_type_partial_charge
O1    O     O_R   0.267740 0.231960 0.575440 -0.484572
O2    O     O_R   0.527280 0.186640 0.570530 -0.485597
C1    C     C_R   0.640493 0.116930 0.599289 0.557753
O3    O     O_R   0.728090 0.003450 0.576380 -0.492995
O4    O     O_R   0.682970 0.789190 0.570490 -0.483205
C2    C     C_R   0.612651 0.746035 0.598612 0.557329
O5    O     O_R   0.499290 0.771880 0.575530 -0.494904
O6    O     O_R   0.285330 0.030870 0.569730 -0.485989
C3    C     C_R   0.241180 0.145248 0.598085 0.562636
O7    O     O_R   0.270980 0.227080 0.423890 -0.472642
O8    O     O_R   0.530280 0.182120 0.430050 -0.518748
C4    C     C_R   0.623333 0.082073 0.394241 0.497681
O9    O     O_R   0.731330 0.998570 0.424830 -0.488802
O10   O     O_R   0.685970 0.784660 0.430010 -0.484580
C5    C     C_R   0.616457 0.739572 0.401552 0.544810
O11   O     O_R   0.502530 0.767000 0.423990 -0.506219
O12   O     O_R   0.288330 0.026350 0.429250 -0.504039
C6    C     C_R   0.294833 0.120056 0.393843 0.506499
Cr1   Cr    Cr6+3 0.404720 0.198220 0.499960 1.076358
Cr2   Cr    Cr6+3 0.698290 0.897110 0.500380 1.091507
Cr3   Cr    Cr6+3 0.396970 0.904720 0.499610 1.065432
O13   O     O_3   0.499990 0.000020 0.499980 -0.315115
C7    C     C_1   0.670659 0.646123 0.860105 0.003043
C8    C     C_1   0.654962 0.683700 0.728371 -0.027336
C9    C     C_1   0.663747 0.666416 0.799660 -0.029849
C10   C     C_1   0.641369 0.704062 0.667947 0.009979
C11   C     C_1   0.126822 0.199280 0.859333 0.005275
C12   C     C_1   0.171261 0.170702 0.727691 -0.027987
C13   C     C_1   0.150222 0.182741 0.798933 -0.029076
C14   C     C_1   0.195007 0.161202 0.667307 0.007549
C15   C     C_1   0.678336 0.191590 0.860826 0.004143
C16   C     C_1   0.658403 0.166981 0.729063 -0.027703
C17   C     C_1   0.665464 0.180998 0.800396 -0.028802
C18   C     C_1   0.652909 0.149244 0.668667 0.006409
C19   C     C_R   0.697867 0.552481 0.206258 -0.060129
C20   C     C_R   0.566726 0.614166 0.235414 0.025082
C21   C     C_R   0.541598 0.699290 0.290261 0.009735
C22   C     C_R   0.783255 0.575422 0.315259 0.163686
C23   C     C_R   0.806761 0.522444 0.248544 -0.160745
C24   C     C_R   0.456557 0.608637 0.205980 -0.051664
C25   C     C_R   0.326108 0.710144 0.216241 -0.053524
C26   C     C_R   0.300956 0.806517 0.264150 -0.048330
C27   C     C_R   0.407278 0.804142 0.299379 -0.059503
C28   C     C_R   0.650552 0.674770 0.334124 -0.021696
H1    H     H_    0.470423 0.530938 0.170707 0.134376
H2    H     H_    0.908871 0.461749 0.229428 0.155291
H3    H     H_    0.243767 0.711581 0.188993 0.123446
H4    H     H_    0.197689 0.877944 0.275439 0.130026
H5    H     H_    0.384120 0.885138 0.332813 0.132713
H6    H     H_    0.121373 0.063140 0.335318 0.153193
C29   C     C_R   0.160858 0.189922 0.187214 0.011083
C30   C     C_R   0.240023 0.243247 0.210697 0.011600
C31   C     C_R   0.272655 0.233463 0.280725 -0.004410
C32   C     C_R   0.159828 0.107909 0.300304 -0.127303
C33   C     C_R   0.119405 0.125356 0.232869 -0.156751
C34   C     C_R   0.272311 0.321415 0.168342 -0.132447
C35   C     C_R   0.285528 0.423259 0.197430 -0.122919
C36   C     C_R   0.296731 0.428129 0.268048 0.215935
C37   C     C_R   0.312112 0.322544 0.306596 -0.059237
C38   C     C_R   0.246292 0.149858 0.323393 0.023818
H7    H     H_    0.271144 0.315784 0.113125 0.145917
H8    H     H_    0.049153 0.094080 0.217475 0.146753
H9    H     H_    0.282853 0.498985 0.165068 0.095893
H10   H     H_    0.339425 0.327071 0.358063 0.199903
C39   C     C_R   0.660492 0.180212 0.188937 0.000536
C40   C     C_R   0.695903 0.048329 0.203191 0.033064
C41   C     C_R   0.702815 0.009846 0.272168 -0.002722
C42   C     C_R   0.614130 0.238882 0.308674 -0.128907
C43   C     C_R   0.625514 0.271753 0.242422 -0.152430
C44   C     C_R   0.739645 0.950949 0.150640 -0.090509
C45   C     C_R   0.815678 0.817319 0.166296 -0.113259
C46   C     C_R   0.840406 0.779548 0.234155 -0.091997
C47   C     C_R   0.776919 0.873242 0.286600 -0.098157
C48   C     C_R   0.646949 0.109672 0.324167 -0.011410
H11   H     H_    0.724551 0.977724 0.097172 0.128129
H12   H     H_    0.617601 0.365669 0.234118 0.128982
H13   H     H_    0.861001 0.743854 0.125729 0.145646
H14   H     H_    0.910524 0.677406 0.246032 0.175151
H15   H     H_    0.797082 0.837844 0.337984 0.204243
O14   O     O_R   0.821500 0.119340 0.952830 -0.506213
O15   O     O_R   0.037130 0.162530 0.957360 -0.489680
C49   C     C_R   0.081432 0.231579 0.928654 0.544389
O16   O     O_R   0.056440 0.344740 0.951340 -0.507969
O17   O     O_R   0.797900 0.560360 0.957470 -0.489707
C50   C     C_R   0.683837 0.604315 0.929477 0.557748
O18   O     O_R   0.596130 0.579390 0.952730 -0.500367
O19   O     O_R   0.639060 0.321160 0.958670 -0.494847
C51   C     C_R   0.708146 0.206999 0.930146 0.543556
O20   O     O_R   0.821240 0.124200 0.104370 -0.513539
O21   O     O_R   0.036890 0.167040 0.097840 -0.502176
C52   C     C_R   0.086976 0.234219 0.123401 0.523590
O22   O     O_R   0.056180 0.349610 0.102880 -0.537280
O23   O     O_R   0.797660 0.564870 0.097950 -0.504166
C53   C     C_R   0.712509 0.539087 0.131448 0.573329
O24   O     O_R   0.595880 0.584250 0.104270 -0.526012
O25   O     O_R   0.638830 0.325670 0.099150 -0.540601
C54   C     C_R   0.704992 0.210236 0.125252 0.521125
Cr4   Cr    Cr6+3 0.926180 0.151990 0.028120 1.021083
Cr5   Cr    Cr6+3 0.921330 0.451820 0.027470 1.009052
Cr6   Cr    Cr6+3 0.626260 0.446870 0.028710 1.004395
O26   O     O_3   0.824590 0.350230 0.028100 -0.276037
N1    N     N_R   0.893729 0.527216 0.361791 0.080794
O27   O     O_R   0.930981 0.606524 0.387638 -0.301148
O28   O     O_R   0.971668 0.399937 0.368818 -0.314867
N2    N     N_R   0.274600 0.545813 0.302683 0.065992
O29   O     O_R   0.155014 0.650507 0.300693 -0.334100
O30   O     O_R   0.356214 0.538137 0.350625 -0.351682
H16   H     H_    0.584846 0.313670 0.348556 0.190942

loop_
_geom_bond_atom_site_label_1
_geom_bond_atom_site_label_2
_geom_bond_distance
_ccdc_geom_bond_type
O6    C3    1.283294 A    
O19   C51   1.277428 A    
O23   C53   1.331537 A    
C4    C48   1.464615 S    
C11   C13   1.201560 T    
C25   C26   1.369651 A    
C19   C20   1.417223 A    
O15   C49   1.281562 A    
C31   C37   1.418114 A    
O4    Cr2   1.935071 S    
C32   C38   1.387259 A    
C50   O18   1.266079 A    
N2    O30   1.301170 A    
O8    Cr1   1.921266 S    
C37   H10   1.064106 S    
H6    C32   1.083012 S    
C12   C13   1.405701 S    
C8    C10   1.201925 T    
C5    C28   1.463198 S    
O4    C2    1.273247 A    
O15   Cr4   1.923709 S    
C42   C48   1.393392 A    
C5    O11   1.257645 A    
C33   H8    1.083943 S    
C34   C35   1.389143 A    
C43   H12   1.066647 S    
C46   H14   1.077861 S    
C29   C52   1.457210 S    
C42   C43   1.377739 A    
C15   C17   1.204077 T    
C44   C45   1.387358 A    
C41   C47   1.409286 A    
O18   Cr6   2.054051 S    
O23   Cr5   1.928343 S    
C40   C41   1.414419 A    
O16   Cr5   2.043963 S    
Cr3   O13   1.992509 S    
C53   O24   1.288072 A    
C31   C38   1.431238 A    
C35   H9    1.078772 S    
C35   C36   1.390136 A    
C2    C10   1.427497 S    
C47   H15   1.070334 S    
C24   H1    1.079307 S    
O1    Cr1   2.038662 S    
C29   C30   1.413530 A    
O10   Cr2   1.947204 S    
C20   C24   1.425055 A    
Cr1   O13   1.998065 S    
O1    C3    1.276981 A    
C8    C9    1.406298 S    
C52   O22   1.276033 A    
O24   Cr6   2.064354 S    
C27   H5    1.060571 S    
C1    C18   1.431302 S    
C36   C37   1.383302 A    
O5    Cr3   2.050790 S    
O12   Cr3   1.930888 S    
O20   C54   1.263563 A    
C16   C18   1.204129 T    
C21   C27   1.415412 A    
C19   C23   1.395668 A    
C22   C28   1.418752 A    
O7    Cr1   2.049409 S    
O25   C54   1.278682 A    
O12   C6    1.332072 A    
C25   H3    1.081903 S    
C41   C48   1.421534 A    
C26   H4    1.072597 S    
O17   C50   1.271883 A    
N1    O28   1.299920 A    
C3    C14   1.426868 S    
C23   H2    1.083193 S    
C6    C38   1.465767 S    
C24   C25   1.376833 A    
Cr5   O26   1.993544 S    
Cr2   O13   1.970927 S    
C49   O16   1.276007 A    
C26   C27   1.394892 A    
C1    O3    1.268373 A    
C45   H13   1.081093 S    
C30   C31   1.411255 A    
O19   Cr6   1.947454 S    
C19   C53   1.468875 S    
C32   C33   1.381980 A    
C20   C21   1.381365 A    
C15   C51   1.431102 S    
O9    Cr2   2.050285 S    
O14   Cr4   2.057093 S    
O2    Cr1   1.933712 S    
C34   H7    1.081158 S    
O17   Cr5   1.930540 S    
C11   C49   1.426901 S    
C46   C47   1.395456 A    
O6    Cr3   1.932796 S    
O8    C4    1.310259 A    
O11   Cr3   2.052971 S    
C2    O5    1.267682 A    
Cr4   O26   1.997247 S    
N2    O29   1.301126 A    
C40   C44   1.413261 A    
O20   Cr4   2.041721 S    
C36   N2    1.427607 S    
C16   C17   1.409808 S    
C21   C28   1.428741 A    
C12   C14   1.201546 T    
O2    C1    1.273052 A    
C39   C54   1.454609 S    
C45   C46   1.386087 A    
O14   C51   1.269501 A    
O21   C52   1.283601 A    
C22   C23   1.403395 A    
O7    C6    1.272641 A    
C39   C43   1.392349 A    
O25   Cr6   1.935022 S    
Cr6   O26   1.970530 S    
C29   C33   1.400190 A    
C7    C9    1.201923 T    
N1    O27   1.299670 A    
O3    Cr2   2.065378 S    
C4    O9    1.283295 A    
C22   N1    1.434614 S    
C39   C40   1.409681 A    
C7    C50   1.427493 S    
C44   H11   1.082738 S    
O10   C5    1.284294 A    
C42   H16   1.082467 S    
O21   Cr4   1.936167 S    
C30   C34   1.416430 A    
O22   Cr5   2.046442 S    
