data_mof_unit_39708.cif
_audit_creation_date              2012-12-10T19:36:41-0500
_audit_creation_method            fapswitch 2.2
_symmetry_space_group_name_H-M    P1
_symmetry_Int_Tables_number       1
_space_group_crystal_system       triclinic
_cell_length_a                    11.676658
_cell_length_b                    15.894564
_cell_length_c                    17.106438
_cell_angle_alpha                 95.684801
_cell_angle_beta                  92.709617
_cell_angle_gamma                 92.18974
_cell_volume                      3152.78989453

loop_
_atom_site_label
_atom_site_type_symbol
_atom_type_description
_atom_site_fract_x
_atom_site_fract_y
_atom_site_fract_z
_atom_type_partial_charge
C1    C     C_R   0.500665 0.490098 0.348676 0.920679
C2    C     C_R   0.496466 0.510069 0.651397 0.878207
C3    C     C_R   0.445806 0.419988 0.214256 0.363242
C4    C     C_R   0.456944 0.589809 0.780845 0.372583
C5    C     C_R   0.433847 0.755464 0.469311 0.345453
C6    C     C_R   0.563762 0.246186 0.534887 0.357493
C7    C     C_R   0.439155 0.844238 0.473904 -0.357322
C8    C     C_R   0.559538 0.157451 0.533015 -0.371136
C9    C     C_R   0.530826 0.891355 0.515298 0.234606
C10   C     C_R   0.483069 0.107784 0.480363 0.251049
C11   C     C_R   0.615034 0.846600 0.552742 0.059504
C12   C     C_R   0.411235 0.149945 0.430913 0.058657
C13   C     C_R   0.603155 0.757121 0.552370 0.482713
C14   C     C_R   0.405636 0.239497 0.441647 0.496005
C15   C     C_R   0.284019 0.500303 0.500260 0.833111
C16   C     C_R   0.716013 0.499811 0.500279 0.825767
C17   C     C_1   0.162445 0.500916 0.500861 -0.164388
C18   C     C_1   0.837634 0.499552 0.500661 -0.128198
C19   C     C_1   0.059935 0.500616 0.501042 0.008977
C20   C     C_1   0.940172 0.499917 0.500936 0.016119
C21   C     C_R   0.505514 0.486035 0.262565 -0.258429
C22   C     C_R   0.494333 0.515809 0.738118 -0.286572
C23   C     C_R   0.572002 0.547797 0.228555 0.238553
C24   C     C_R   0.534246 0.448891 0.778866 0.256353
C25   C     C_R   0.581754 0.540973 0.146514 0.363397
C26   C     C_R   0.557367 0.461256 0.859948 0.379762
C27   C     C_R   0.510767 0.480936 0.098253 0.165479
C28   C     C_R   0.518077 0.533705 0.903416 0.150805
C29   C     C_R   0.444762 0.421215 0.132388 -0.371660
C30   C     C_R   0.467431 0.596547 0.863876 -0.389611
Cu1   Cu    Cu3+1 0.494550 0.415220 0.496180 1.019446
Cu2   Cu    Cu3+1 0.505450 0.584780 0.503820 1.036964
H1    H     H_    0.392381 0.374910 0.094392 0.183598
H2    H     H_    0.434130 0.649581 0.898886 0.185854
H3    H     H_    0.619336 0.127746 0.570849 0.227066
H4    H     H_    0.373516 0.875729 0.442401 0.233792
N1    N     N_2   0.507031 0.474838 0.015118 -0.164476
N2    N     N_2   0.523097 0.543325 0.986813 -0.160034
N3    N     N_R   0.513630 0.712130 0.509560 -0.243461
N4    N     N_R   0.486370 0.287870 0.490440 -0.250582
N5    N     N_2   0.542380 0.982391 0.519893 -0.157468
N6    N     N_2   0.474855 0.016660 0.474890 -0.153972
O1    O     O_R   0.494910 0.420530 0.382500 -0.534663
O2    O     O_R   0.505090 0.579470 0.617500 -0.559910
O3    O     O_R   0.504100 0.563720 0.388950 -0.545538
O4    O     O_R   0.495900 0.436280 0.611050 -0.542713
O5    O     O_R   0.332600 0.428410 0.496780 -0.600523
O6    O     O_R   0.667400 0.571590 0.503220 -0.530801
O7    O     O_R   0.341800 0.571600 0.503230 -0.522939
O8    O     O_R   0.658200 0.428400 0.496770 -0.545609
O9    O     O_3   0.557162 0.371654 0.739781 -0.550471
C31   C     C_3   0.462583 0.313777 0.743762 0.155714
H5    H     H_    0.412821 0.307832 0.686310 0.149965
H6    H     H_    0.402358 0.332971 0.790636 0.110514
C32   C     C_3   0.506972 0.227298 0.759074 -0.314062
H7    H     H_    0.569380 0.207101 0.714746 0.249430
H8    H     H_    0.551812 0.232121 0.818224 0.240650
C33   C     C_3   0.409293 0.160200 0.755133 -0.921750
H9    H     H_    0.346158 0.178086 0.799786 0.259086
H10   H     H_    0.444305 0.098504 0.767096 0.267833
H11   H     H_    0.365371 0.152880 0.695647 0.260449
O10   O     O_3   0.640443 0.606915 0.276485 -0.597532
C34   C     C_3   0.599152 0.688640 0.270835 0.112902
H12   H     H_    0.508357 0.691167 0.287718 0.176010
H13   H     H_    0.604563 0.707520 0.210232 0.183845
C35   C     C_3   0.672640 0.752261 0.326570 -0.333530
H14   H     H_    0.663791 0.737150 0.388022 0.242398
H15   H     H_    0.764323 0.747306 0.312635 0.235042
C36   C     C_3   0.637343 0.842762 0.319379 -0.856600
H16   H     H_    0.654829 0.861170 0.259984 0.256583
H17   H     H_    0.687241 0.886752 0.364047 0.282859
H18   H     H_    0.544557 0.848616 0.329084 0.273914
O11   O     O_3   0.613005 0.399167 0.896373 -0.582711
C37   C     C_3   0.731220 0.422619 0.908590 0.049068
H19   H     H_    0.764703 0.390261 0.959029 0.160642
H20   H     H_    0.747496 0.491883 0.924939 0.116083
C38   C     C_3   0.797955 0.393676 0.836319 -0.296324
H21   H     H_    0.778485 0.325195 0.818891 0.254123
H22   H     H_    0.771870 0.429626 0.786412 0.242673
C39   C     C_3   0.927000 0.408531 0.853239 -0.933099
H23   H     H_    0.948296 0.476866 0.869951 0.252767
H24   H     H_    0.972847 0.387766 0.799741 0.271705
H25   H     H_    0.956793 0.371740 0.901682 0.257531
O12   O     O_3   0.659286 0.594211 0.114399 -0.595357
C40   C     C_3   0.760426 0.551150 0.097136 0.076699
H26   H     H_    0.797478 0.578856 0.046331 0.162670
H27   H     H_    0.744425 0.482167 0.079112 0.115600
C41   C     C_3   0.848733 0.564237 0.166886 -0.326523
H28   H     H_    0.860726 0.632894 0.186687 0.245102
H29   H     H_    0.817405 0.531090 0.216436 0.237282
C42   C     C_3   0.964087 0.529373 0.144669 -0.910447
H30   H     H_    0.954108 0.460559 0.125320 0.250698
H31   H     H_    0.025776 0.538893 0.196520 0.277480
H32   H     H_    0.999407 0.562818 0.096491 0.258900
O13   O     O_3   0.379992 0.359998 0.248247 -0.561974
C43   C     C_3   0.399396 0.276386 0.215725 0.140988
H33   H     H_    0.425672 0.239134 0.264563 0.206163
H34   H     H_    0.470745 0.271424 0.174515 0.107148
C44   C     C_3   0.287902 0.235990 0.175561 -0.336150
H35   H     H_    0.224550 0.227014 0.220801 0.245877
H36   H     H_    0.250996 0.278528 0.134129 0.210122
C45   C     C_3   0.307902 0.150723 0.130092 -0.866107
H37   H     H_    0.365820 0.159333 0.081552 0.246633
H38   H     H_    0.224761 0.121774 0.104402 0.259961
H39   H     H_    0.346776 0.107123 0.169626 0.294356
O14   O     O_3   0.396872 0.647140 0.739564 -0.584124
C46   C     C_3   0.412721 0.732476 0.772268 0.065780
H40   H     H_    0.428282 0.771457 0.723054 0.152966
H41   H     H_    0.489440 0.744900 0.813717 0.121491
C47   C     C_3   0.303016 0.762265 0.809987 -0.331063
H42   H     H_    0.231344 0.756972 0.764382 0.236435
H43   H     H_    0.279482 0.721588 0.856367 0.215969
C48   C     C_3   0.317774 0.853964 0.846113 -0.896031
H44   H     H_    0.387361 0.860370 0.893166 0.256775
H45   H     H_    0.236666 0.873974 0.872251 0.263066
H46   H     H_    0.338932 0.896191 0.800337 0.259921
Br1   Br    Br    0.686942 0.302286 0.600389 -0.489793
Br2   Br    Br    0.316203 0.700090 0.398452 -0.497677
Br3   Br    Br    0.752862 0.907786 0.595879 -0.493113
Br4   Br    Br    0.330975 0.084242 0.343168 -0.562098
O15   O     O_3   0.691998 0.713956 0.583970 -0.553736
C49   C     C_3   0.689599 0.719765 0.666851 0.086139
H47   H     H_    0.601890 0.707846 0.686329 0.144382
H48   H     H_    0.721298 0.783305 0.693489 0.175031
C50   C     C_3   0.767871 0.653792 0.697294 -0.293505
H49   H     H_    0.734712 0.589322 0.673849 0.211601
H50   H     H_    0.855476 0.663482 0.676083 0.237590
C51   C     C_3   0.775332 0.659764 0.786995 -0.954882
H51   H     H_    0.813657 0.722357 0.811698 0.268949
H52   H     H_    0.830132 0.609502 0.806694 0.258524
H53   H     H_    0.688905 0.651075 0.809904 0.253969
O16   O     O_3   0.323090 0.277516 0.397998 -0.552632
C52   C     C_3   0.218718 0.281231 0.437793 0.112068
H54   H     H_    0.177477 0.339633 0.422704 0.184914
H55   H     H_    0.231765 0.286194 0.503246 0.114483
C53   C     C_3   0.133271 0.207510 0.410400 -0.387358
H56   H     H_    0.129921 0.195832 0.345213 0.259350
H57   H     H_    0.160312 0.149861 0.436605 0.254094
C54   C     C_3   0.012856 0.226175 0.436846 -0.854977
H58   H     H_    0.013745 0.238576 0.501948 0.266831
H59   H     H_    0.953596 0.170830 0.417964 0.276263
H60   H     H_    0.980309 0.282075 0.410020 0.254340

loop_
_geom_bond_atom_site_label_1
_geom_bond_atom_site_label_2
_ccdc_geom_bond_type
C35   H15   S    
C32   H7    S    
C34   H13   S    
N5    N6    D    
C1    C21   S    
C27   C29   A    
C46   H41   S    
Cu2   O3    S    
C19   C20   S    
C15   O5    A    
C11   Br3   S    
C51   H51   S    
C16   O6    A    
C14   O16   S    
C38   H21   S    
C2    O4    A    
O10   C34   S    
Cu1   O1    S    
C24   C26   A    
C39   H25   S    
C54   H60   S    
C38   C39   S    
C35   C36   S    
C10   N6    S    
O14   C46   S    
C33   H10   S    
C43   C44   S    
C29   H1    S    
C11   C13   A    
C26   O11   S    
C4    C22   A    
Cu1   N4    S    
C45   H39   S    
C36   H17   S    
C7    H4    S    
Cu2   N3    S    
C3    C29   A    
C47   H42   S    
C12   Br4   S    
C1    O1    A    
C23   O10   S    
O13   C43   S    
C2    O2    A    
O16   C52   S    
C37   C38   S    
C43   H34   S    
C2    C22   S    
C25   O12   S    
C46   H40   S    
C6    Br1   S    
C18   C20   T    
C31   C32   S    
C48   H46   S    
C33   H11   S    
C40   H27   S    
C35   H14   S    
C34   C35   S    
Cu1   O5    S    
Cu2   O6    S    
C45   H37   S    
C53   C54   S    
C31   H6    S    
C38   H22   S    
O11   C37   S    
C37   H19   S    
C30   H2    S    
O9    C31   S    
O12   C40   S    
C53   H57   S    
C42   H30   S    
C5    C7    A    
C39   H23   S    
C6    C8    A    
C33   H9    S    
C40   H26   S    
C4    O14   S    
Cu1   O4    S    
C8    H3    S    
C36   H18   S    
N1    N2    D    
C42   H31   S    
C13   O15   S    
Cu1   Cu2   S    
C41   C42   S    
C28   N2    S    
C43   H33   S    
C44   C45   S    
Cu2   O2    S    
C16   C18   S    
C45   H38   S    
C9    C11   A    
C47   C48   S    
O15   C49   S    
C10   C12   A    
C52   C53   S    
C39   H24   S    
C44   H36   S    
C41   H29   S    
C21   C23   A    
C50   H49   S    
C46   C47   S    
C6    N4    A    
C3    C21   A    
C37   H20   S    
Cu1   O8    S    
C49   H48   S    
C51   H53   S    
C31   H5    S    
C50   H50   S    
C48   H44   S    
C40   C41   S    
C7    C9    A    
C5    N3    A    
C26   C28   A    
C12   C14   A    
C53   H56   S    
C51   H52   S    
C54   H58   S    
C15   C17   S    
C25   C27   A    
C9    N5    S    
C44   H35   S    
C5    Br2   S    
C49   C50   S    
C32   H8    S    
C42   H32   S    
C54   H59   S    
C1    O3    A    
C52   H54   S    
C24   O9    S    
C50   C51   S    
C28   C30   A    
C17   C19   T    
C22   C24   A    
C15   O7    A    
C36   H16   S    
C16   O8    A    
C47   H43   S    
Cu2   O7    S    
C13   N3    A    
C14   N4    A    
C34   H12   S    
C23   C25   A    
C41   H28   S    
C8    C10   A    
C32   C33   S    
C52   H55   S    
C3    O13   S    
C49   H47   S    
C4    C30   A    
C27   N1    S    
C48   H45   S    
