data_mof_unit_15206.cif
_audit_creation_date              2012-12-10T17:07:44-0500
_audit_creation_method            fapswitch 2.2
_symmetry_space_group_name_H-M    P1
_symmetry_Int_Tables_number       1
_space_group_crystal_system       triclinic
_cell_length_a                    10.639879
_cell_length_b                    10.639247
_cell_length_c                    10.034358
_cell_angle_alpha                 91.862655
_cell_angle_beta                  89.885364
_cell_angle_gamma                 89.826394
_cell_volume                      1135.28443789

loop_
_atom_site_label
_atom_site_type_symbol
_atom_type_description
_atom_site_fract_x
_atom_site_fract_y
_atom_site_fract_z
_atom_type_partial_charge
C1    C     C_R   0.497735 0.262413 0.497403 0.889320
C2    C     C_2   0.568387 0.574632 0.075020 0.033904
C3    C     C_R   0.258296 0.511341 0.500427 0.906244
C4    C     C_R   0.509532 0.737091 0.502374 0.977388
C5    C     C_R   0.742184 0.501163 0.499616 0.840804
C6    C     C_3   0.074752 0.389413 0.551947 -0.455780
C7    C     C_3   0.931686 0.388939 0.563478 -0.421893
C8    C     C_3   0.066290 0.631173 0.587265 0.281844
C9    C     C_3   0.070839 0.530436 0.353180 0.245804
C10   C     C_3   0.121386 0.517699 0.500204 -0.102625
C11   C     C_3   0.795957 0.050028 0.321432 -0.757115
C12   C     C_3   0.878401 0.507171 0.498669 0.058111
C13   C     C_3   0.332207 0.080494 0.658514 -0.721947
C14   C     C_3   0.573525 0.294505 0.089803 -0.663923
C15   C     C_3   0.921242 0.625989 0.579832 -0.446057
C16   C     C_3   0.928276 0.512256 0.353152 -0.422188
C17   C     C_2   0.567974 0.929457 0.401654 -0.166470
C18   C     C_2   0.541731 0.866667 0.510435 -0.379466
C19   C     C_2   0.580808 0.064956 0.416556 0.167209
C20   C     C_2   0.490174 0.129131 0.486622 -0.012283
C21   C     C_2   0.583017 0.559056 0.926440 -0.112649
H1    H     H_    0.116760 0.366771 0.649353 0.245964
H2    H     H_    0.104536 0.312141 0.481052 0.167422
H3    H     H_    0.894249 0.302074 0.513544 0.167659
H4    H     H_    0.903937 0.387334 0.670430 0.199826
H5    H     H_    0.879162 0.625285 0.681344 0.206033
H6    H     H_    0.111057 0.452968 0.288796 0.117545
H7    H     H_    0.905157 0.422582 0.298169 0.149222
H8    H     H_    0.714524 0.210601 0.408389 0.209600
H9    H     H_    0.871233 0.111181 0.282722 0.228989
H10   H     H_    0.769065 0.982222 0.240093 0.256434
H11   H     H_    0.833455 0.998937 0.407714 0.262172
H12   H     H_    0.880097 0.588117 0.299005 0.241892
H13   H     H_    0.337028 0.000920 0.461967 0.266005
H14   H     H_    0.316400 0.983857 0.693632 0.263829
H15   H     H_    0.242780 0.134101 0.667286 0.244297
H16   H     H_    0.403724 0.126252 0.724238 0.250700
H17   H     H_    0.390520 0.349570 0.135421 0.249144
H18   H     H_    0.601349 0.273938 0.984707 0.219713
H19   H     H_    0.543396 0.205107 0.134273 0.234644
H20   H     H_    0.656768 0.330642 0.145775 0.244641
H21   H     H_    0.021694 0.501067 0.860971 0.352872
H22   H     H_    0.026409 0.860885 0.256841 0.390299
H23   H     H_    0.096717 0.720069 0.542454 0.158998
H24   H     H_    0.884834 0.711853 0.532298 0.186123
H25   H     H_    0.575744 0.883849 0.303507 0.182827
H26   H     H_    0.543170 0.913119 0.608686 0.183884
H27   H     H_    0.663023 0.602672 0.879534 0.149845
H28   H     H_    0.416249 0.480420 0.894599 0.247765
H29   H     H_    0.619026 0.651179 0.124409 0.111884
N1    N     N_2   0.501360 0.501330 0.852150 -0.170882
N2    N     N_2   0.501390 0.501360 0.147810 -0.024172
N3    N     N_2   0.689026 0.126547 0.362487 -0.312812
N4    N     N_2   0.371768 0.074462 0.520255 -0.336858
N5    N     N_2   0.470818 0.384796 0.092975 -0.250207
O1    O     O_R   0.499980 0.319060 0.613040 -0.617797
O2    O     O_2   0.034426 0.743802 0.831114 -0.289858
O3    O     O_3   0.111709 0.513140 0.839715 -0.530277
O4    O     O_2   0.237171 0.724922 0.314692 -0.307002
O5    O     O_2   0.110412 0.652060 0.124684 -0.212833
O6    O     O_3   0.002631 0.788412 0.310941 -0.621909
O7    O     O_R   0.500020 0.319100 0.386900 -0.625515
O8    O     O_R   0.314770 0.499960 0.613070 -0.547640
O9    O     O_R   0.314820 0.500000 0.386930 -0.595541
O10   O     O_R   0.499980 0.680900 0.613100 -0.594559
O11   O     O_R   0.500020 0.680940 0.386960 -0.588387
O12   O     O_R   0.685180 0.500000 0.613070 -0.636457
O13   O     O_R   0.685230 0.500040 0.386930 -0.645171
O14   O     O_2   0.249493 0.698869 0.764069 -0.250061
S1    S     S_3+6 0.117520 0.649099 0.759209 0.040364
S2    S     S_3+6 0.110238 0.676565 0.273007 0.000046
Zn1   Zn    Zn3+2 0.499970 0.499970 0.650990 1.002275
Zn2   Zn    Zn3+2 0.500030 0.500030 0.349010 0.986790

loop_
_geom_bond_atom_site_label_1
_geom_bond_atom_site_label_2
_ccdc_geom_bond_type
C16   H7    S    
O1    Zn1   S    
C8    H23   S    
O9    Zn2   S    
C12   C15   S    
O7    Zn2   S    
C6    C10   S    
C6    C7    S    
C3    O8    A    
O2    S1    D    
O10   Zn1   S    
C15   H5    S    
C9    C10   S    
C13   H16   S    
C19   C20   D    
C11   N3    S    
N2    N5    S    
C5    O12   A    
C21   H27   S    
C4    C18   S    
C18   H26   S    
C19   N3    S    
C2    C21   S    
C14   N5    S    
O13   Zn2   S    
C11   H10   S    
C3    C10   S    
C3    O9    A    
C1    O7    A    
C4    O11   A    
H13   N4    S    
H21   O3    S    
O6    S2    S    
O14   S1    D    
C2    N2    D    
C13   H15   S    
C5    O13   A    
C6    H2    S    
C13   H14   S    
C20   N4    S    
O8    Zn1   S    
C17   C19   S    
C9    C16   S    
C11   H11   S    
C17   C18   D    
C8    C15   S    
C14   H20   S    
C7    C12   S    
C16   H12   S    
N1    Zn1   S    
C15   H24   S    
C14   H19   S    
C7    H3    S    
C6    H1    S    
C9    S2    S    
C21   N1    D    
O12   Zn1   S    
C17   H25   S    
C9    H6    S    
C5    C12   S    
C8    C10   S    
C13   N4    S    
N2    Zn2   S    
C4    O10   A    
O3    S1    S    
C1    C20   S    
C2    H29   S    
O5    S2    D    
H28   N1    S    
C14   H18   S    
O11   Zn2   S    
C8    S1    S    
C1    O1    A    
H22   O6    S    
H17   N5    S    
C12   C16   S    
C11   H9    S    
O4    S2    D    
H8    N3    S    
C7    H4    S    
