data_mof_unit_46146.cif
_audit_creation_date              2012-12-11T14:30:12-0500
_audit_creation_method            fapswitch 2.2
_symmetry_space_group_name_H-M    P1
_symmetry_Int_Tables_number       1
_space_group_crystal_system       triclinic
_cell_length_a                    12.753592
_cell_length_b                    12.753607
_cell_length_c                    27.082779
_cell_angle_alpha                 90.000016
_cell_angle_beta                  90.000048
_cell_angle_gamma                 120.000411
_cell_volume                      3814.93909067

loop_
_atom_site_label
_atom_site_type_symbol
_atom_type_description
_atom_site_fract_x
_atom_site_fract_y
_atom_site_fract_z
_atom_type_partial_charge
C1    C     C_R   0.557496 0.456175 0.822004 0.559174
C2    C     C_R   0.456172 0.557495 0.177995 0.559142
C3    C     C_R   0.001486 0.311490 0.474098 -0.025437
C4    C     C_R   0.310001 0.998509 0.025903 -0.025436
C5    C     C_R   0.688513 0.689996 0.474097 -0.025436
C6    C     C_R   0.311582 0.001689 0.525882 -0.025430
C7    C     C_R   0.998336 0.309907 0.974114 -0.025430
C8    C     C_R   0.690103 0.688422 0.525884 -0.025432
C9    C     C_R   0.311575 0.001674 0.974116 -0.025431
C10   C     C_R   0.998321 0.309899 0.525884 -0.025430
C11   C     C_R   0.690095 0.688429 0.974115 -0.025432
C12   C     C_1   0.997228 0.210708 0.052391 0.186553
C13   C     C_R   0.442506 0.898677 0.322005 0.559135
C14   C     C_1   0.213496 0.002798 0.447603 0.186563
C15   C     C_1   0.789294 0.786521 0.052392 0.186562
C16   C     C_1   0.997207 0.210699 0.447606 0.186558
C17   C     C_1   0.213483 0.002775 0.052394 0.186557
C18   C     C_1   0.789304 0.786508 0.447606 0.186568
C19   C     C_1   0.210820 0.997488 0.552365 0.186489
C20   C     C_1   0.002536 0.213347 0.947630 0.186495
C21   C     C_1   0.786667 0.789182 0.552368 0.186493
C22   C     C_1   0.210811 0.997467 0.947633 0.186494
C23   C     C_1   0.002514 0.213335 0.552368 0.186490
C24   C     C_R   0.101323 0.543828 0.177995 0.559140
C25   C     C_1   0.786656 0.789191 0.947631 0.186499
C26   C     C_R   0.994841 0.499997 0.974005 0.016904
C27   C     C_R   0.505158 0.005164 0.525995 0.016904
C28   C     C_R   0.500003 0.494844 0.974005 0.016904
C29   C     C_R   0.994843 0.499998 0.525995 0.016904
C30   C     C_R   0.505159 0.005165 0.974005 0.016904
C31   C     C_R   0.500002 0.494845 0.525995 0.016905
C32   C     C_R   0.499998 0.994826 0.474005 0.016901
C33   C     C_R   0.898678 0.442503 0.677995 0.559171
C34   C     C_R   0.005179 0.505172 0.025994 0.016902
C35   C     C_R   0.494827 0.500007 0.474006 0.016902
C36   C     C_R   0.499997 0.994828 0.025995 0.016902
C37   C     C_R   0.005181 0.505173 0.474006 0.016902
C38   C     C_R   0.494828 0.500006 0.025994 0.016902
C39   C     C_R   0.994693 0.690126 0.974463 -0.122604
C40   C     C_R   0.695420 0.005280 0.525541 -0.122606
C41   C     C_R   0.309870 0.304567 0.974461 -0.122605
C42   C     C_R   0.994716 0.690137 0.525539 -0.122604
C43   C     C_R   0.695432 0.005304 0.974461 -0.122606
C44   C     C_R   0.543824 0.101322 0.822004 0.559173
C45   C     C_R   0.309859 0.304579 0.525540 -0.122605
C46   C     C_R   0.689997 0.994416 0.474486 -0.122599
C47   C     C_R   0.005557 0.695564 0.025518 -0.122601
C48   C     C_R   0.304421 0.310003 0.474485 -0.122601
C49   C     C_R   0.690007 0.994439 0.025516 -0.122599
C50   C     C_R   0.005580 0.695577 0.474484 -0.122601
C51   C     C_R   0.304432 0.309992 0.025517 -0.122602
C52   C     C_R   0.971339 0.584068 0.896125 0.209295
C53   C     C_R   0.612718 0.028646 0.603877 0.209295
C54   C     C_R   0.415930 0.387274 0.896124 0.209294
C55   C     C_R   0.557496 0.456176 0.677996 0.559174
C56   C     C_R   0.971348 0.584070 0.603876 0.209295
C57   C     C_R   0.612725 0.028656 0.896124 0.209295
C58   C     C_R   0.415927 0.387280 0.603876 0.209294
C59   C     C_R   0.584036 0.971228 0.396136 0.209300
C60   C     C_R   0.028755 0.612793 0.103866 0.209299
C61   C     C_R   0.387198 0.415963 0.396135 0.209297
C62   C     C_R   0.584039 0.971238 0.103865 0.209300
C63   C     C_R   0.028765 0.612800 0.396135 0.209300
C64   C     C_R   0.387204 0.415961 0.103865 0.209297
C65   C     C_R   0.043838 0.523733 0.128713 0.003478
C66   C     C_R   0.898678 0.442503 0.822005 0.559169
C67   C     C_R   0.479902 0.956165 0.371287 0.003475
C68   C     C_R   0.476266 0.520103 0.128713 0.003477
C69   C     C_R   0.043839 0.523735 0.371287 0.003476
C70   C     C_R   0.479900 0.956165 0.128713 0.003476
C71   C     C_R   0.476265 0.520102 0.371287 0.003476
C72   C     C_R   0.523713 0.043836 0.628712 0.003495
C73   C     C_R   0.956165 0.479881 0.871287 0.003494
C74   C     C_R   0.520120 0.476286 0.628713 0.003495
C75   C     C_R   0.523715 0.043837 0.871288 0.003494
C76   C     C_R   0.956165 0.479880 0.628713 0.003495
C77   C     C_R   0.543824 0.101321 0.677996 0.559174
C78   C     C_R   0.520119 0.476285 0.871287 0.003494
C79   C     C_R   0.988361 0.592827 0.947864 0.028744
C80   C     C_R   0.604458 0.011627 0.552137 0.028742
C81   C     C_R   0.407171 0.395536 0.947864 0.028743
C82   C     C_R   0.988373 0.592831 0.552137 0.028744
C83   C     C_R   0.604465 0.011638 0.947864 0.028742
C84   C     C_R   0.407166 0.395542 0.552137 0.028742
C85   C     C_R   0.592776 0.988231 0.447876 0.028752
C86   C     C_R   0.011757 0.604536 0.052126 0.028749
C87   C     C_R   0.395456 0.407225 0.447875 0.028749
C88   C     C_R   0.456172 0.557495 0.322005 0.559142
C89   C     C_R   0.592780 0.988242 0.052125 0.028752
C90   C     C_R   0.011769 0.604543 0.447875 0.028750
C91   C     C_R   0.395462 0.407221 0.052125 0.028749
C92   C     C_R   0.975983 0.396089 0.897012 -0.140493
C93   C     C_R   0.420111 0.024036 0.602986 -0.140494
C94   C     C_R   0.603914 0.579894 0.897012 -0.140489
C95   C     C_R   0.975975 0.396083 0.602987 -0.140494
C96   C     C_R   0.420109 0.024028 0.897013 -0.140494
C97   C     C_R   0.603919 0.579892 0.602987 -0.140489
C98   C     C_R   0.396163 0.976081 0.397001 -0.140494
C99   C     C_R   0.442505 0.898677 0.177995 0.559135
C100  C     C_R   0.023942 0.420087 0.102996 -0.140498
C101  C     C_R   0.579916 0.603846 0.397003 -0.140488
C102  C     C_R   0.396156 0.976072 0.102998 -0.140495
C103  C     C_R   0.023935 0.420086 0.397003 -0.140498
C104  C     C_R   0.579914 0.603852 0.102997 -0.140489
C105  C     C_R   0.991883 0.402552 0.948182 -0.016722
C106  C     C_R   0.410674 0.008134 0.551816 -0.016723
C107  C     C_R   0.597450 0.589332 0.948182 -0.016721
C108  C     C_R   0.991875 0.402546 0.551817 -0.016723
C109  C     C_R   0.410672 0.008127 0.948183 -0.016723
C110  C     C_R   0.101323 0.543828 0.322005 0.559140
C111  C     C_R   0.597455 0.589329 0.551817 -0.016722
C112  C     C_R   0.402614 0.991978 0.448172 -0.016716
C113  C     C_R   0.008041 0.410642 0.051825 -0.016718
C114  C     C_R   0.589362 0.597393 0.448173 -0.016715
C115  C     C_R   0.402609 0.991970 0.051827 -0.016717
C116  C     C_R   0.008034 0.410640 0.448174 -0.016717
C117  C     C_R   0.589359 0.597397 0.051826 -0.016715
C118  C     C_R   0.001501 0.311497 0.025901 -0.025436
C119  C     C_R   0.310010 0.998525 0.474095 -0.025436
C120  C     C_R   0.688506 0.690004 0.025902 -0.025436
Cl1   Cl    Cl    0.029974 0.733285 0.137078 -0.531713
Cl2   Cl    Cl    0.733151 0.029780 0.862899 -0.531658
Cl3   Cl    Cl    0.970213 0.703368 0.637100 -0.531665
Cl4   Cl    Cl    0.296629 0.266842 0.862900 -0.531664
Cl5   Cl    Cl    0.703292 0.969966 0.362929 -0.531731
Cl6   Cl    Cl    0.266708 0.296689 0.137077 -0.531721
Cl7   Cl    Cl    0.029993 0.733298 0.362925 -0.531714
Cl8   Cl    Cl    0.703298 0.969987 0.137073 -0.531729
Cl9   Cl    Cl    0.266697 0.296694 0.362925 -0.531722
Cl10  Cl    Cl    0.733138 0.029760 0.637104 -0.531656
Cl11  Cl    Cl    0.970194 0.703362 0.862902 -0.531667
Cl12  Cl    Cl    0.296623 0.266853 0.637102 -0.531663
Cr1   Cr    Cr6+3 0.487630 0.241180 0.750000 1.168688
Cr2   Cr    Cr6+3 0.753550 0.512370 0.750000 1.168693
Cr3   Cr    Cr6+3 0.758820 0.246450 0.750000 1.168689
Cr4   Cr    Cr6+3 0.241180 0.487630 0.250000 1.168683
Cr5   Cr    Cr6+3 0.512370 0.753550 0.250000 1.168691
Cr6   Cr    Cr6+3 0.246450 0.758820 0.250000 1.168686
H1    H     H_    0.010032 0.772742 0.043678 0.196972
H2    H     H_    0.772548 0.009667 0.956291 0.197013
H3    H     H_    0.990359 0.762893 0.543709 0.197018
H4    H     H_    0.237117 0.227450 0.956292 0.197014
H5    H     H_    0.030478 0.349851 0.122722 0.202789
H6    H     H_    0.319400 0.969561 0.377273 0.202785
H7    H     H_    0.650152 0.680622 0.122723 0.202797
H8    H     H_    0.030464 0.349847 0.377276 0.202788
H9    H     H_    0.319389 0.969544 0.122725 0.202786
H10   H     H_    0.650157 0.680613 0.377275 0.202797
H11   H     H_    0.349909 0.030652 0.622703 0.202798
H12   H     H_    0.762694 0.989929 0.456327 0.196970
H13   H     H_    0.969380 0.319279 0.877293 0.202794
H14   H     H_    0.680735 0.650095 0.622705 0.202801
H15   H     H_    0.349904 0.030637 0.877295 0.202797
H16   H     H_    0.969364 0.319269 0.622706 0.202794
H17   H     H_    0.680726 0.650100 0.877293 0.202801
H18   H     H_    0.227254 0.237289 0.043677 0.196972
H19   H     H_    0.010065 0.772760 0.456324 0.196969
H20   H     H_    0.762710 0.989962 0.043676 0.196974
H21   H     H_    0.227237 0.237304 0.456325 0.196969
H22   H     H_    0.772530 0.009633 0.543712 0.197017
H23   H     H_    0.990326 0.762878 0.956294 0.197014
H24   H     H_    0.237102 0.227467 0.543710 0.197018
N1    N     N_1   0.993511 0.130809 0.074029 -0.166387
N2    N     N_1   0.130930 0.993795 0.925999 -0.166454
N3    N     N_1   0.006175 0.137120 0.574002 -0.166455
N4    N     N_1   0.862868 0.869071 0.925997 -0.166443
N5    N     N_1   0.137314 0.006513 0.425965 -0.166370
N6    N     N_1   0.869193 0.862703 0.074030 -0.166374
N7    N     N_1   0.993486 0.130799 0.425969 -0.166380
N8    N     N_1   0.137299 0.006487 0.074032 -0.166377
N9    N     N_1   0.869204 0.862689 0.425968 -0.166368
N10   N     N_1   0.130940 0.993820 0.573998 -0.166462
N11   N     N_1   0.006201 0.137135 0.925995 -0.166447
N12   N     N_1   0.862883 0.869059 0.574002 -0.166449
O1    O     O_R   0.460870 0.120930 0.805240 -0.490829
O2    O     O_R   0.120930 0.460870 0.194760 -0.490798
O3    O     O_R   0.539130 0.660060 0.305240 -0.490784
O4    O     O_R   0.339940 0.879070 0.194760 -0.490796
O5    O     O_R   0.498910 0.350470 0.801870 -0.440922
O6    O     O_R   0.851560 0.501090 0.698130 -0.440921
O7    O     O_R   0.649530 0.148440 0.801870 -0.440920
O8    O     O_R   0.498910 0.350470 0.698130 -0.440924
O9    O     O_R   0.851560 0.501090 0.801870 -0.440919
O10   O     O_R   0.649530 0.148440 0.698130 -0.440923
O11   O     O_R   0.350470 0.498910 0.301870 -0.440911
O12   O     O_R   0.660060 0.539130 0.694760 -0.490828
O13   O     O_R   0.501090 0.851560 0.198130 -0.440909
O14   O     O_R   0.148440 0.649530 0.301870 -0.440908
O15   O     O_R   0.350470 0.498910 0.198130 -0.440913
O16   O     O_R   0.501090 0.851560 0.301870 -0.440907
O17   O     O_R   0.148440 0.649530 0.198130 -0.440911
O18   O     O_3   0.666667 0.333333 0.750000 -0.319003
O19   O     O_3   0.333333 0.666667 0.250000 -0.318979
O20   O     O_R   0.879070 0.339940 0.805240 -0.490828
O21   O     O_R   0.460870 0.120930 0.694760 -0.490833
O22   O     O_R   0.660060 0.539130 0.805240 -0.490823
O23   O     O_R   0.879070 0.339940 0.694760 -0.490833
O24   O     O_R   0.120930 0.460870 0.305240 -0.490794
O25   O     O_R   0.539130 0.660060 0.194760 -0.490789
O26   O     O_R   0.339940 0.879070 0.305240 -0.490791

loop_
_geom_bond_atom_site_label_1
_geom_bond_atom_site_label_2
_ccdc_geom_bond_type
C36   C89   A    
C66   O9    A    
Cr4   O2    S    
C101  H10   S    
C56   C76   A    
C13   O26   A    
C5    C114  A    
C110  O24   A    
C43   C83   A    
Cr2   O12   S    
C4    C115  A    
C10   C108  A    
Cr6   O17   S    
C42   C82   A    
C44   O1    A    
Cr6   O26   S    
Cr2   O9    S    
C99   O13   A    
C88   O3    A    
C37   C116  A    
C18   N9    T    
C34   C113  A    
C40   C46   A    
C6    C19   S    
C110  O14   A    
C37   C90   A    
C64   C68   A    
C2    C68   S    
C3    C116  A    
C76   C95   A    
C97   C111  A    
C9    C22   S    
Cr6   O19   S    
C11   C25   S    
C28   C107  A    
C62   C89   A    
C77   O10   A    
C54   C78   A    
C15   C120  S    
C62   C70   A    
C35   C114  A    
C34   C86   A    
C55   O12   A    
Cr2   O18   S    
C30   C83   A    
C102  C115  A    
C61   C87   A    
C67   C98   A    
C51   C91   A    
C57   Cl2   S    
C23   N3    T    
C38   C117  A    
C35   C87   A    
C16   N7    T    
C26   C34   A    
Cr5   O25   S    
C58   Cl12  S    
C94   H17   S    
C103  H8    S    
C40   C80   A    
C29   C108  A    
C33   O23   A    
C39   H23   S    
C52   C79   A    
C53   C72   A    
Cr4   O24   S    
C61   Cl9   S    
C46   C85   A    
C59   C67   A    
C61   C71   A    
Cr2   O22   S    
C27   C32   A    
C33   O6    A    
C101  C114  A    
C55   C74   S    
C7    C118  A    
Cr3   O10   S    
C92   H13   S    
C11   C120  A    
C26   C105  A    
C66   O20   A    
C50   C90   A    
C75   C96   A    
C8    C21   S    
C74   C97   A    
C69   C103  A    
C50   H19   S    
C9    C109  A    
C94   C107  A    
C48   H21   S    
Cr5   O19   S    
C51   H18   S    
C98   C112  A    
C30   C109  A    
C1    C78   S    
C2    O25   A    
C56   Cl3   S    
C63   C69   A    
C53   C80   A    
C19   N10   T    
C65   C100  A    
C99   O4    A    
C52   C73   A    
C117  C120  A    
C60   C86   A    
C17   N8    T    
Cr1   O5    S    
C5    C18   S    
C27   C106  A    
C66   C73   S    
C38   C91   A    
C7    C20   S    
C13   O16   A    
Cr5   O16   S    
C39   C79   A    
C44   C75   S    
Cr6   O14   S    
C45   H24   S    
C59   C85   A    
C72   C77   S    
C2    O15   A    
C58   C84   A    
C102  H9    S    
C5    C8    A    
C22   N2    T    
C69   C110  S    
Cr1   O8    S    
C33   C76   S    
C96   H15   S    
C28   C38   A    
C4    C9    A    
Cr1   O21   S    
C41   C81   A    
C1    O22   A    
C42   H3    S    
C57   C83   A    
C93   H11   S    
C6    C106  A    
C48   C87   A    
C43   H2    S    
C71   C88   S    
Cr1   O1    S    
C20   N11   T    
C24   C65   S    
C42   C50   A    
C12   C118  S    
C4    C17   S    
C88   O11   A    
C46   H12   S    
C60   C65   A    
C14   C119  S    
C64   Cl6   S    
C93   C106  A    
C11   C107  A    
C25   N4    T    
C31   C35   A    
C15   N6    T    
C8    C111  A    
C45   C84   A    
Cr3   O7    S    
C29   C37   A    
C24   O2    A    
C6    C119  A    
C70   C99   S    
C58   C74   A    
C39   C47   A    
C104  C117  A    
C13   C67   S    
C45   C48   A    
C54   Cl4   S    
C32   C112  A    
C98   H6    S    
C28   C81   A    
C52   Cl11  S    
C104  H7    S    
C40   H22   S    
C43   C49   A    
C100  C113  A    
C68   C104  A    
C73   C92   A    
C49   C89   A    
C100  H5    S    
Cr3   O23   S    
C112  C119  A    
C70   C102  A    
C56   C82   A    
C10   C23   S    
C59   Cl5   S    
C96   C109  A    
C26   C79   A    
C30   C36   A    
Cr4   O15   S    
C95   H16   S    
C57   C75   A    
C103  C116  A    
C77   O21   A    
C41   H4    S    
C3    C10   A    
C55   O8    A    
Cr3   O20   S    
C62   Cl8   S    
C1    O5    A    
C78   C94   A    
C32   C85   A    
C63   C90   A    
C97   H14   S    
C72   C93   A    
C7    C105  A    
C24   O17   A    
C71   C101  A    
C60   Cl1   S    
C49   H20   S    
C29   C82   A    
Cr3   O18   S    
C95   C108  A    
C31   C84   A    
C113  C118  A    
C92   C105  A    
Cr4   O19   S    
Cr5   O3    S    
C27   C80   A    
Cr4   O11   S    
C21   N12   T    
C47   H1    S    
C47   C86   A    
C31   C111  A    
C53   Cl10  S    
C64   C91   A    
Cr2   O6    S    
C14   N5    T    
C36   C115  A    
C44   O7    A    
C41   C51   A    
C54   C81   A    
C63   Cl7   S    
C3    C16   S    
Cr1   O18   S    
Cr5   O13   S    
C12   N1    T    
Cr6   O4    S    
