data_mof_unit_63320.cif
_audit_creation_date              2012-12-10T18:23:49-0500
_audit_creation_method            fapswitch 2.2
_symmetry_space_group_name_H-M    P1
_symmetry_Int_Tables_number       1
_space_group_crystal_system       triclinic
_cell_length_a                    22.458907
_cell_length_b                    22.456904
_cell_length_c                    14.628906
_cell_angle_alpha                 90.000084
_cell_angle_beta                  90.086279
_cell_angle_gamma                 89.999772
_cell_volume                      7378.19036227

loop_
_atom_site_label
_atom_site_type_symbol
_atom_type_description
_atom_site_fract_x
_atom_site_fract_y
_atom_site_fract_z
_atom_type_partial_charge
C1    C     C_R   0.419711 0.919707 0.499939 0.821766
C2    C     C_R   0.580289 0.080293 0.500061 0.821765
C3    C     C_R   0.580290 0.919707 0.500061 0.821762
C4    C     C_R   0.419710 0.080293 0.499939 0.821762
C5    C     C_R   0.919711 0.419707 0.499939 0.821765
C6    C     C_R   0.080289 0.580293 0.500061 0.821765
C7    C     C_R   0.080290 0.419707 0.500061 0.821762
C8    C     C_R   0.919710 0.580293 0.499939 0.821762
C9    C     C_1   0.337134 0.162856 0.499781 0.002917
C10   C     C_1   0.662865 0.837143 0.500219 0.002917
C11   C     C_1   0.662866 0.162859 0.500223 0.002920
C12   C     C_1   0.337134 0.837141 0.499777 0.002920
C13   C     C_1   0.837134 0.662856 0.499781 0.002917
C14   C     C_1   0.162865 0.337143 0.500219 0.002917
C15   C     C_1   0.162866 0.662859 0.500223 0.002920
C16   C     C_1   0.837134 0.337141 0.499777 0.002920
C17   C     C_1   0.499982 0.000001 0.194102 0.149381
C18   C     C_1   0.500018 0.999999 0.805897 0.149381
C19   C     C_1   0.999981 0.500001 0.194102 0.149381
C20   C     C_1   0.000018 0.499999 0.805897 0.149381
C21   C     C_3   0.528116 0.048785 0.969284 -0.135473
C22   C     C_3   0.471884 0.951214 0.030716 -0.135473
C23   C     C_3   0.471803 0.048741 0.030712 -0.135482
C24   C     C_3   0.528197 0.951259 0.969288 -0.135482
C25   C     C_3   0.028158 0.548761 0.969284 -0.135476
C26   C     C_3   0.971842 0.451239 0.030716 -0.135476
C27   C     C_3   0.971845 0.548765 0.030712 -0.135476
C28   C     C_3   0.028154 0.451235 0.969288 -0.135476
C29   C     C_3   0.701153 0.729243 0.542655 -0.205529
C30   C     C_3   0.298847 0.270757 0.457345 -0.205528
C31   C     C_3   0.298817 0.729270 0.457230 -0.205529
C32   C     C_3   0.701183 0.270730 0.542770 -0.205529
C33   C     C_3   0.201153 0.229243 0.542655 -0.205529
C34   C     C_3   0.798847 0.770757 0.457344 -0.205529
C35   C     C_3   0.798817 0.229270 0.457230 -0.205529
C36   C     C_3   0.201183 0.770730 0.542770 -0.205529
C37   C     C_3   0.229569 0.201486 0.455927 -0.206288
C38   C     C_3   0.770431 0.798514 0.544073 -0.206288
C39   C     C_3   0.770460 0.201456 0.543963 -0.206294
C40   C     C_3   0.229539 0.798544 0.456037 -0.206294
C41   C     C_3   0.729569 0.701486 0.455927 -0.206288
C42   C     C_3   0.270431 0.298514 0.544073 -0.206289
C43   C     C_3   0.270460 0.701456 0.543962 -0.206294
C44   C     C_3   0.729540 0.298544 0.456038 -0.206294
C45   C     C_1   0.374889 0.125106 0.499823 -0.145072
C46   C     C_1   0.625110 0.874894 0.500177 -0.145072
C47   C     C_1   0.625109 0.125106 0.500179 -0.145070
C48   C     C_1   0.374891 0.874894 0.499821 -0.145070
C49   C     C_1   0.874889 0.625106 0.499823 -0.145072
C50   C     C_1   0.125110 0.374894 0.500177 -0.145072
C51   C     C_1   0.125109 0.625106 0.500179 -0.145070
C52   C     C_1   0.874891 0.374894 0.499821 -0.145070
C53   C     C_3   0.263601 0.235733 0.586097 0.215506
C54   C     C_3   0.736398 0.764267 0.413903 0.215506
C55   C     C_3   0.736337 0.235790 0.413903 0.215509
C56   C     C_3   0.263663 0.764210 0.586097 0.215509
C57   C     C_3   0.763601 0.735733 0.586097 0.215506
C58   C     C_3   0.236398 0.264267 0.413903 0.215505
C59   C     C_3   0.236337 0.735790 0.413903 0.215509
C60   C     C_3   0.763663 0.264210 0.586097 0.215509
C61   C     C_3   0.291352 0.208639 0.499942 0.095664
C62   C     C_3   0.708648 0.791361 0.500058 0.095664
C63   C     C_3   0.708647 0.208640 0.500062 0.095664
C64   C     C_3   0.291353 0.791360 0.499938 0.095664
C65   C     C_3   0.791352 0.708639 0.499941 0.095665
C66   C     C_3   0.208648 0.291361 0.500058 0.095664
C67   C     C_3   0.208647 0.708640 0.500062 0.095663
C68   C     C_3   0.791353 0.291360 0.499938 0.095663
C69   C     C_3   0.556298 0.000047 0.030937 -0.129818
C70   C     C_3   0.443702 0.999953 0.969063 -0.129818
C71   C     C_3   0.056298 0.499999 0.030937 -0.129819
C72   C     C_3   0.943702 0.500001 0.969063 -0.129818
C73   C     C_3   0.499989 0.000001 0.091257 0.062212
C74   C     C_3   0.500011 0.999999 0.908742 0.062212
C75   C     C_3   0.999989 0.500001 0.091257 0.062211
C76   C     C_3   0.000011 0.499999 0.908742 0.062211
Cu1   Cu    Cu3+1 0.500000 0.000000 0.590220 1.005885
Cu2   Cu    Cu3+1 0.500000 1.000000 0.409780 1.005885
Cu3   Cu    Cu3+1 0.000000 0.500000 0.590220 1.005885
Cu4   Cu    Cu3+1 1.000000 0.500000 0.409780 1.005885
H1    H     H_    0.397099 0.999914 0.943645 0.152653
H2    H     H_    0.602900 0.000086 0.056355 0.152653
H3    H     H_    0.897100 0.500003 0.943645 0.152653
H4    H     H_    0.102900 0.499997 0.056355 0.152653
H5    H     H_    0.213419 0.161251 0.419420 0.167785
H6    H     H_    0.786581 0.838749 0.580580 0.167785
H7    H     H_    0.786637 0.161195 0.580377 0.167784
H8    H     H_    0.213363 0.838804 0.419623 0.167784
H9    H     H_    0.713419 0.661250 0.419420 0.167785
H10   H     H_    0.286581 0.338749 0.580580 0.167785
H11   H     H_    0.286637 0.661196 0.580377 0.167784
H12   H     H_    0.713363 0.338804 0.419623 0.167784
H13   H     H_    0.660643 0.712824 0.578010 0.168445
H14   H     H_    0.339357 0.287176 0.421990 0.168445
H15   H     H_    0.339300 0.712872 0.421783 0.168447
H16   H     H_    0.660699 0.287127 0.578217 0.168447
H17   H     H_    0.160643 0.212824 0.578010 0.168445
H18   H     H_    0.839357 0.787176 0.421990 0.168445
H19   H     H_    0.839300 0.212872 0.421783 0.168447
H20   H     H_    0.160700 0.787128 0.578217 0.168447
H21   H     H_    0.448461 0.089089 0.055931 0.149744
H22   H     H_    0.551538 0.910911 0.944069 0.149744
H23   H     H_    0.551390 0.089170 0.944056 0.149738
H24   H     H_    0.448610 0.910829 0.055944 0.149738
H25   H     H_    0.948538 0.589133 0.055931 0.149743
H26   H     H_    0.051462 0.410867 0.944068 0.149743
H27   H     H_    0.051467 0.589126 0.944056 0.149738
H28   H     H_    0.948533 0.410874 0.055944 0.149738
N1    N     N_1   0.499980 1.000000 0.274190 -0.147479
N2    N     N_1   0.500020 1.000000 0.725810 -0.147479
N3    N     N_1   0.999980 0.500000 0.274190 -0.147479
N4    N     N_1   0.000020 0.500000 0.725810 -0.147479
O1    O     O_R   0.439540 0.939530 0.576170 -0.561437
O2    O     O_R   0.560460 0.060470 0.423830 -0.561437
O3    O     O_R   0.560460 0.939530 0.423830 -0.561442
O4    O     O_R   0.439540 0.060470 0.576170 -0.561442
O5    O     O_R   0.939540 0.439530 0.576170 -0.561437
O6    O     O_R   0.060460 0.560470 0.423830 -0.561437
O7    O     O_R   0.060460 0.439530 0.423830 -0.561442
O8    O     O_R   0.939540 0.560470 0.576170 -0.561442
O9    O     O_R   0.439530 0.939530 0.423800 -0.572937
O10   O     O_R   0.560470 0.060470 0.576200 -0.572937
O11   O     O_R   0.560470 0.939530 0.576200 -0.572930
O12   O     O_R   0.439530 0.060470 0.423800 -0.572930
O13   O     O_R   0.939530 0.439530 0.423800 -0.572937
O14   O     O_R   0.060470 0.560470 0.576200 -0.572937
O15   O     O_R   0.060470 0.439530 0.576200 -0.572930
O16   O     O_R   0.939530 0.560470 0.423800 -0.572930
I1    I     I_    0.714549 0.787197 0.276254 -0.341498
I2    I     I_    0.285451 0.212803 0.723746 -0.341498
I3    I     I_    0.285612 0.787049 0.723743 -0.341502
I4    I     I_    0.714388 0.212950 0.276257 -0.341502
I5    I     I_    0.214549 0.287197 0.276254 -0.341500
I6    I     I_    0.785451 0.712803 0.723746 -0.341500
I7    I     I_    0.785612 0.287049 0.723743 -0.341499
I8    I     I_    0.214388 0.712950 0.276256 -0.341499

loop_
_geom_bond_atom_site_label_1
_geom_bond_atom_site_label_2
_ccdc_geom_bond_type
C41   H9    S    
C9    C45   T    
C26   C72   S    
C11   C47   T    
Cu2   O3    S    
C39   H7    S    
C12   C48   T    
C36   C67   S    
C10   C62   S    
Cu1   Cu2   S    
C4    O12   A    
C31   C43   S    
Cu3   N4    S    
C38   H6    S    
C9    C61   S    
C22   C24   S    
C37   H5    S    
C11   C63   S    
C42   C53   S    
C12   C64   S    
C27   C75   S    
Cu4   O13   S    
C27   H25   S    
C30   C58   S    
C59   I8    S    
C22   H24   S    
C20   C76   S    
C31   C59   S    
C70   H1    S    
Cu2   O9    S    
C69   H2    S    
C59   C67   S    
C20   N4    T    
C53   C61   S    
C58   C66   S    
C28   H26   S    
C55   C63   S    
C70   C74   S    
C56   C64   S    
C5    C52   S    
C69   C73   S    
C16   C68   S    
C15   C51   T    
C6    C51   S    
Cu1   O4    S    
Cu2   O12   S    
C24   H22   S    
C37   C58   S    
C44   H12   S    
C72   C76   S    
Cu4   O7    S    
C18   C74   S    
C40   C59   S    
C34   C38   S    
C17   C73   S    
C23   C70   S    
Cu2   O2    S    
C1    O1    A    
C23   C73   S    
Cu1   O1    S    
C34   C65   S    
C3    O11   A    
C24   C69   S    
C1    O9    A    
C4    C45   S    
C2    O10   A    
C58   I5    S    
C33   C53   S    
Cu4   O6    S    
C71   C75   S    
C35   C55   S    
C56   I3    S    
C7    O7    A    
C36   C40   S    
C6    O14   A    
C26   H28   S    
C4    O4    A    
C13   C65   S    
C54   C62   S    
C21   C74   S    
C33   C37   S    
C21   C69   S    
C42   H10   S    
C35   C39   S    
C10   C46   T    
Cu1   O11   S    
C38   C57   S    
C8    O16   A    
C15   C67   S    
Cu3   O8    S    
C26   C75   S    
C14   C66   S    
C36   H20   S    
C35   H19   S    
C60   I7    S    
C60   C68   S    
C25   C71   S    
C43   C67   S    
C32   H16   S    
Cu3   O14   S    
C29   C57   S    
C34   C54   S    
C21   C23   S    
C13   C49   T    
C57   I6    S    
C44   C68   S    
C28   C71   S    
C25   C27   S    
C32   C60   S    
C5    O13   A    
C28   C76   S    
C25   H27   S    
C71   H4    S    
C8    O8    A    
Cu3   O15   S    
C29   C62   S    
C29   C41   S    
Cu1   O10   S    
C31   C64   S    
C54   I1    S    
C16   C52   T    
C7    C50   S    
C57   C65   S    
C17   N1    T    
C37   C61   S    
C1    C48   S    
C19   N3    T    
C2    C47   S    
C32   C63   S    
C39   C63   S    
C3    C46   S    
C26   C28   S    
C40   C64   S    
C25   C76   S    
C40   H8    S    
C19   C75   S    
Cu4   O16   S    
C30   H14   S    
C3    O3    A    
C29   H13   S    
C2    O2    A    
C44   C55   S    
C24   C74   S    
C14   C50   T    
C35   C68   S    
C31   H15   S    
C39   C60   S    
Cu3   O5    S    
Cu4   N3    S    
C36   C56   S    
C34   H18   S    
C22   C70   S    
Cu2   N1    S    
C33   H17   S    
C41   C65   S    
Cu1   N2    S    
C43   H11   S    
C41   C54   S    
C72   H3    S    
C33   C66   S    
C23   H21   S    
Cu3   Cu4   S    
C21   H23   S    
C43   C56   S    
C32   C44   S    
C18   N2    T    
C55   I4    S    
C30   C61   S    
C5    O5    A    
C42   C66   S    
C30   C42   S    
C53   I2    S    
C22   C73   S    
C7    O15   A    
C8    C49   S    
C6    O6    A    
C27   C72   S    
C38   C62   S    
