data_mof_unit_14764.cif
_audit_creation_date              2012-12-10T18:06:51-0500
_audit_creation_method            fapswitch 2.2
_symmetry_space_group_name_H-M    P1
_symmetry_Int_Tables_number       1
_space_group_crystal_system       triclinic
_cell_length_a                    12.598569
_cell_length_b                    13.136473
_cell_length_c                    15.438281
_cell_angle_alpha                 83.164102
_cell_angle_beta                  99.087041
_cell_angle_gamma                 96.740165
_cell_volume                      2492.35270771

loop_
_atom_site_label
_atom_site_type_symbol
_atom_type_description
_atom_site_fract_x
_atom_site_fract_y
_atom_site_fract_z
_atom_type_partial_charge
Br1   Br    Br    0.494143 0.636352 0.789186 -0.529809
Br2   Br    Br    0.747625 0.255622 0.077295 -0.501279
Br3   Br    Br    0.113567 0.584505 0.073357 -0.480216
C1    C     C_R   0.444763 0.308120 0.513046 0.878403
C2    C     C_R   0.624884 0.381347 0.934985 0.055202
C3    C     C_R   0.542513 0.446884 0.901581 -0.009296
C4    C     C_R   0.434372 0.510808 0.336103 0.895134
C5    C     C_R   0.691693 0.356017 0.877589 -0.120176
C6    C     C_R   0.675116 0.393077 0.788729 -0.257689
C7    C     C_R   0.542976 0.499905 0.817160 0.210110
C8    C     C_R   0.729291 0.926448 0.564370 -0.183551
C9    C     C_R   0.595564 0.798562 0.500793 -0.048005
C10   C     C_R   0.300761 0.164336 0.501237 -0.317306
C11   C     C_R   0.267025 0.059152 0.497328 0.602787
C12   C     C_R   0.418219 0.465521 0.099564 0.079343
C13   C     C_R   0.345763 0.990973 0.505754 -0.251988
C14   C     C_R   0.457210 0.024631 0.525852 0.004484
C15   C     C_R   0.487467 0.126392 0.546212 0.079620
C16   C     C_R   0.557160 0.691438 0.491829 0.880481
C17   C     C_R   0.539769 0.960531 0.526349 0.120347
C18   C     C_R   0.648162 0.991934 0.561506 0.176170
C19   C     C_R   0.673397 0.087477 0.594225 -0.239282
C20   C     C_R   0.594061 0.154234 0.586561 -0.164471
C21   C     C_R   0.517541 0.866804 0.490651 -0.236453
C22   C     C_R   0.702634 0.828877 0.535468 -0.172328
C23   C     C_R   0.318493 0.504038 0.061965 0.088422
C24   C     C_R   0.410537 0.198073 0.523799 -0.169080
C25   C     C_R   0.138972 0.643645 0.620703 -0.282238
C26   C     C_R   0.756958 0.379162 0.396698 0.026279
C27   C     C_R   0.852129 0.352356 0.375471 -0.214218
C28   C     C_R   0.564898 0.486764 0.663945 0.892064
C29   C     C_R   0.950182 0.397586 0.415249 -0.191027
C30   C     C_R   0.952781 0.470198 0.476652 0.016655
C31   C     C_R   0.853574 0.494307 0.496164 0.232813
C32   C     C_R   0.049092 0.519962 0.518983 -0.006656
C33   C     C_R   0.044432 0.592671 0.579432 0.186144
C34   C     C_R   0.484715 0.431618 0.045424 0.037472
C35   C     C_R   0.945554 0.613979 0.597843 -0.270551
C36   C     C_R   0.851380 0.565033 0.556772 -0.208307
C37   C     C_R   0.150738 0.501093 0.503529 -0.049622
C38   C     C_R   0.236993 0.622031 0.601786 0.030771
C39   C     C_R   0.391308 0.507322 0.242785 -0.118069
C40   C     C_R   0.599299 0.463951 0.758162 -0.099484
C41   C     C_R   0.252505 0.536931 0.117079 0.274734
C42   C     C_R   0.289403 0.538203 0.207167 -0.213694
C43   C     C_R   0.453477 0.469667 0.189335 -0.243045
C44   C     C_3   0.089921 0.067072 0.518170 -0.295288
C45   C     C_R   0.463652 0.458626 0.954017 0.091111
C46   C     C_R   0.361465 0.489985 0.917056 -0.156972
C47   C     C_R   0.288993 0.510528 0.970362 -0.169433
C48   C     C_R   0.570675 0.371259 0.079388 -0.249059
C49   C     C_R   0.637621 0.343058 0.024540 0.273968
H1    H     H_    0.212265 0.535733 0.938800 0.196362
H2    H     H_    0.311528 0.660926 0.632182 0.179927
H3    H     H_    0.940885 0.668876 0.643970 0.163553
H4    H     H_    0.136975 0.699543 0.666567 0.162622
H5    H     H_    0.163111 0.447414 0.459480 0.125747
H6    H     H_    0.680060 0.344465 0.366309 0.143910
H7    H     H_    0.021744 0.374222 0.396466 0.144421
H8    H     H_    0.849975 0.296921 0.328479 0.185340
H9    H     H_    0.777854 0.584339 0.573485 0.214392
H10   H     H_    0.720376 0.365195 0.743847 0.172169
H11   H     H_    0.239407 0.565473 0.248775 0.192139
H12   H     H_    0.753184 0.303950 0.899534 0.197494
H13   H     H_    0.532732 0.448797 0.217882 0.170792
H14   H     H_    0.335768 0.496323 0.846538 0.180924
H15   H     H_    0.583493 0.339871 0.147689 0.170503
H16   H     H_    0.070117 0.142305 0.481995 0.165739
H17   H     H_    0.123500 0.076005 0.588384 0.154640
H18   H     H_    0.012987 0.016388 0.517959 0.195415
H19   H     H_    0.764083 0.776019 0.543964 0.152862
H20   H     H_    0.754908 0.111551 0.623975 0.148195
H21   H     H_    0.812114 0.949198 0.591785 0.134317
H22   H     H_    0.438420 0.843205 0.456764 0.154030
H23   H     H_    0.242283 0.220193 0.483689 0.164292
H24   H     H_    0.316977 0.911173 0.499285 0.162707
H25   H     H_    0.616832 0.227380 0.613443 0.162738
N1    N     N_R   0.239390 0.551900 0.544730 -0.109641
N2    N     N_R   0.759950 0.448600 0.455730 -0.134419
O1    O     O_R   0.374950 0.371210 0.521360 -0.617022
O2    O     O_R   0.542050 0.338030 0.492790 -0.621847
O3    O     O_R   0.368720 0.526070 0.390200 -0.616121
O4    O     O_R   0.535820 0.492890 0.361630 -0.613023
O5    O     O_R   0.457950 0.661970 0.507210 -0.604717
O6    O     O_R   0.625050 0.628790 0.478640 -0.629632
O7    O     O_R   0.464180 0.507110 0.638370 -0.580281
O8    O     O_R   0.631280 0.473930 0.609800 -0.650291
O9    O     O_3   0.159711 0.020917 0.474870 -0.594498
Zn1   Zn    Zn3+2 0.388420 0.522150 0.519080 0.960333
Zn2   Zn    Zn3+2 0.611580 0.477850 0.480920 0.932011

loop_
_geom_bond_atom_site_label_1
_geom_bond_atom_site_label_2
_ccdc_geom_bond_type
C4    O4    A    
C32   C33   A    
C35   H3    S    
C25   H4    S    
C23   C41   A    
O3    Zn1   S    
C28   C40   S    
C1    O1    A    
C23   C47   A    
C2    C3    A    
C34   C48   A    
C8    C22   A    
C25   C38   A    
C14   C17   A    
C39   C43   A    
C4    C39   S    
O1    Zn1   S    
C44   H17   S    
N2    Zn2   S    
C31   C36   A    
C12   C34   A    
C1    O2    A    
C17   C21   A    
C5    C6    A    
C27   H8    S    
C2    C49   A    
C22   H19   S    
C28   O7    A    
C18   C19   A    
C19   H20   S    
C14   C15   A    
N1    Zn1   S    
C36   H9    S    
Br3   C41   S    
C6    C40   A    
C47   H1    S    
C28   O8    A    
C46   H14   S    
Br1   C7    S    
C6    H10   S    
C10   H23   S    
C43   H13   S    
C8    H21   S    
C38   N1    A    
C13   C14   A    
C12   C23   A    
C8    C18   A    
C48   C49   A    
C39   C42   A    
C44   H18   S    
C26   C27   A    
C31   N2    A    
C15   C20   A    
C26   N2    A    
C17   C18   A    
C30   C31   A    
C48   H15   S    
C20   H25   S    
C34   C45   A    
C3    C45   A    
Br2   C49   S    
C5    H12   S    
O2    Zn2   S    
C45   C46   A    
C11   C13   A    
O5    Zn1   S    
C16   O5    A    
C44   H16   S    
C1    C24   S    
C41   C42   A    
O4    Zn2   S    
C37   H5    S    
C7    C40   A    
C13   H24   S    
C15   C24   A    
C16   O6    A    
O7    Zn1   S    
C3    C7    A    
C2    C5    A    
O6    Zn2   S    
C9    C21   A    
C29   H7    S    
C9    C22   A    
C44   O9    S    
C33   C35   A    
C32   C37   A    
C11   O9    S    
C29   C30   A    
C27   C29   A    
C21   H22   S    
C35   C36   A    
C9    C16   S    
C30   C32   A    
C42   H11   S    
C37   N1    A    
C38   H2    S    
C4    O3    A    
C26   H6    S    
C25   C33   A    
C46   C47   A    
O8    Zn2   S    
C19   C20   A    
C10   C24   A    
C12   C43   A    
C10   C11   A    
