data_mof_unit_39831.cif
_audit_creation_date              2012-12-10T19:47:57-0500
_audit_creation_method            fapswitch 2.2
_symmetry_space_group_name_H-M    P1
_symmetry_Int_Tables_number       1
_space_group_crystal_system       triclinic
_cell_length_a                    14.846793
_cell_length_b                    14.210701
_cell_length_c                    10.775878
_cell_angle_alpha                 91.576446
_cell_angle_beta                  92.606595
_cell_angle_gamma                 91.933905
_cell_volume                      2268.92398687

loop_
_atom_site_label
_atom_site_type_symbol
_atom_type_description
_atom_site_fract_x
_atom_site_fract_y
_atom_site_fract_z
_atom_type_partial_charge
C1    C     C_R   0.326433 0.498296 0.495574 1.046833
C2    C     C_R   0.672490 0.501147 0.491829 1.138449
C3    C     C_R   0.044944 0.486735 0.401594 -0.100205
C4    C     C_R   0.948576 0.500132 0.407019 -0.125618
C5    C     C_R   0.440114 0.101493 0.422938 -0.307093
C6    C     C_R   0.538882 0.897733 0.601694 -0.343869
C7    C     C_R   0.558490 0.109800 0.582524 -0.361711
C8    C     C_R   0.460332 0.891814 0.402018 -0.358547
C9    C     C_R   0.442611 0.200614 0.420221 0.284151
C10   C     C_R   0.540103 0.798582 0.597962 0.186195
C11   C     C_R   0.556488 0.208821 0.581764 0.216817
C12   C     C_R   0.458060 0.792853 0.404207 0.215510
C13   C     C_R   0.499500 0.053648 0.502841 0.115746
C14   C     C_R   0.499745 0.946847 0.502253 0.142511
C15   C     C_R   0.511826 0.498520 0.261231 0.925784
C16   C     C_R   0.500703 0.501323 0.740259 1.023781
C17   C     C_R   0.654466 0.619653 0.130016 0.321049
C18   C     C_R   0.379718 0.387669 0.879812 0.392654
C19   C     C_R   0.658917 0.586920 0.873023 0.396199
C20   C     C_R   0.473228 0.323324 0.089562 0.433798
C21   C     C_R   0.722719 0.663548 0.060364 0.282446
C22   C     C_R   0.363030 0.295211 0.917017 0.299943
C23   C     C_R   0.721820 0.650249 0.931323 0.348915
C24   C     C_R   0.411583 0.261292 0.021959 0.273241
C25   C     C_R   0.584464 0.551046 0.937159 -0.217919
C26   C     C_R   0.482657 0.419323 0.056506 -0.217671
C27   C     C_R   0.587618 0.557283 0.068338 -0.145996
C28   C     C_R   0.453238 0.441198 0.937654 -0.224754
C29   C     C_R   0.509119 0.503327 0.874069 -0.050976
C30   C     C_R   0.529941 0.491860 0.129004 0.005800
C31   C     C_R   0.099323 0.560485 0.360912 0.452359
C32   C     C_R   0.887997 0.433469 0.349609 0.451234
C33   C     C_R   0.918686 0.571846 0.486692 0.368174
C34   C     C_R   0.082350 0.411600 0.466139 0.383803
C35   C     C_R   0.188305 0.569751 0.407417 0.320620
C36   C     C_R   0.798682 0.430107 0.385135 0.295201
C37   C     C_R   0.826218 0.577281 0.507193 0.341635
C38   C     C_R   0.176508 0.411161 0.491127 0.319418
C39   C     C_R   0.228632 0.493718 0.468010 -0.443647
C40   C     C_R   0.767579 0.502678 0.462796 -0.415600
H1    H     H_    0.390861 0.063204 0.362636 0.130591
H2    H     H_    0.568295 0.934627 0.683460 0.143220
H3    H     H_    0.606977 0.078584 0.645255 0.144521
H4    H     H_    0.431088 0.923756 0.320594 0.145044
N1    N     N_R   0.500000 0.252470 0.500000 -0.098420
N2    N     N_R   0.500000 0.747530 0.500000 -0.098169
O1    O     O_R   0.369060 0.579480 0.500010 -0.583424
O2    O     O_R   0.630940 0.420520 0.499990 -0.595780
O3    O     O_R   0.630940 0.579480 0.499990 -0.545254
O4    O     O_R   0.369060 0.420520 0.500010 -0.593921
O5    O     O_R   0.499990 0.579480 0.316780 -0.587917
O6    O     O_R   0.500010 0.420520 0.683220 -0.609781
O7    O     O_R   0.500010 0.579480 0.683220 -0.611892
O8    O     O_R   0.499990 0.420520 0.316780 -0.578876
Zn1   Zn    Zn3+2 0.500000 0.606140 0.500000 1.017898
Zn2   Zn    Zn3+2 0.500000 0.393860 0.500000 1.018521
O9    O     O_3   0.411818 0.166335 0.051041 -0.577276
C41   C     C_3   0.324048 0.124540 0.051033 -0.233669
H5    H     H_    0.271211 0.175299 0.074023 0.150111
H6    H     H_    0.323604 0.069919 0.122626 0.142951
H7    H     H_    0.306937 0.087555 0.960627 0.199898
O10   O     O_3   0.775269 0.704958 0.856917 -0.554492
C42   C     C_3   0.867690 0.689110 0.878740 -0.172657
H8    H     H_    0.902919 0.709754 0.795180 0.182861
H9    H     H_    0.881735 0.614036 0.895747 0.098736
H10   H     H_    0.897132 0.736260 0.954652 0.185634
O11   O     O_3   0.304022 0.236862 0.845146 -0.576756
C43   C     C_3   0.352398 0.194642 0.749906 -0.203564
H11   H     H_    0.413506 0.159430 0.786968 0.144255
H12   H     H_    0.371502 0.247376 0.680661 0.215920
H13   H     H_    0.308332 0.139368 0.701510 0.152399
O12   O     O_3   0.790703 0.720368 0.117457 -0.607475
C44   C     C_3   0.853018 0.663537 0.180586 -0.312232
H14   H     H_    0.884551 0.613760 0.115902 0.136837
H15   H     H_    0.821889 0.623454 0.255067 0.187940
H16   H     H_    0.907156 0.710184 0.225127 0.231234
O13   O     O_3   0.657807 0.632258 0.257847 -0.610893
C45   C     C_3   0.650900 0.728856 0.290646 -0.143200
H17   H     H_    0.715359 0.769253 0.286540 0.178435
H18   H     H_    0.636079 0.734524 0.389238 0.183482
H19   H     H_    0.597590 0.763364 0.234354 0.123904
O14   O     O_3   0.330036 0.419824 0.778737 -0.537706
C46   C     C_3   0.278750 0.495775 0.818760 -0.299231
H20   H     H_    0.232664 0.515643 0.740730 0.168441
H21   H     H_    0.236071 0.475909 0.896985 0.147673
H22   H     H_    0.322668 0.558675 0.845471 0.142349
O15   O     O_3   0.681106 0.546802 0.760911 -0.540952
C47   C     C_3   0.727273 0.463388 0.786993 -0.314840
H23   H     H_    0.681932 0.409843 0.827883 0.153946
H24   H     H_    0.787923 0.477430 0.850109 0.123130
H25   H     H_    0.751470 0.432234 0.699995 0.171954
O16   O     O_3   0.534651 0.284914 0.172461 -0.522953
C48   C     C_3   0.614112 0.267185 0.109807 -0.171251
H26   H     H_    0.658302 0.224288 0.169513 0.189217
H27   H     H_    0.600008 0.225925 0.021183 0.120894
H28   H     H_    0.651589 0.334149 0.091762 0.151781
O17   O     O_3   0.061151 0.632010 0.294118 -0.575581
C49   C     C_3   0.090611 0.626338 0.171550 -0.363922
H29   H     H_    0.073681 0.555996 0.126951 0.136876
H30   H     H_    0.164243 0.642567 0.168531 0.205117
H31   H     H_    0.055487 0.679567 0.115650 0.173366
O18   O     O_3   0.918557 0.364873 0.269898 -0.555326
C50   C     C_3   0.898452 0.391019 0.146759 -0.346396
H32   H     H_    0.937098 0.456267 0.124811 0.144045
H33   H     H_    0.824874 0.400149 0.128536 0.170543
H34   H     H_    0.919196 0.334109 0.082760 0.184757
O19   O     O_3   0.979211 0.638773 0.541260 -0.579125
C51   C     C_3   0.015278 0.605381 0.654560 -0.385608
H35   H     H_    0.071203 0.557608 0.638321 0.152066
H36   H     H_    0.963585 0.569539 0.710097 0.159438
H37   H     H_    0.044604 0.666300 0.710928 0.169322
O20   O     O_3   0.026462 0.338697 0.503699 -0.572662
C52   C     C_3   0.007657 0.353361 0.629811 -0.349950
H38   H     H_    0.956056 0.407408 0.639326 0.141856
H39   H     H_    0.069041 0.372753 0.689589 0.193196
H40   H     H_    0.978663 0.286751 0.664751 0.182993
O21   O     O_3   0.235747 0.653504 0.391501 -0.582044
C53   C     C_3   0.214479 0.717704 0.487360 -0.207615
H41   H     H_    0.142928 0.738161 0.477540 0.211456
H42   H     H_    0.257265 0.782699 0.480871 0.154954
H43   H     H_    0.228701 0.688836 0.581063 0.135916
O22   O     O_3   0.740076 0.358334 0.338992 -0.581928
C54   C     C_3   0.760778 0.274013 0.399074 -0.169442
H44   H     H_    0.699687 0.226715 0.393967 0.171836
H45   H     H_    0.781076 0.285341 0.499427 0.123867
H46   H     H_    0.814478 0.237185 0.350758 0.194565
O23   O     O_3   0.793566 0.648158 0.582429 -0.520781
C55   C     C_3   0.815708 0.738343 0.537676 -0.114116
H47   H     H_    0.874232 0.770517 0.592909 0.181401
H48   H     H_    0.757946 0.784434 0.550477 0.128717
H49   H     H_    0.830410 0.738453 0.437337 0.121491
O24   O     O_3   0.216775 0.338092 0.554263 -0.536766
C56   C     C_3   0.190957 0.248768 0.500086 -0.174760
H50   H     H_    0.248421 0.201531 0.510561 0.117027
H51   H     H_    0.172510 0.250715 0.398722 0.128176
H52   H     H_    0.135274 0.216092 0.551022 0.208515
N3    N     N_3   0.386326 0.247394 0.331665 -0.375922
H53   H     H_    0.340555 0.285888 0.379701 0.194514
H54   H     H_    0.346352 0.198157 0.279006 0.154566
N4    N     N_3   0.583445 0.751100 0.697895 -0.359849
H55   H     H_    0.551380 0.768574 0.779377 0.156548
H56   H     H_    0.650019 0.777209 0.708300 0.218065
N5    N     N_3   0.613308 0.264175 0.668099 -0.409007
H57   H     H_    0.595532 0.247041 0.757727 0.147233
H58   H     H_    0.679870 0.244695 0.658122 0.142371
N6    N     N_3   0.412067 0.739799 0.304442 -0.363750
H59   H     H_    0.346609 0.764058 0.294324 0.201930
H60   H     H_    0.443320 0.755388 0.222206 0.147972

loop_
_geom_bond_atom_site_label_1
_geom_bond_atom_site_label_2
_ccdc_geom_bond_type
O15   C47   S    
C42   H9    S    
C9    N1    A    
C48   H26   S    
C34   O20   S    
C44   H14   S    
C36   O22   S    
C33   O19   S    
C55   H47   S    
O17   C49   S    
C54   H44   S    
O13   C45   S    
C7    C11   A    
C20   O16   S    
C32   C36   A    
C28   C29   A    
N4    H56   S    
C52   H38   S    
C37   C40   A    
C19   O15   S    
C38   C39   A    
C45   H18   S    
C54   H45   S    
C41   H6    S    
N5    H57   S    
C49   H29   S    
C51   H35   S    
O2    Zn2   S    
C12   N6    S    
C53   H41   S    
C16   O7    A    
C9    N3    S    
C23   O10   S    
C20   C24   A    
N1    Zn2   S    
O24   C56   S    
N2    Zn1   S    
C10   N2    A    
C56   H52   S    
O19   C51   S    
C15   O5    A    
O4    Zn2   S    
C1    O4    A    
C5    C13   A    
C52   H40   S    
C41   H7    S    
C42   H10   S    
C48   H27   S    
C34   C38   A    
C13   C14   S    
C27   C30   A    
C44   H15   S    
C10   N4    S    
O20   C52   S    
N6    H60   S    
O7    Zn1   S    
C25   C29   A    
O8    Zn2   S    
C21   O12   S    
O6    Zn2   S    
O11   C43   S    
C17   C27   A    
C15   O8    A    
C8    H4    S    
C36   C40   A    
C18   C28   A    
N4    H55   S    
C12   N2    A    
C45   H17   S    
C1    O1    A    
C54   H46   S    
C3    C34   A    
C2    O2    A    
C41   H5    S    
O3    Zn1   S    
C33   C37   A    
C53   H43   S    
C38   O24   S    
C19   C23   A    
C5    C9    A    
O10   C42   S    
C2    O3    A    
C6    C14   A    
N3    H54   S    
C46   H20   S    
C47   H25   S    
C8    C12   A    
C17   O13   S    
C50   H33   S    
C3    C31   A    
C4    C32   A    
C46   H21   S    
C47   H24   S    
C26   C30   A    
C48   H28   S    
C49   H30   S    
C21   C23   A    
C56   H50   S    
C44   H16   S    
C22   C24   A    
C35   O21   S    
C3    C4    S    
C55   H49   S    
C15   C30   S    
O1    Zn1   S    
N6    H59   S    
C24   O9    S    
C7    H3    S    
N5    H58   S    
C5    H1    S    
C4    C33   A    
C8    C14   A    
C18   C22   A    
C43   H11   S    
C16   O6    A    
O12   C44   S    
C55   H48   S    
C6    C10   A    
C32   O18   S    
C25   C27   A    
C49   H31   S    
N3    H53   S    
C26   C28   A    
C51   H37   S    
C16   C29   S    
O21   C53   S    
C45   H19   S    
O9    C41   S    
C20   C26   A    
C43   H13   S    
C35   C39   A    
C31   C35   A    
O16   C48   S    
C18   O14   S    
C51   H36   S    
C50   H34   S    
O5    Zn1   S    
C31   O17   S    
O18   C50   S    
C19   C25   A    
C53   H42   S    
C22   O11   S    
C11   N1    A    
C1    C39   S    
C42   H8    S    
C2    C40   S    
C7    C13   A    
C46   H22   S    
C47   H23   S    
C43   H12   S    
O14   C46   S    
C6    H2    S    
C50   H32   S    
C56   H51   S    
C52   H39   S    
O22   C54   S    
C11   N5    S    
O23   C55   S    
C37   O23   S    
C17   C21   A    
