data_mof_unit_13908.cif
_audit_creation_date              2012-12-11T15:52:39-0500
_audit_creation_method            fapswitch 2.2
_symmetry_space_group_name_H-M    P1
_symmetry_Int_Tables_number       1
_space_group_crystal_system       triclinic
_cell_length_a                    6.933777
_cell_length_b                    14.752968
_cell_length_c                    15.907771
_cell_angle_alpha                 90.226109
_cell_angle_beta                  90.228826
_cell_angle_gamma                 89.667509
_cell_volume                      1627.21328928

loop_
_atom_site_label
_atom_site_type_symbol
_atom_type_description
_atom_site_fract_x
_atom_site_fract_y
_atom_site_fract_z
_atom_type_partial_charge
O1    O     O_R   0.494400 0.415640 0.412830 -0.556297
O2    O     O_R   0.823920 0.405510 0.586560 -0.502662
O3    O     O_R   0.994250 0.584360 0.587170 -0.521628
C1    C     C_R   0.656565 0.385946 0.617354 0.804086
O4    O     O_R   0.824110 0.404610 0.413450 -0.559345
O5    O     O_R   0.994440 0.583460 0.412820 -0.533285
C2    C     C_R   0.655042 0.382292 0.384218 0.664629
O6    O     O_R   0.494210 0.416540 0.587180 -0.538270
O7    O     O_3   0.660810 0.558680 0.500000 -0.373626
V1    V     V_3+5 0.935650 0.489110 0.500000 1.583612
O8    O     O_R   0.324150 0.594490 0.413440 -0.540153
C3    C     C_R   0.155827 0.613799 0.382128 0.804940
O9    O     O_R   0.323970 0.595390 0.586550 -0.547778
C4    C     C_R   0.154372 0.618081 0.615107 0.825732
V2    V     V_3+5 0.435660 0.510890 0.500000 1.538104
O10   O     O_3   0.160630 0.441320 0.500000 -0.376322
C5    C     C_3   0.928178 0.712896 0.707014 -0.288557
H1    H     H_    0.849670 0.739360 0.651223 0.202857
H2    H     H_    0.850118 0.651242 0.726108 0.198952
C6    C     C_3   0.917068 0.782506 0.779618 -0.319525
H3    H     H_    0.833250 0.753048 0.832326 0.188604
H4    H     H_    0.837311 0.843778 0.757737 0.165167
H5    H     H_    0.154381 0.909151 0.712591 0.231916
C7    C     C_3   0.246280 0.779414 0.660331 0.329921
C8    C     C_3   0.240750 0.652483 0.765421 -0.382304
C9    C     C_3   0.141595 0.689553 0.684385 -0.062652
H6    H     H_    0.394998 0.636572 0.752568 0.152865
H7    H     H_    0.171936 0.588116 0.784835 0.247674
C10   C     C_3   0.121906 0.809354 0.810730 0.009217
C11   C     C_3   0.232642 0.848369 0.734361 -0.337722
C12   C     C_3   0.228467 0.721954 0.838912 -0.317072
H8    H     H_    0.151830 0.690865 0.892729 0.210270
H9    H     H_    0.376649 0.738761 0.860896 0.159432
H10   H     H_    0.401419 0.763402 0.649685 0.070469
H11   H     H_    0.380306 0.869485 0.753540 0.143951
C13   C     C_R   0.990509 0.731291 0.178809 0.460967
C14   C     C_R   0.003996 0.668145 0.245615 0.231152
C15   C     C_R   0.147727 0.677669 0.309090 -0.281135
C16   C     C_R   0.282253 0.749191 0.301870 0.425258
C17   C     C_R   0.264683 0.812484 0.237272 -0.174034
H12   H     H_    0.365853 0.868192 0.235613 0.177581
C18   C     C_R   0.120390 0.805793 0.175748 -0.310513
C19   C     C_R   0.779254 0.317324 0.755426 0.514385
C20   C     C_R   0.759316 0.251326 0.818295 -0.185997
H13   H     H_    0.849684 0.253824 0.873540 0.200561
C21   C     C_R   0.612354 0.186896 0.815685 -0.252695
C22   C     C_R   0.466797 0.197826 0.753346 0.500618
C23   C     C_R   0.493187 0.258876 0.687429 -0.215346
H14   H     H_    0.384917 0.263803 0.638386 0.202984
C24   C     C_R   0.648417 0.318671 0.686629 -0.240295
C25   C     C_R   0.812102 0.274984 0.280566 -0.133945
H15   H     H_    0.952929 0.293920 0.304197 0.112472
C26   C     C_R   0.801046 0.211160 0.215131 -0.130855
H16   H     H_    0.933922 0.182836 0.190648 0.116445
C27   C     C_R   0.621461 0.184190 0.181933 -0.040013
C28   C     C_R   0.453280 0.223110 0.216147 -0.133413
H17   H     H_    0.312458 0.204217 0.192481 0.116287
C29   C     C_R   0.464335 0.286927 0.281591 -0.128970
H18   H     H_    0.331467 0.315283 0.306055 0.112604
C30   C     C_R   0.643907 0.313761 0.314897 -0.031343
O11   O     O_R   0.771300 0.080930 0.910090 -0.546095
O12   O     O_R   0.441270 0.092800 0.083770 -0.553059
O13   O     O_R   0.271080 0.913920 0.084380 -0.541342
C31   C     C_R   0.610334 0.115352 0.112863 0.660099
O14   O     O_R   0.441580 0.091910 0.910670 -0.490262
O15   O     O_R   0.271390 0.913020 0.910040 -0.536364
C32   C     C_R   0.608459 0.115061 0.882173 0.764691
O16   O     O_R   0.770990 0.081830 0.084440 -0.553961
O17   O     O_3   0.604750 0.938760 0.997250 -0.347077
V3    V     V_3+5 0.329850 0.008280 0.997210 1.571071
O18   O     O_R   0.941680 0.901940 0.910610 -0.537416
C33   C     C_R   0.110961 0.878674 0.882292 0.714484
O19   O     O_R   0.941370 0.902830 0.083720 -0.502113
C34   C     C_R   0.110615 0.877806 0.110054 0.803368
V4    V     V_3+5 0.829860 0.986420 0.997150 1.574716
O20   O     O_3   0.104830 0.056030 0.997180 -0.368534
S1    S     S_3+6 0.817363 0.712027 0.097342 0.021857
O21   O     O_2   0.645123 0.772020 0.112777 -0.339580
O22   O     O_2   0.902895 0.734355 0.013397 -0.378789
O23   O     O_3   0.744172 0.603521 0.094229 -0.466313
H19   H     H_    0.643350 0.601758 0.049960 0.363839
O24   O     O_3   0.875777 0.596994 0.246825 -0.591046
H20   H     H_    0.944803 0.542137 0.266776 0.282630
O25   O     O_3   0.427497 0.761874 0.359640 -0.578537
H21   H     H_    0.518105 0.710325 0.351961 0.319639
S2    S     S_3+6 0.952605 0.403090 0.771001 0.007748
O26   O     O_2   0.110332 0.394156 0.707000 -0.304009
O27   O     O_2   0.854843 0.493271 0.760698 -0.410929
O28   O     O_3   0.051249 0.397386 0.867649 -0.474969
H22   H     H_    0.950697 0.421298 0.905989 0.340917
S3    S     S_3+6 0.231045 0.158434 0.767487 0.023298
O29   O     O_2   0.160669 0.199498 0.848093 -0.330025
O30   O     O_2   0.100539 0.185802 0.696170 -0.331734
O31   O     O_3   0.228432 0.046286 0.776681 -0.526455
H23   H     H_    0.093925 0.033607 0.793536 0.334924
S4    S     S_3+6 0.158720 0.832291 0.564838 0.003720
O32   O     O_2   0.306747 0.899139 0.535771 -0.290689
O33   O     O_2   0.126933 0.763322 0.496973 -0.350052
O34   O     O_3   0.949836 0.887664 0.582599 -0.511413
H24   H     H_    0.915228 0.915590 0.528025 0.385805

loop_
_geom_bond_atom_site_label_1
_geom_bond_atom_site_label_2
_ccdc_geom_bond_type
C8    C12   S    
C27   C28   A    
O19   C34   A    
C13   C18   A    
C1    O6    A    
S1    O21   D    
O11   V4    S    
C8    H7    S    
C10   C11   S    
C11   H11   S    
C5    C9    S    
C31   O16   A    
C13   C14   A    
C7    C9    S    
C16   O25   S    
C13   S1    S    
C7    S4    S    
O5    C3    A    
C15   C16   A    
S2    O27   D    
C29   C30   A    
O14   V3    S    
S4    O34   S    
C5    C6    S    
C28   H17   S    
O12   V3    S    
O12   C31   A    
O8    V2    S    
O15   C33   A    
C12   H8    S    
O14   C32   A    
S4    O33   D    
C22   C23   A    
C12   H9    S    
O1    V2    S    
O7    V1    S    
C10   C33   S    
C17   C18   A    
O9    C4    A    
S4    O32   D    
C3    C15   S    
O19   V4    S    
O31   H23   S    
C20   C21   A    
C6    C10   S    
C26   C27   A    
C18   C34   S    
C25   H15   S    
H5    C11   S    
O25   H21   S    
C16   C17   A    
O4    C2    A    
S2    O26   D    
C29   H18   S    
C26   H16   S    
C7    H10   S    
C1    C24   S    
O16   V4    S    
O2    C1    A    
V4    O20   S    
C14   C15   A    
S3    O30   D    
O11   C32   A    
O34   H24   S    
O13   V3    S    
C27   C31   S    
C5    H1    S    
S1    O22   D    
C4    C9    S    
O3    C4    A    
C17   H12   S    
C6    H4    S    
O6    V2    S    
O9    V2    S    
C19   C20   A    
V3    O20   S    
C14   O24   S    
O2    V1    S    
C2    C30   S    
S3    O29   D    
C20   H13   S    
S1    O23   S    
C21   C22   A    
C23   H14   S    
O1    C2    A    
C19   S2    S    
C22   S3    S    
O23   H19   S    
S2    O28   S    
O5    V1    S    
O8    C3    A    
C19   C24   A    
O13   C34   A    
C8    H6    S    
C8    C9    S    
O4    V1    S    
C10   C12   S    
O3    V1    S    
V1    O10   S    
S3    O31   S    
O18   V4    S    
O15   V3    S    
C23   C24   A    
C5    H2    S    
C28   C29   A    
O17   V4    S    
O7    V2    S    
O17   V3    S    
C7    C11   S    
C21   C32   S    
O18   C33   A    
C6    H3    S    
O24   H20   S    
C25   C30   A    
C25   C26   A    
O28   H22   S    
V2    O10   S    
