data_mof_unit_51231.cif
_audit_creation_date              2013-03-05T16:48:15-0500
_audit_creation_method            fapswitch 2.2
_symmetry_space_group_name_H-M    P1
_symmetry_Int_Tables_number       1
_space_group_crystal_system       triclinic
_cell_length_a                    23.453782
_cell_length_b                    8.924986
_cell_length_c                    8.097763
_cell_angle_alpha                 90.00761
_cell_angle_beta                  89.945143
_cell_angle_gamma                 90.139952
_cell_volume                      1695.05576822

loop_
_atom_site_label
_atom_site_type_symbol
_atom_site_description
_atom_site_fract_x
_atom_site_fract_y
_atom_site_fract_z
_atom_type_partial_charge
O1    O     O_R   0.500000 0.285350 0.636850 -0.613335
O2    O     O_R   0.500000 0.714650 0.363150 -0.613674
O3    O     O_R   0.500000 0.714650 0.636850 -0.613034
O4    O     O_R   0.500000 0.285350 0.363150 -0.612752
C1    C     C_R   0.499987 0.217975 0.499993 0.946619
C2    C     C_R   0.500012 0.782025 0.500007 0.945895
O5    O     O_R   0.416160 0.500000 0.636910 -0.622341
O6    O     O_R   0.583840 0.500000 0.363090 -0.623970
O7    O     O_R   0.583840 0.500000 0.636910 -0.622445
O8    O     O_R   0.416160 0.500000 0.363090 -0.623737
C3    C     C_R   0.208232 0.504457 0.493322 0.288431
C4    C     C_R   0.791715 0.515725 0.490922 0.293758
C5    C     C_R   0.388985 0.499952 0.499942 0.872932
C6    C     C_R   0.611023 0.500661 0.499764 0.872483
Zn1   Zn    Zn3+2 0.500000 0.500000 0.682780 0.997845
Zn2   Zn    Zn3+2 0.500000 0.500000 0.317220 0.997070
H1    H     H_    0.216385 0.524652 0.228857 0.145073
H2    H     H_    0.783404 0.516904 0.225625 0.137102
H3    H     H_    0.213025 0.484064 0.758601 0.149588
H4    H     H_    0.787110 0.512765 0.757181 0.140829
C7    C     C_R   0.297739 0.512589 0.347791 -0.197797
C8    C     C_R   0.702165 0.508738 0.346140 -0.196647
C9    C     C_R   0.296047 0.490608 0.647068 -0.206911
C10   C     C_R   0.704035 0.506824 0.646375 -0.203439
H5    H     H_    0.320532 0.520941 0.231751 0.165965
H6    H     H_    0.679326 0.507648 0.229949 0.164777
H7    H     H_    0.317659 0.481237 0.764737 0.164597
H8    H     H_    0.682503 0.504088 0.764728 0.163340
C11   C     C_R   0.326820 0.500861 0.498653 -0.043882
C12   C     C_R   0.673183 0.504829 0.497868 -0.043074
C13   C     C_R   0.880636 0.645390 0.528274 0.580123
C14   C     C_R   0.119129 0.386848 0.427535 0.583445
C15   C     C_R   0.879988 0.392244 0.433157 0.541151
C16   C     C_R   0.120231 0.634118 0.540014 0.548407
N1    N     N_R   0.852395 0.517548 0.485780 -0.375923
N2    N     N_R   0.147556 0.507800 0.489057 -0.373573
C17   C     C_R   0.939414 0.393648 0.412897 -0.141565
C18   C     C_R   0.060756 0.646247 0.523033 -0.132656
C19   C     C_R   0.940577 0.650461 0.522387 -0.112027
C20   C     C_R   0.059373 0.388648 0.415373 -0.107678
C21   C     C_R   0.970044 0.521509 0.466577 -0.142949
C22   C     C_R   0.030050 0.519183 0.467255 -0.144084
C23   C     C_R   0.968915 0.269911 0.344524 0.342779
C24   C     C_R   0.031228 0.779958 0.563235 0.324708
C25   C     C_R   0.971212 0.780763 0.568142 0.464812
C26   C     C_R   0.028786 0.264907 0.351129 0.458966
C27   C     C_1   0.499995 0.065201 0.499989 -0.181228
C28   C     C_1   0.500004 0.934799 0.500010 -0.181081
C29   C     C_R   0.238670 0.514670 0.345418 -0.098778
C30   C     C_R   0.761199 0.514239 0.342937 -0.096087
C31   C     C_R   0.236789 0.492163 0.644203 -0.072404
C32   C     C_R   0.763272 0.512227 0.642715 -0.082122
N3    N     N_1   0.500000 0.500000 0.073640 -0.034443
N4    N     N_1   0.500000 0.500000 0.926360 -0.034222
O9    O     O_2   0.850330 0.766197 0.576176 -0.450336
O10   O     O_2   0.149103 0.264989 0.380968 -0.464667
O11   O     O_2   0.849679 0.265856 0.406002 -0.486786
O12   O     O_2   0.150893 0.745566 0.609633 -0.506323
O13   O     O_3   0.940573 0.154764 0.265775 -0.705890
H9    H     H_    0.912861 0.201111 0.188867 0.368103
O14   O     O_3   0.059760 0.911952 0.595604 -0.713020
H10   H     H_    0.087880 0.926537 0.505549 0.400107
O15   O     O_3   0.941530 0.908505 0.613288 -0.652070
H11   H     H_    0.968001 0.990286 0.644221 0.383140
O16   O     O_3   0.058389 0.142946 0.289454 -0.693515
H12   H     H_    0.031926 0.060546 0.260419 0.378422

loop_
_geom_bond_atom_site_label_1
_geom_bond_atom_site_label_2
_geom_bond_distance
_ccdc_geom_bond_type
O4    Zn2   1.951567 S    
C4    C30   1.396430 A    
O7    C6    1.280038 A    
C18   C24   1.418886 A    
C19   C25   1.415013 A    
O1    Zn1   1.951470 S    
C9    H7    1.083055 S    
C24   O14   1.378660 S    
C19   C21   1.417602 A    
O2    Zn2   1.951469 S    
C21   C22   1.407594 A    
C9    C31   1.390155 A    
C27   C28   1.163837 T    
C23   O13   1.379109 S    
C8    C30   1.385542 A    
O3    C2    1.260835 A    
C13   O9    1.349561 S    
C3    C29   1.396604 A    
O5    Zn1   2.001492 S    
O7    Zn1   2.000791 S    
O13   H9    0.991749 S    
O6    Zn2   2.001490 S    
O8    Zn2   2.000793 S    
N3    N4    1.192638 T    
C4    N1    1.423812 S    
C20   C26   1.414792 A    
C1    C27   1.363508 S    
O2    C2    1.260790 A    
C2    C28   1.363502 S    
C6    C12   1.458335 S    
H3    C31   1.082977 S    
O1    C1    1.260793 A    
C7    C29   1.385711 A    
C14   N2    1.361988 A    
C20   C22   1.417740 A    
C3    N2    1.423912 S    
C4    C32   1.398297 A    
C13   C19   1.407216 A    
C18   C22   1.416059 A    
C16   N2    1.361944 A    
C10   C32   1.390341 A    
C14   C20   1.405197 A    
C17   C21   1.415525 A    
O14   H10   0.991168 S    
C23   C26   1.406092 A    
C13   N1    1.362209 A    
C17   C23   1.416936 A    
C10   C12   1.404172 A    
C3    C31   1.398342 A    
H1    C29   1.083163 S    
O15   H11   0.989427 S    
Zn1   N4    1.972453 S    
C9    C11   1.404184 A    
O5    C5    1.279738 A    
O3    Zn1   1.951566 S    
C24   C25   1.408158 A    
H2    C30   1.083148 S    
C26   O16   1.385347 S    
H4    C32   1.082938 S    
O16   H12   0.989613 S    
C8    H6    1.083173 S    
C5    C11   1.458104 S    
C16   O12   1.349620 S    
C7    H5    1.083123 S    
Zn2   N3    1.972453 S    
O4    C1    1.260832 A    
O6    C6    1.277781 A    
C8    C12   1.403984 A    
C15   N1    1.361607 A    
C16   C18   1.406250 A    
C7    C11   1.403767 A    
C25   O15   1.386135 S    
C15   O11   1.349962 S    
C15   C17   1.403257 A    
C10   H8    1.083119 S    
C14   O10   1.349956 S    
O8    C5    1.277871 A    
