data_mof_unit_7920.cif
_audit_creation_date              2012-12-10T17:04:28-0500
_audit_creation_method            fapswitch 2.2
_symmetry_space_group_name_H-M    P1
_symmetry_Int_Tables_number       1
_space_group_crystal_system       triclinic
_cell_length_a                    14.952086
_cell_length_b                    10.892147
_cell_length_c                    10.126148
_cell_angle_alpha                 91.91161
_cell_angle_beta                  93.071541
_cell_angle_gamma                 92.902767
_cell_volume                      1643.58942295

loop_
_atom_site_label
_atom_site_type_symbol
_atom_type_description
_atom_site_fract_x
_atom_site_fract_y
_atom_site_fract_z
_atom_type_partial_charge
C1    C     C_R   0.496617 0.263773 0.497258 0.925521
C2    C     C_R   0.183347 0.391205 0.528753 0.102902
C3    C     C_R   0.231438 0.495545 0.487199 -0.154761
C4    C     C_R   0.327201 0.499024 0.496467 0.903057
C5    C     C_R   0.188495 0.594902 0.432470 0.174671
C6    C     C_2   0.529509 0.939010 0.404390 0.090918
C7    C     C_2   0.523207 0.870512 0.514031 0.231407
C8    C     C_2   0.540861 0.071423 0.415380 -0.092343
C9    C     C_2   0.486083 0.133590 0.487973 -0.212084
C10   C     C_2   0.568177 0.534756 0.934666 0.234029
C11   C     C_2   0.559430 0.556015 0.078636 -0.063270
C12   C     C_R   0.908130 0.599094 0.435617 -0.119555
C13   C     C_R   0.504067 0.737985 0.502737 0.897830
C14   C     C_R   0.673085 0.500126 0.502913 0.984345
C15   C     C_R   0.816017 0.605636 0.454732 0.324785
C16   C     C_R   0.769668 0.504165 0.506900 -0.235885
C17   C     C_R   0.813271 0.400148 0.546784 0.112165
C18   C     C_R   0.902788 0.388942 0.517198 -0.042454
C19   C     C_R   0.952139 0.493898 0.476729 -0.056362
C20   C     C_R   0.945520 0.276962 0.525594 0.401830
C21   C     C_R   0.038647 0.278554 0.533677 -0.186424
C22   C     C_R   0.089736 0.387199 0.515235 0.025879
C23   C     C_R   0.045994 0.493247 0.476509 -0.002638
C24   C     C_R   0.095936 0.600159 0.442270 -0.086379
C25   C     C_R   0.051082 0.706869 0.412802 0.346660
C26   C     C_R   0.959261 0.695853 0.382741 0.191020
H1    H     H_    0.590698 0.118321 0.357858 0.208447
H2    H     H_    0.210857 0.927568 0.593754 0.400653
H3    H     H_    0.432319 0.088634 0.538812 0.190252
H4    H     H_    0.440338 0.528072 0.880992 0.235223
H5    H     H_    0.611346 0.613958 0.131899 0.177682
H6    H     H_    0.070024 0.192101 0.545459 0.229260
H7    H     H_    0.746662 0.776513 0.660918 0.391690
H8    H     H_    0.597480 0.873390 0.869894 0.397501
H9    H     H_    0.336589 0.242736 0.158686 0.386870
H10   H     H_    0.819234 0.028243 0.634318 0.414473
I1    I     I_    0.700597 0.578737 0.881801 -0.176135
I2    I     I_    0.752269 0.285338 0.689189 -0.095931
I3    I     I_    0.253381 0.238392 0.604448 -0.209998
I4    I     I_    0.260079 0.719436 0.308511 -0.119815
I5    I     I_    0.916509 0.778163 0.203225 0.006042
I6    I     I_    0.514774 0.879282 0.200615 -0.147284
N1    N     N_2   0.500970 0.501330 0.852150 -0.155259
N2    N     N_2   0.500990 0.501360 0.147810 0.046214
O1    O     O_R   0.499990 0.319060 0.613040 -0.560227
O2    O     O_2   0.701496 0.751047 0.329824 -0.277773
O3    O     O_3   0.701801 0.759743 0.586119 -0.539145
O4    O     O_2   0.613557 0.042400 0.680472 -0.255016
O5    O     O_2   0.461601 0.974430 0.735783 -0.274834
O6    O     O_3   0.589948 0.830583 0.781840 -0.494328
O7    O     O_2   0.341728 0.448733 0.020579 -0.294411
O8    O     O_2   0.460453 0.302941 0.986490 -0.260066
O9    O     O_3   0.379879 0.303890 0.204492 -0.485122
O10   O     O_2   0.796423 0.147032 0.425527 -0.287598
O11   O     O_2   0.941300 0.062727 0.391192 -0.163835
O12   O     O_R   0.500010 0.319100 0.386900 -0.570812
O13   O     O_3   0.883135 0.055109 0.628587 -0.462214
O14   O     O_2   0.111416 0.936348 0.363337 -0.240553
O15   O     O_2   0.026762 0.907580 0.561544 -0.189605
O16   O     O_3   0.189887 0.841625 0.569682 -0.537382
O17   O     O_R   0.367830 0.499950 0.613080 -0.602893
O18   O     O_R   0.367860 0.499990 0.386940 -0.559408
O19   O     O_R   0.499990 0.680900 0.613100 -0.546372
O20   O     O_R   0.500010 0.680940 0.386960 -0.613451
O21   O     O_R   0.632140 0.500010 0.613060 -0.579666
O22   O     O_R   0.632170 0.500050 0.386920 -0.615838
O23   O     O_2   0.828112 0.856224 0.456517 -0.197659
S1    S     S_3+6 0.762330 0.747838 0.452291 0.051853
S2    S     S_3+6 0.547109 0.934360 0.680167 0.078571
S3    S     S_3+6 0.420802 0.388872 0.084167 0.141531
S4    S     S_3+6 0.888747 0.132860 0.487956 0.123294
S5    S     S_3+6 0.094535 0.853153 0.475841 0.094140
Zn1   Zn    Zn3+2 0.499980 0.499970 0.650990 1.116021
Zn2   Zn    Zn3+2 0.500020 0.500030 0.349010 1.128049

loop_
_geom_bond_atom_site_label_1
_geom_bond_atom_site_label_2
_ccdc_geom_bond_type
C7    S2    S    
C7    C13   S    
C19   C23   A    
C23   C24   A    
C10   N1    D    
C20   S4    S    
N1    Zn1   S    
C6    C7    D    
O7    S3    D    
H9    O9    S    
O4    S2    D    
C13   O19   A    
C12   C15   A    
C9    H3    S    
O15   S5    D    
N2    S3    S    
C1    O1    A    
C20   C21   A    
C2    C3    A    
C14   O22   A    
C11   H5    S    
C11   N2    D    
C25   S5    S    
O5    S2    D    
C2    C22   A    
O13   S4    S    
O2    S1    D    
C13   O20   A    
O14   S5    D    
C16   C17   A    
C5    C24   A    
C10   I1    S    
C15   S1    S    
C2    I3    S    
C12   C19   A    
C21   C22   A    
O23   S1    D    
O6    S2    S    
O9    S3    S    
C17   C18   A    
C1    O12   A    
C18   C20   A    
C17   I2    S    
H2    O16   S    
H7    O3    S    
C21   H6    S    
C14   C16   S    
H4    N1    S    
H8    O6    S    
O8    S3    D    
C10   C11   S    
O16   S5    S    
C15   C16   A    
O22   Zn2   S    
C1    C9    S    
C4    O18   A    
O3    S1    S    
N2    Zn2   S    
O12   Zn2   S    
C24   C25   A    
H10   O13   S    
O1    Zn1   S    
C18   C19   A    
C6    I6    S    
O21   Zn1   S    
C8    H1    S    
O20   Zn2   S    
C22   C23   A    
O18   Zn2   S    
C6    C8    S    
O19   Zn1   S    
O17   Zn1   S    
C25   C26   A    
C5    I4    S    
C4    O17   A    
C14   O21   A    
O11   S4    D    
O10   S4    D    
C3    C4    S    
C26   I5    S    
C12   C26   A    
C8    C9    D    
C3    C5    A    
