data_mof_unit_33685.cif
_audit_creation_date              2012-12-10T19:44:57-0500
_audit_creation_method            fapswitch 2.2
_symmetry_space_group_name_H-M    P1
_symmetry_Int_Tables_number       1
_space_group_crystal_system       triclinic
_cell_length_a                    15.071912
_cell_length_b                    10.823892
_cell_length_c                    13.752964
_cell_angle_alpha                 90.765488
_cell_angle_beta                  89.129549
_cell_angle_gamma                 88.786932
_cell_volume                      2242.64206239

loop_
_atom_site_label
_atom_site_type_symbol
_atom_type_description
_atom_site_fract_x
_atom_site_fract_y
_atom_site_fract_z
_atom_type_partial_charge
C1    C     C_R   0.498472 0.262313 0.499391 0.849947
C2    C     C_R   0.501536 0.737687 0.500609 0.849932
C3    C     C_R   0.048895 0.518161 0.323738 -0.155002
C4    C     C_R   0.951105 0.481822 0.676263 -0.155008
C5    C     C_R   0.291783 0.243540 0.274612 -0.185479
C6    C     C_R   0.708194 0.756475 0.725450 -0.185481
C7    C     C_R   0.330910 0.182329 0.352678 0.342574
C8    C     C_R   0.669088 0.817674 0.647366 0.342587
C9    C     C_R   0.413745 0.120845 0.339401 0.035360
C10   C     C_R   0.586250 0.879157 0.660611 0.035353
C11   C     C_R   0.454426 0.117944 0.246849 -0.185391
C12   C     C_R   0.545543 0.882067 0.753151 -0.185363
C13   C     C_R   0.414857 0.179126 0.169337 -0.162525
C14   C     C_R   0.585091 0.820895 0.830680 -0.162514
C15   C     C_R   0.334089 0.243116 0.183395 0.395383
C16   C     C_R   0.665863 0.756907 0.816653 0.395381
C17   C     C_R   0.463388 0.932961 0.423589 -0.187559
C18   C     C_R   0.536635 0.067040 0.576404 -0.187554
C19   C     C_R   0.502663 0.871590 0.501447 -0.045292
C20   C     C_R   0.497356 0.128410 0.498549 -0.045281
C21   C     C_R   0.540456 0.939020 0.578464 0.080291
C22   C     C_R   0.459562 0.060979 0.421533 0.080289
C23   C     C_R   0.328554 0.501080 0.500539 0.868423
C24   C     C_R   0.671445 0.498920 0.499461 0.868405
C25   C     C_R   0.556596 0.422476 0.791154 0.001181
C26   C     C_R   0.443400 0.577518 0.208846 0.001191
C27   C     C_R   0.442692 0.577835 0.795708 0.516535
C28   C     C_R   0.557305 0.422162 0.204291 0.516541
C29   C     C_R   0.441807 0.579637 0.898865 -0.106130
C30   C     C_R   0.558187 0.420354 0.101135 -0.106118
C31   C     C_R   0.499960 0.499848 0.948191 0.035815
C32   C     C_R   0.500034 0.500144 0.051809 0.035804
C33   C     C_R   0.557991 0.419854 0.894016 -0.038935
C34   C     C_R   0.442001 0.580134 0.105984 -0.038937
C35   C     C_R   0.384557 0.659393 0.953896 -0.162153
C36   C     C_R   0.615429 0.340589 0.046104 -0.162135
C37   C     C_R   0.384368 0.660156 0.055752 0.383657
C38   C     C_R   0.615617 0.339822 0.944248 0.383634
C39   C     C_R   0.813513 0.488513 0.587161 -0.209916
C40   C     C_R   0.186486 0.511489 0.412843 -0.209998
C41   C     C_R   0.768334 0.497636 0.498958 -0.043307
C42   C     C_R   0.231665 0.502347 0.501044 -0.043314
C43   C     C_R   0.815892 0.506707 0.411022 -0.136348
C44   C     C_R   0.184108 0.493243 0.588978 -0.136301
C45   C     C_R   0.908365 0.507561 0.410803 0.089367
C46   C     C_R   0.091634 0.492381 0.589194 0.089373
C47   C     C_R   0.953518 0.499310 0.499754 0.075888
C48   C     C_R   0.046482 0.500633 0.500244 0.075896
C49   C     C_R   0.905804 0.489762 0.588226 0.101236
C50   C     C_R   0.094196 0.510205 0.411774 0.101230
C51   C     C_R   0.956422 0.516876 0.323260 -0.148969
C52   C     C_R   0.043578 0.483081 0.676740 -0.148976
Cu1   Cu    Cu3+1 0.500010 0.499980 0.597420 1.021723
Cu2   Cu    Cu3+1 0.499990 0.500020 0.402580 1.021720
H1    H     H_    0.776966 0.480755 0.655264 0.171865
H2    H     H_    0.223035 0.519294 0.344748 0.171893
H3    H     H_    0.433352 0.881033 0.365106 0.171805
H4    H     H_    0.566669 0.118970 0.634888 0.171809
H5    H     H_    0.600438 0.362726 0.747927 0.187217
H6    H     H_    0.399557 0.637267 0.252074 0.187218
H7    H     H_    0.339179 0.722600 0.918757 0.228682
H8    H     H_    0.660802 0.277374 0.081243 0.228681
H9    H     H_    0.781103 0.513837 0.342827 0.188193
H10   H     H_    0.218898 0.486105 0.657171 0.188179
H11   H     H_    0.922499 0.523213 0.254534 0.177644
H12   H     H_    0.077501 0.476761 0.745466 0.177641
H13   H     H_    0.084990 0.525335 0.255355 0.184904
H14   H     H_    0.915011 0.474687 0.744652 0.184876
H15   H     H_    0.228404 0.291232 0.284766 0.186262
H16   H     H_    0.771578 0.708786 0.715320 0.186258
H17   H     H_    0.517740 0.070376 0.235286 0.198864
H18   H     H_    0.482226 0.929636 0.764691 0.198870
H19   H     H_    0.447531 0.177878 0.098670 0.182615
H20   H     H_    0.552396 0.822147 0.901336 0.182615
N1    N     N_R   0.499960 0.499900 0.743810 -0.227109
N2    N     N_R   0.500040 0.500100 0.256190 -0.227109
O1    O     O_R   0.500000 0.319630 0.582270 -0.594013
O2    O     O_R   0.500000 0.680370 0.417730 -0.594020
O3    O     O_R   0.499990 0.319660 0.417730 -0.543039
O4    O     O_R   0.500010 0.680340 0.582270 -0.543036
O5    O     O_R   0.370260 0.499960 0.582280 -0.533444
O6    O     O_R   0.629740 0.500040 0.417720 -0.533457
O7    O     O_R   0.370250 0.499990 0.417740 -0.609484
O8    O     O_R   0.629750 0.500010 0.582260 -0.609485
Cl1   Cl    Cl    0.369280 0.677948 0.734161 -0.618842
Cl2   Cl    Cl    0.630718 0.322050 0.265838 -0.618845
Cl3   Cl    Cl    0.310537 0.764058 0.117203 -0.593284
Cl4   Cl    Cl    0.689429 0.235894 0.882798 -0.593295
Cl5   Cl    Cl    0.285768 0.322597 0.086582 -0.580854
Cl6   Cl    Cl    0.714157 0.677437 0.913488 -0.580864
Cl7   Cl    Cl    0.274084 0.182177 0.465454 -0.608331
Cl8   Cl    Cl    0.725948 0.817823 0.534610 -0.608312

loop_
_geom_bond_atom_site_label_1
_geom_bond_atom_site_label_2
_ccdc_geom_bond_type
C16   Cl6   S    
C27   C29   A    
C18   C21   A    
C1    O1    A    
C43   H9    S    
C39   C41   A    
Cu1   Cu2   S    
C44   H10   S    
C23   C42   S    
C23   O7    A    
C4    C52   A    
Cu1   O8    S    
C14   H20   S    
C19   C21   A    
C36   H8    S    
C9    C22   S    
C45   C51   A    
C34   C37   A    
C46   C52   A    
Cu1   O5    S    
C51   H11   S    
C27   Cl1   S    
C24   O6    A    
C5    H15   S    
C26   C34   A    
C39   H1    S    
C31   C32   A    
C40   H2    S    
C26   N2    A    
C31   C33   A    
C8    Cl8   S    
C40   C42   A    
C12   H18   S    
C24   C41   S    
C41   C43   A    
Cu1   N1    S    
C42   C44   A    
C27   N1    A    
Cu2   O7    S    
C3    C50   A    
C44   C46   A    
C45   C47   A    
C10   C21   S    
C46   C48   A    
Cu1   O4    S    
C47   C49   A    
C5    C7    A    
C3    C51   A    
C6    C8    A    
C38   Cl4   S    
C25   N1    A    
C32   C34   A    
Cu1   O1    S    
C2    O2    A    
C15   Cl5   S    
C43   C45   A    
C47   C48   A    
C7    Cl7   S    
C35   H7    S    
C48   C50   A    
C9    C11   A    
C10   C12   A    
Cu2   N2    S    
C39   C49   A    
C13   H19   S    
C13   C15   A    
C28   Cl2   S    
C1    O3    A    
C14   C16   A    
C28   N2    A    
Cu2   O6    S    
C52   H12   S    
C4    H14   S    
Cu2   O3    S    
C6    H16   S    
C1    C20   S    
C23   O5    A    
C35   C37   A    
C2    C19   S    
C37   Cl3   S    
C3    H13   S    
C17   C22   A    
C20   C22   A    
C29   C35   A    
C33   C38   A    
C30   C36   A    
C4    C49   A    
C36   C38   A    
C12   C14   A    
C29   C31   A    
C30   C32   A    
C11   C13   A    
C40   C50   A    
C28   C30   A    
C17   C19   A    
C18   H4    S    
C18   C20   A    
C24   O8    A    
C5    C15   A    
C2    O4    A    
C6    C16   A    
C7    C9    A    
C8    C10   A    
C17   H3    S    
C25   H5    S    
C26   H6    S    
C11   H17   S    
C25   C33   A    
Cu2   O2    S    
