data_mof_unit_29543.cif
_audit_creation_date              2012-12-10T17:03:28-0500
_audit_creation_method            fapswitch 2.2
_symmetry_space_group_name_H-M    P1
_symmetry_Int_Tables_number       1
_space_group_crystal_system       triclinic
_cell_length_a                    14.996865
_cell_length_b                    11.236115
_cell_length_c                    9.881855
_cell_angle_alpha                 110.161888
_cell_angle_beta                  98.254973
_cell_angle_gamma                 92.096735
_cell_volume                      1540.2703589

loop_
_atom_site_label
_atom_site_type_symbol
_atom_type_description
_atom_site_fract_x
_atom_site_fract_y
_atom_site_fract_z
_atom_type_partial_charge
C1    C     C_R   0.502517 0.257096 0.443113 0.841750
C2    C     C_R   0.498642 0.743237 0.556873 0.837190
C3    C     C_R   0.030857 0.270937 0.393686 0.042852
C4    C     C_R   0.972819 0.739055 0.641610 0.032339
C5    C     C_2   0.508838 0.121745 0.414307 -0.406541
C6    C     C_2   0.495042 0.878955 0.585318 -0.406585
C7    C     C_2   0.521783 0.068046 0.518965 0.172411
C8    C     C_2   0.482548 0.932439 0.480340 0.170897
C9    C     C_2   0.484320 0.529250 0.081477 -0.063888
C10   C     C_2   0.480979 0.503422 0.917877 -0.050781
C11   C     C_R   0.329059 0.501475 0.501597 0.797296
C12   C     C_R   0.670955 0.501800 0.499243 0.789726
C13   C     C_R   0.822635 0.615256 0.577129 -0.246680
C14   C     C_R   0.175125 0.395415 0.421867 -0.245852
C15   C     C_R   0.767543 0.504306 0.497980 -0.053460
C16   C     C_R   0.232575 0.502890 0.505084 -0.065139
C17   C     C_R   0.804167 0.394785 0.422121 -0.241401
C18   C     C_R   0.198121 0.609794 0.594163 -0.242566
C19   C     C_R   0.897622 0.387255 0.443504 0.092139
C20   C     C_R   0.104491 0.619897 0.578190 0.086260
C21   C     C_R   0.954201 0.504296 0.510658 -0.006001
C22   C     C_R   0.047204 0.504659 0.510146 -0.013282
C23   C     C_R   0.916990 0.620588 0.578125 0.064571
C24   C     C_R   0.083899 0.389351 0.439348 0.078292
C25   C     C_R   0.936554 0.268307 0.400617 0.048839
C26   C     C_R   0.067290 0.739444 0.629566 0.068936
Cu1   Cu    Cu3+1 0.515770 0.521810 0.644910 0.919697
Cu2   Cu    Cu3+1 0.484230 0.478190 0.355090 0.919087
H1    H     H_    0.788372 0.697343 0.629648 0.118411
H2    H     H_    0.204322 0.315001 0.352031 0.144481
H3    H     H_    0.758128 0.317815 0.346389 0.134885
H4    H     H_    0.244945 0.683510 0.674226 0.142013
H5    H     H_    0.516024 0.936807 0.699332 0.159630
H6    H     H_    0.489011 0.063746 0.300055 0.157561
H7    H     H_    0.426932 0.436860 0.841739 0.154474
H8    H     H_    0.508560 0.623900 0.157248 0.133697
N1    N     N_2   0.460520 0.445420 0.137370 -0.171889
N2    N     N_2   0.539480 0.554580 0.862630 -0.166905
O1    O     O_R   0.508410 0.332340 0.577400 -0.590457
O2    O     O_R   0.491590 0.667660 0.422600 -0.596749
O3    O     O_R   0.481780 0.295500 0.332650 -0.595964
O4    O     O_R   0.518220 0.704500 0.667350 -0.588052
O5    O     O_R   0.383570 0.518390 0.622380 -0.582554
O6    O     O_R   0.616430 0.481610 0.377620 -0.575914
O7    O     O_R   0.356940 0.481550 0.377630 -0.585285
O8    O     O_R   0.643060 0.518450 0.622370 -0.600624
C27   C     C_3   0.887931 0.137935 0.380350 -0.398160
C28   C     C_3   0.787880 0.120243 0.394072 -0.363747
C29   C     C_3   0.766289 0.992392 0.410158 -0.889673
H9    H     H_    0.792918 0.914530 0.327287 0.262474
H10   H     H_    0.798298 0.995044 0.519326 0.251702
H11   H     H_    0.691952 0.971804 0.397264 0.263958
H12   H     H_    0.771680 0.195893 0.491920 0.233275
H13   H     H_    0.744161 0.118342 0.292458 0.214256
H14   H     H_    0.895949 0.069162 0.271852 0.200163
H15   H     H_    0.925227 0.107354 0.466581 0.206235
C30   C     C_3   0.119959 0.866071 0.649232 -0.402372
C31   C     C_3   0.209644 0.871076 0.591205 -0.362506
C32   C     C_3   0.229130 0.999560 0.575607 -0.914037
H16   H     H_    0.188836 0.999436 0.472888 0.257989
H17   H     H_    0.212032 0.079032 0.669272 0.265707
H18   H     H_    0.302017 0.015584 0.571961 0.268166
H19   H     H_    0.267229 0.864820 0.671602 0.222029
H20   H     H_    0.207757 0.794462 0.483365 0.234859
H21   H     H_    0.073650 0.911447 0.587716 0.218096
H22   H     H_    0.135092 0.924335 0.766793 0.186072
C33   C     C_3   0.078312 0.148347 0.350495 -0.421327
C34   C     C_3   0.079126 0.094882 0.185946 -0.349448
C35   C     C_3   0.153228 0.005413 0.151096 -0.892657
H23   H     H_    0.219997 0.060933 0.198161 0.265315
H24   H     H_    0.145216 0.928670 0.196395 0.267641
H25   H     H_    0.150564 0.960668 0.031615 0.235559
H26   H     H_    0.012633 0.041523 0.130396 0.227752
H27   H     H_    0.090543 0.172829 0.143406 0.228391
H28   H     H_    0.147934 0.166469 0.413103 0.203037
H29   H     H_    0.048889 0.072897 0.383248 0.180039
C36   C     C_3   0.923839 0.858458 0.713389 -0.402013
C37   C     C_3   0.973242 0.990170 0.804759 -0.399116
C38   C     C_3   0.908696 0.081069 0.884514 -0.877247
H30   H     H_    0.856167 0.098095 0.804085 0.263552
H31   H     H_    0.875639 0.041776 0.955735 0.251042
H32   H     H_    0.946846 0.173783 0.953739 0.247836
H33   H     H_    0.026494 0.980159 0.887821 0.234631
H34   H     H_    0.001359 0.036459 0.735778 0.222322
H35   H     H_    0.873397 0.870728 0.626700 0.196486
H36   H     H_    0.887220 0.834400 0.791764 0.207385
C39   C     C_3   0.430062 0.859173 0.324774 -0.351972
C40   C     C_3   0.343638 0.917139 0.286160 -0.920138
H37   H     H_    0.344858 0.020027 0.349577 0.261679
H38   H     H_    0.332977 0.902776 0.167815 0.252586
H39   H     H_    0.284433 0.867856 0.306874 0.263094
H40   H     H_    0.475924 0.853081 0.244225 0.169124
H41   H     H_    0.404209 0.760796 0.304044 0.243318
C41   C     C_3   0.575029 0.140971 0.673946 -0.346182
C42   C     C_3   0.662539 0.083374 0.709438 -0.911392
H42   H     H_    0.675891 0.098053 0.827853 0.246962
H43   H     H_    0.661269 0.980304 0.646362 0.261667
H44   H     H_    0.719954 0.133382 0.685522 0.253868
H45   H     H_    0.599087 0.240324 0.695212 0.242994
H46   H     H_    0.530290 0.145271 0.755340 0.172704
C43   C     C_3   0.603780 0.659067 0.966545 -0.166198
C44   C     C_3   0.686418 0.689144 0.905166 -0.277492
C45   C     C_3   0.753274 0.790562 0.022617 -0.984180
H47   H     H_    0.719697 0.878190 0.071409 0.269575
H48   H     H_    0.781315 0.753014 0.108453 0.263419
H49   H     H_    0.810225 0.815172 0.974068 0.251031
H50   H     H_    0.722437 0.602193 0.866278 0.237480
H51   H     H_    0.666092 0.726139 0.816148 0.249709
H52   H     H_    0.567797 0.746324 0.005259 0.150791
H53   H     H_    0.632391 0.633619 0.062193 0.155498
C46   C     C_3   0.444908 0.310758 0.044258 -0.116411
C47   C     C_3   0.348030 0.258148 0.036930 -0.323891
C48   C     C_3   0.335997 0.113677 0.961406 -0.939880
H54   H     H_    0.357595 0.085859 0.852692 0.264531
H55   H     H_    0.376878 0.067758 0.029207 0.259134
H56   H     H_    0.263733 0.079135 0.946290 0.257951
H57   H     H_    0.331145 0.281753 0.148315 0.252841
H58   H     H_    0.300221 0.301956 0.975203 0.199737
H59   H     H_    0.457835 0.290280 0.931518 0.110368
H60   H     H_    0.494441 0.256812 0.087887 0.193149

loop_
_geom_bond_atom_site_label_1
_geom_bond_atom_site_label_2
_ccdc_geom_bond_type
C39   C40   S    
C43   C44   S    
C42   H42   S    
C30   H22   S    
C42   H44   S    
C7    C8    S    
C36   C37   S    
C28   H13   S    
C1    C5    S    
C41   H45   S    
C13   H1    S    
C19   C21   A    
N2    C43   S    
C35   H23   S    
C47   H57   S    
Cu2   O2    S    
Cu1   N2    S    
C43   H52   S    
Cu2   O3    S    
C13   C23   A    
C46   H59   S    
C14   C24   A    
C35   H24   S    
C37   H33   S    
C46   C47   S    
Cu1   O1    S    
C34   C35   S    
C29   H10   S    
C9    H8    S    
C12   C15   S    
C44   H51   S    
C10   H7    S    
C9    C10   S    
C25   C27   S    
C18   C20   A    
C48   H56   S    
C36   H35   S    
C32   H16   S    
C21   C22   A    
C3    C24   A    
C2    C6    S    
C14   H2    S    
C47   C48   S    
C31   H20   S    
C28   H12   S    
Cu2   O7    S    
C32   H17   S    
C33   C34   S    
C3    C25   A    
C12   O8    A    
C30   H21   S    
C5    C7    D    
C4    C23   A    
C37   C38   S    
C6    C8    D    
C43   H53   S    
Cu2   O6    S    
C37   H34   S    
C46   H60   S    
C35   H25   S    
Cu1   O5    S    
C11   C16   S    
C27   C28   S    
C40   H39   S    
C41   H46   S    
C29   H11   S    
C5    H6    S    
C9    N1    D    
C44   H50   S    
C45   H48   S    
C11   O5    A    
Cu1   O8    S    
C1    O3    A    
C28   C29   S    
C20   C22   A    
C36   H36   S    
C41   C42   S    
C13   C15   A    
C17   H3    S    
C14   C16   A    
C11   O7    A    
C33   H28   S    
C45   H47   S    
C27   H14   S    
C48   H54   S    
C31   H19   S    
C15   C17   A    
C7    C41   S    
C32   H18   S    
C3    C33   S    
C40   H38   S    
C38   H32   S    
C4    C26   A    
C42   H43   S    
C38   H31   S    
C6    H5    S    
C10   N2    D    
C8    C39   S    
C21   C23   A    
C34   H26   S    
C4    C36   S    
C12   O6    A    
C47   H58   S    
Cu1   O4    S    
C30   C31   S    
C20   C26   A    
Cu2   N1    S    
C2    O4    A    
C39   H41   S    
C17   C19   A    
C45   H49   S    
C22   C24   A    
C44   C45   S    
C19   C25   A    
C26   C30   S    
C31   C32   S    
N1    C46   S    
C1    O1    A    
C38   H30   S    
C2    O2    A    
C18   H4    S    
C40   H37   S    
C16   C18   A    
C29   H9    S    
Cu1   Cu2   S    
C33   H29   S    
C39   H40   S    
C34   H27   S    
C27   H15   S    
C48   H55   S    
