data_mof_unit_18100.cif
_audit_creation_date              2012-12-10T18:45:33-0500
_audit_creation_method            fapswitch 2.2
_symmetry_space_group_name_H-M    P1
_symmetry_Int_Tables_number       1
_space_group_crystal_system       triclinic
_cell_length_a                    18.088813
_cell_length_b                    18.186083
_cell_length_c                    43.026884
_cell_angle_alpha                 90.030651
_cell_angle_beta                  90.098633
_cell_angle_gamma                 90.028392
_cell_volume                      14154.2992906

loop_
_atom_site_label
_atom_site_type_symbol
_atom_type_description
_atom_site_fract_x
_atom_site_fract_y
_atom_site_fract_z
_atom_type_partial_charge
C1    C     C_R   0.500347 0.000175 0.334370 0.562654
C2    C     C_R   0.498525 0.000060 0.868905 -0.056759
C3    C     C_3   0.764534 0.267774 0.220452 0.210211
C4    C     C_3   0.261866 0.225874 0.779597 0.190381
C5    C     C_3   0.699923 0.733682 0.228112 0.215701
C6    C     C_3   0.736458 0.296389 0.773593 0.208614
C7    C     C_3   0.229600 0.737769 0.220168 0.200415
C8    C     C_R   0.476956 0.065602 0.114470 0.206704
C9    C     C_R   0.474090 0.937355 0.885587 0.221440
C10   C     C_R   0.932275 0.501199 0.113927 0.219672
C11   C     C_R   0.070065 0.502403 0.885839 0.215178
C12   C     C_R   0.511774 0.936162 0.113816 0.228327
C13   C     C_R   0.997452 0.486593 0.131283 -0.057293
C14   C     C_R   0.521033 0.063159 0.885811 0.219942
C15   C     C_R   0.059160 0.456145 0.115645 0.218448
C16   C     C_R   0.936666 0.523677 0.886223 0.221411
C17   C     C_R   0.976151 0.561132 0.614018 0.199136
C18   C     C_R   0.973489 0.439187 0.385670 0.211883
C19   C     C_R   0.440971 0.022185 0.613470 0.221542
C20   C     C_R   0.567957 0.019090 0.384975 0.224009
C21   C     C_R   0.033415 0.439164 0.614822 0.211945
C22   C     C_R   0.037911 0.557412 0.385374 0.208127
C23   C     C_R   0.557956 0.955195 0.615900 0.219839
C24   C     C_R   0.002129 0.507870 0.869260 -0.052787
C25   C     C_R   0.441139 0.972569 0.386110 0.191638
C26   C     C_R   0.467430 0.062933 0.082015 0.216751
C27   C     C_R   0.464768 0.941377 0.917988 0.219973
C28   C     C_R   0.933303 0.495942 0.081312 0.222337
C29   C     C_R   0.071195 0.508606 0.918512 0.216115
C30   C     C_R   0.520267 0.939905 0.081424 0.221545
C31   C     C_R   0.527603 0.059841 0.918326 0.219627
C32   C     C_R   0.062337 0.457505 0.082866 0.220405
C33   C     C_R   0.937168 0.521620 0.919064 0.223784
C34   C     C_R   0.970260 0.556478 0.581409 0.216634
C35   C     C_R   0.003067 0.499978 0.631104 -0.038017
C36   C     C_R   0.967827 0.443281 0.418290 0.215737
C37   C     C_R   0.444567 0.021880 0.580754 0.220692
C38   C     C_R   0.571525 0.014397 0.417747 0.211209
C39   C     C_R   0.043712 0.443676 0.582393 0.214889
C40   C     C_R   0.048239 0.551383 0.417806 0.213623
C41   C     C_R   0.561638 0.955374 0.583261 0.223382
C42   C     C_R   0.446336 0.964206 0.418640 0.197227
C43   C     C_R   0.494421 0.002061 0.065374 -0.046143
C44   C     C_R   0.495717 0.000649 0.934485 -0.048602
C45   C     C_R   0.000487 0.481768 0.065825 -0.051716
C46   C     C_R   0.003416 0.499276 0.368864 -0.038668
C47   C     C_R   0.004380 0.512231 0.935008 -0.030134
C48   C     C_R   0.007814 0.499826 0.565668 -0.031089
C49   C     C_R   0.008487 0.497478 0.434318 -0.034699
C50   C     C_R   0.505751 0.989676 0.565807 -0.041539
C51   C     C_R   0.509647 0.988835 0.434565 -0.044859
C52   C     C_3   0.153450 0.155952 0.309248 0.001722
C53   C     C_3   0.123475 0.084522 0.322257 -0.404319
C54   C     C_3   0.857128 0.850405 0.696091 0.005161
C55   C     C_3   0.888305 0.921261 0.682842 -0.393832
C56   C     C_3   0.867045 0.127550 0.289874 0.001354
C57   C     C_R   0.499415 0.992026 0.631279 -0.053281
C58   C     C_3   0.941871 0.093681 0.296734 -0.402188
C59   C     C_3   0.113748 0.888975 0.750708 0.024982
C60   C     C_3   0.044888 0.920574 0.735507 -0.389574
C61   C     C_3   0.886828 0.878687 0.229764 0.010476
C62   C     C_3   0.922529 0.954148 0.231456 -0.379360
C63   C     C_3   0.123377 0.131087 0.711648 0.013336
C64   C     C_3   0.100974 0.083497 0.684175 -0.411827
C65   C     C_3   0.136585 0.860421 0.298302 0.009267
C66   C     C_3   0.061913 0.897477 0.302840 -0.402055
C67   C     C_3   0.884285 0.110717 0.757534 0.024598
C68   C     C_R   0.502629 0.997866 0.368989 -0.034339
C69   C     C_3   0.943687 0.078828 0.778586 -0.376793
C70   C     C_3   0.637641 0.651734 0.801900 -0.001446
C71   C     C_3   0.605254 0.581676 0.815372 -0.407634
C72   C     C_3   0.345028 0.341122 0.189540 0.013573
C73   C     C_3   0.374574 0.410166 0.174180 -0.394764
C74   C     C_3   0.387537 0.612894 0.745649 0.020597
C75   C     C_3   0.459189 0.579703 0.757333 -0.393159
C76   C     C_3   0.623137 0.379038 0.219749 0.030714
C77   C     C_3   0.575758 0.403770 0.192543 -0.402408
C78   C     C_3   0.367940 0.345174 0.800274 0.014174
C79   C     C_R   0.009603 0.497893 0.468536 0.415336
C80   C     C_3   0.413400 0.413150 0.807730 -0.399799
C81   C     C_3   0.612622 0.621920 0.271840 0.009926
C82   C     C_3   0.574294 0.547855 0.269161 -0.382423
C83   C     C_3   0.615409 0.389159 0.741428 0.026899
C84   C     C_3   0.562385 0.418709 0.717017 -0.370826
C85   C     C_3   0.362401 0.638599 0.201725 0.017327
C86   C     C_3   0.437228 0.602859 0.195925 -0.396998
C87   C     C_3   0.291447 0.292372 0.328558 0.001990
C88   C     C_3   0.268855 0.313024 0.361462 -0.386867
C89   C     C_3   0.745503 0.627871 0.686134 -0.020988
C90   C     C_R   0.009275 0.499114 0.531479 0.417340
C91   C     C_3   0.791048 0.587892 0.661796 -0.337141
C92   C     C_3   0.752232 0.257476 0.332113 0.006060
C93   C     C_3   0.752292 0.220678 0.363874 -0.372083
C94   C     C_3   0.183395 0.808635 0.676884 0.003556
C95   C     C_3   0.171807 0.863681 0.650790 -0.401821
C96   C     C_3   0.838959 0.846115 0.310980 0.024335
C97   C     C_3   0.836888 0.832927 0.345899 -0.386302
C98   C     C_3   0.251097 0.257141 0.668289 0.014835
C99   C     C_3   0.256212 0.300918 0.638276 -0.359488
C100  C     C_3   0.265873 0.725867 0.330902 0.015007
C101  C     C_R   0.509712 0.989454 0.468855 0.365631
C102  C     C_3   0.275000 0.753362 0.364025 -0.382114
C103  C     C_3   0.826672 0.179181 0.680734 0.011430
C104  C     C_3   0.855422 0.116252 0.660888 -0.385971
C105  C     C_3   0.756318 0.871130 0.813665 -0.005138
C106  C     C_3   0.712700 0.912067 0.838392 -0.373937
C107  C     C_3   0.238176 0.117968 0.190134 -0.003985
C108  C     C_3   0.278955 0.076851 0.164586 -0.349178
C109  C     C_3   0.316035 0.682211 0.822238 0.007749
C110  C     C_3   0.317766 0.627071 0.848796 -0.364292
C111  C     C_3   0.746793 0.242620 0.168341 0.017480
C112  C     C_R   0.499811 0.999029 0.665699 0.537111
C113  C     C_R   0.509978 0.989411 0.531772 0.390172
C114  C     C_3   0.744665 0.278726 0.136489 -0.406558
C115  C     C_3   0.228290 0.218805 0.831445 0.005052
C116  C     C_3   0.261456 0.210259 0.863774 -0.398782
C117  C     C_3   0.655839 0.652169 0.191024 0.012300
C118  C     C_3   0.633423 0.656069 0.157006 -0.366612
C119  C     C_3   0.672549 0.324052 0.818547 0.019768
C120  C     C_3   0.645079 0.388946 0.837552 -0.383721
C121  C     C_3   0.231506 0.772704 0.168606 -0.002822
C122  C     C_3   0.224853 0.742155 0.135806 -0.375857
C123  C     C_3   0.528891 0.170878 0.132366 0.017362
C124  C     C_R   0.495130 0.000692 0.968515 0.357403
C125  C     C_3   0.513551 0.243600 0.148415 -0.351660
C126  C     C_3   0.518672 0.827392 0.869224 0.020306
C127  C     C_3   0.496487 0.751320 0.858085 -0.363789
C128  C     C_3   0.824718 0.463712 0.136639 0.032695
C129  C     C_3   0.767414 0.487005 0.160453 -0.331459
C130  C     C_3   0.159842 0.428075 0.865811 0.014597
C131  C     C_3   0.240611 0.428910 0.856196 -0.356198
C132  C     C_3   0.443729 0.839729 0.130349 0.004972
C133  C     C_3   0.447154 0.761203 0.141947 -0.353921
C134  C     C_3   0.475101 0.172393 0.869247 0.021606
C135  C     C_R   0.494573 0.002509 0.031313 0.356815
C136  C     C_3   0.496995 0.249780 0.859829 -0.366075
C137  C     C_3   0.091308 0.353355 0.142195 -0.030773
C138  C     C_3   0.155121 0.311841 0.156826 -0.323091
C139  C     C_3   0.873927 0.614149 0.860985 -0.011933
C140  C     C_3   0.800188 0.633902 0.846485 -0.331352
C141  C     C_3   0.006337 0.673800 0.633383 0.009162
C142  C     C_3   0.976735 0.738895 0.651662 -0.356291
C143  C     C_3   0.004524 0.326813 0.366916 -0.000042
C144  C     C_3   0.977663 0.261660 0.347954 -0.347399
C145  C     C_3   0.321492 0.010634 0.629882 0.030471
C146  C     C_R   0.005178 0.505858 0.969117 0.403378
C147  C     C_3   0.251541 0.056592 0.630618 -0.371597
C148  C     C_3   0.688927 0.009345 0.368189 0.023191
C149  C     C_3   0.728185 0.018262 0.337117 -0.347783
C150  C     C_3   0.004136 0.325966 0.633813 0.005830
C151  C     C_3   0.032396 0.263238 0.653865 -0.346540
C152  C     C_3   0.016813 0.673863 0.368539 0.000122
C153  C     C_3   0.052824 0.740564 0.353769 -0.359380
C154  C     C_3   0.588592 0.852605 0.643411 -0.015169
C155  C     C_3   0.653732 0.808847 0.655848 -0.314416
C156  C     C_3   0.321240 0.005279 0.375615 0.045172
C157  C     C_R   0.004543 0.491168 0.031804 0.394185
C158  C     C_3   0.246542 0.967183 0.377503 -0.371296
C159  C     C_3   0.464296 0.173057 0.055592 0.013174
C160  C     C_3   0.421913 0.207720 0.028786 -0.369161
C161  C     C_3   0.456020 0.833680 0.945893 0.009529
C162  C     C_3   0.410387 0.802328 0.972404 -0.360519
C163  C     C_3   0.842861 0.441860 0.051437 -0.011872
C164  C     C_3   0.805603 0.457256 0.020443 -0.352770
C165  C     C_3   0.176870 0.464194 0.942345 0.009060
C166  C     C_3   0.217167 0.479753 0.972721 -0.359098
C167  C     C_3   0.513426 0.830016 0.055153 0.014186
C168  C     C_R   0.640813 0.142132 0.250428 0.588246
C169  C     C_3   0.553631 0.787219 0.029968 -0.364546
C170  C     C_3   0.531075 0.167279 0.946749 0.010886
C171  C     C_3   0.573276 0.198255 0.974408 -0.364523
C172  C     C_3   0.139244 0.366001 0.065453 0.024288
C173  C     C_3   0.190104 0.349172 0.038242 -0.376249
C174  C     C_3   0.842715 0.594711 0.937206 0.016763
C175  C     C_3   0.796573 0.603878 0.966464 -0.379567
C176  C     C_3   0.938375 0.670701 0.561566 0.025735
C177  C     C_3   0.897239 0.703034 0.533865 -0.368362
C178  C     C_3   0.931084 0.330060 0.437609 0.022524
C179  C     C_R   0.358626 0.858315 0.749790 0.582922
C180  C     C_3   0.887435 0.298420 0.464705 -0.361342
C181  C     C_3   0.341676 0.014358 0.549027 -0.010897
C182  C     C_3   0.323936 0.043731 0.516740 -0.341496
C183  C     C_3   0.675514 0.982422 0.445139 -0.007513
C184  C     C_3   0.747890 0.012181 0.458083 -0.362770
C185  C     C_3   0.080226 0.329730 0.563653 0.020796
C186  C     C_3   0.124423 0.298182 0.536689 -0.365569
C187  C     C_3   0.094729 0.660967 0.437496 0.024076
C188  C     C_3   0.143386 0.687390 0.464161 -0.369755
C189  C     C_3   0.617690 0.854190 0.562002 0.012708
C190  C     C_R   0.857977 0.640966 0.250294 0.585340
C191  C     C_3   0.662397 0.836060 0.533076 -0.365526
C192  C     C_3   0.382237 0.862268 0.433334 0.018336
C193  C     C_3   0.321931 0.834361 0.454918 -0.378606
C194  C     C_R   0.141633 0.358574 0.750224 0.586422
C195  C     C_R   0.358910 0.858100 0.250295 0.573633
C196  C     C_R   0.000687 0.499920 0.334285 0.555558
C197  C     C_R   0.641241 0.141708 0.749747 0.579891
C198  C     C_R   0.141745 0.358721 0.250001 0.575531
C199  C     C_R   0.858253 0.641208 0.750031 0.556487
C200  C     C_R   0.141322 0.641644 0.750155 0.589361
C201  C     C_R   0.859077 0.358009 0.249627 0.585482
C202  C     C_R   0.357895 0.140841 0.750046 0.586178
C203  C     C_R   0.641821 0.858862 0.249818 0.585827
C204  C     C_R   0.858773 0.358316 0.750229 0.578266
C205  C     C_R   0.140989 0.641960 0.249637 0.583719
C206  C     C_R   0.641509 0.858737 0.749836 0.550565
C207  C     C_R   0.000538 0.499991 0.665703 0.542063
C208  C     C_R   0.358796 0.141634 0.250221 0.554995
C209  C     C_3   0.230886 0.198366 0.270569 0.196059
C210  C     C_3   0.773193 0.804855 0.731510 0.206947
C211  C     C_3   0.810484 0.223105 0.263811 0.208124
C212  C     C_3   0.183292 0.782370 0.749531 0.200346
C213  C     C_3   0.782081 0.814549 0.243841 0.193437
C214  C     C_3   0.223227 0.192520 0.733132 0.203345
C215  C     C_3   0.191758 0.774091 0.266224 0.210377
C216  C     C_3   0.816063 0.217995 0.753889 0.201087
C217  C     C_3   0.725949 0.695392 0.767900 0.216878
C218  C     C_R   0.000396 0.501507 0.834473 0.516040
C219  C     C_3   0.269752 0.301925 0.229602 0.225324
C220  C     C_3   0.316437 0.717482 0.750239 0.198639
C221  C     C_3   0.689048 0.277444 0.236388 0.213727
C222  C     C_3   0.274959 0.304770 0.767665 0.214500
C223  C     C_3   0.717185 0.684904 0.256485 0.188793
C224  C     C_3   0.684022 0.282065 0.746012 0.203452
C225  C     C_3   0.307937 0.726022 0.233447 0.209188
C226  C     C_3   0.185406 0.220765 0.241805 0.142734
C227  C     C_3   0.813216 0.777109 0.760862 0.151633
C228  C     C_3   0.773109 0.190816 0.234744 0.140843
C229  C     C_R   0.999506 0.497768 0.165658 0.539712
C230  C     C_3   0.241949 0.792644 0.775043 0.142014
C231  C     C_3   0.782630 0.746846 0.222422 0.146844
C232  C     C_3   0.186538 0.222597 0.762833 0.131828
C233  C     C_3   0.223386 0.811843 0.237257 0.145300
C234  C     C_3   0.751302 0.213515 0.776901 0.139673
C235  C     C_3   0.686271 0.723184 0.738513 0.150015
C236  C     C_3   0.315253 0.279934 0.258246 0.159249
C237  C     C_3   0.257660 0.707071 0.724767 0.135050
C238  C     C_3   0.726486 0.309979 0.265462 0.136303
C239  C     C_3   0.311139 0.275095 0.738005 0.156969
C240  C     C_R   0.499719 0.000008 0.834303 0.535844
C241  C     C_3   0.716629 0.752738 0.277911 0.143991
C242  C     C_3   0.748749 0.286686 0.723009 0.138413
C243  C     C_3   0.276362 0.688233 0.262429 0.141894
C244  C     C_3   0.199262 0.302246 0.249971 0.030715
C245  C     C_3   0.800446 0.697280 0.750010 0.014329
C246  C     C_3   0.697214 0.199533 0.250636 0.022716
C247  C     C_3   0.301534 0.801407 0.749573 0.026261
C248  C     C_3   0.800720 0.697514 0.250636 0.019615
C249  C     C_3   0.198942 0.301951 0.750880 0.024636
C250  C     C_3   0.302098 0.800973 0.250507 0.027207
C251  C     C_R   0.498930 0.000122 0.165665 0.517513
C252  C     C_3   0.698296 0.198484 0.749436 0.022162
C253  C     C_3   0.698981 0.802682 0.749511 0.014446
C254  C     C_3   0.301744 0.198271 0.250237 0.009106
C255  C     C_3   0.198194 0.698607 0.750194 0.030419
C256  C     C_3   0.802355 0.300997 0.249527 0.026209
C257  C     C_3   0.299427 0.196096 0.749876 0.022723
C258  C     C_3   0.698691 0.801993 0.249683 0.023398
C259  C     C_3   0.801788 0.301539 0.750455 0.024395
C260  C     C_3   0.197677 0.699151 0.249258 0.026900
C261  C     C_3   0.245597 0.279627 0.278703 0.200418
C262  C     C_R   0.496251 0.000770 0.130995 -0.060337
C263  C     C_3   0.759763 0.725018 0.720639 0.199710
C264  C     C_3   0.734961 0.232934 0.279830 0.194777
C265  C     C_3   0.242248 0.790122 0.723905 0.204397
C266  C     C_3   0.799365 0.765893 0.272237 0.216198
C267  C     C_3   0.236225 0.271504 0.721252 0.205632
C268  C     C_3   0.270007 0.762243 0.279580 0.196247
C269  C     C_3   0.763660 0.203746 0.726254 0.209313
C270  C     C_3   0.739711 0.775115 0.778809 0.205232
C271  C     C_3   0.255375 0.220401 0.221554 0.193861
C272  C     C_3   0.257460 0.709578 0.775828 0.210060
H1    H     H_    0.119033 0.139135 0.236948 0.327019
H2    H     H_    0.377176 0.362772 0.267244 0.342595
H3    H     H_    0.313024 0.296816 0.378050 0.106630
H4    H     H_    0.260036 0.373338 0.363123 0.174827
H5    H     H_    0.687564 0.631447 0.677690 0.151113
H6    H     H_    0.746810 0.594057 0.707746 0.123199
H7    H     H_    0.848354 0.580545 0.670474 0.202459
H8    H     H_    0.766719 0.532889 0.657157 0.101714
H9    H     H_    0.792018 0.619909 0.639822 0.195243
H10   H     H_    0.721769 0.310217 0.334218 0.181923
H11   H     H_    0.810719 0.269184 0.325691 0.173039
H12   H     H_    0.785600 0.169469 0.363219 0.126815
H13   H     H_    0.304800 0.680173 0.686611 0.329960
H14   H     H_    0.776907 0.258380 0.381381 0.120343
H15   H     H_    0.694857 0.207109 0.370943 0.209150
H16   H     H_    0.129611 0.800468 0.688890 0.173645
H17   H     H_    0.201102 0.755964 0.666196 0.169256
H18   H     H_    0.224849 0.873993 0.638602 0.147334
H19   H     H_    0.131173 0.841800 0.633775 0.085692
H20   H     H_    0.150454 0.916040 0.660417 0.145496
H21   H     H_    0.786524 0.874035 0.304114 0.173770
H22   H     H_    0.884826 0.884686 0.305701 0.128447
H23   H     H_    0.887273 0.803281 0.353489 0.147347
H24   H     H_    0.655444 0.362601 0.289807 0.327902
H25   H     H_    0.833904 0.886151 0.358448 0.080901
H26   H     H_    0.787737 0.799502 0.352059 0.165406
H27   H     H_    0.213832 0.209767 0.664122 0.151488
H28   H     H_    0.307567 0.236828 0.674168 0.186205
H29   H     H_    0.293485 0.348854 0.641550 0.175042
H30   H     H_    0.278546 0.265498 0.619473 0.112039
H31   H     H_    0.200606 0.320781 0.631293 0.207906
H32   H     H_    0.297973 0.674105 0.328745 0.181346
H33   H     H_    0.206193 0.714033 0.326881 0.165933
H34   H     H_    0.243279 0.804898 0.367348 0.139981
H35   H     H_    0.367731 0.352875 0.719772 0.341513
H36   H     H_    0.254118 0.711418 0.380590 0.115321
H37   H     H_    0.334371 0.763695 0.368869 0.167916
H38   H     H_    0.874940 0.206104 0.692218 0.160705
H39   H     H_    0.799046 0.219096 0.665026 0.173984
H40   H     H_    0.808536 0.084283 0.651070 0.192879
H41   H     H_    0.889067 0.138198 0.641437 0.088661
H42   H     H_    0.890644 0.079611 0.675196 0.128672
H43   H     H_    0.755886 0.905650 0.792241 0.125561
H44   H     H_    0.814219 0.864893 0.821915 0.166944
H45   H     H_    0.709475 0.878773 0.859983 0.147315
H46   H     H_    0.705001 0.721093 0.320038 0.334086
H47   H     H_    0.740161 0.965230 0.843732 0.127188
H48   H     H_    0.656030 0.923461 0.829741 0.154580
H49   H     H_    0.178269 0.118664 0.184395 0.158490
H50   H     H_    0.246340 0.086967 0.212217 0.140023
H51   H     H_    0.338974 0.074838 0.170005 0.190350
H52   H     H_    0.257569 0.019743 0.162822 0.093842
H53   H     H_    0.270840 0.104999 0.141932 0.178942
H54   H     H_    0.306744 0.737918 0.832133 0.191069
H55   H     H_    0.370514 0.680583 0.810358 0.165152
H56   H     H_    0.329180 0.571282 0.839543 0.144787
H57   H     H_    0.704464 0.310814 0.683846 0.340446
H58   H     H_    0.361691 0.641699 0.865675 0.082560
H59   H     H_    0.263709 0.626571 0.861008 0.209798
H60   H     H_    0.688857 0.228951 0.174957 0.171456
H61   H     H_    0.779177 0.190972 0.166318 0.171164
H62   H     H_    0.801495 0.293251 0.128936 0.140838
H63   H     H_    0.720174 0.240133 0.119307 0.092130
H64   H     H_    0.710155 0.329098 0.137261 0.136736
H65   H     H_    0.179365 0.182128 0.830044 0.167822
H66   H     H_    0.210035 0.276826 0.828398 0.149785
H67   H     H_    0.311319 0.245311 0.866272 0.127748
H68   H     H_    0.355471 0.629089 0.278323 0.336757
H69   H     H_    0.220302 0.226940 0.881550 0.097224
H70   H     H_    0.277275 0.152030 0.867817 0.165831
H71   H     H_    0.618950 0.612533 0.202995 0.141313
H72   H     H_    0.713569 0.630838 0.192159 0.177638
H73   H     H_    0.676088 0.686165 0.143520 0.186251
H74   H     H_    0.626506 0.599976 0.147309 0.077949
H75   H     H_    0.580156 0.685216 0.154734 0.167093
H76   H     H_    0.698026 0.283745 0.834723 0.187645
H77   H     H_    0.624013 0.298407 0.806782 0.162187
H78   H     H_    0.611507 0.425558 0.822581 0.129142
H79   H     H_    0.108245 0.183590 0.296056 0.177643
H80   H     H_    0.610059 0.369546 0.856988 0.089226
H81   H     H_    0.692544 0.420196 0.847303 0.195248
H82   H     H_    0.290471 0.787407 0.172865 0.147134
H83   H     H_    0.197203 0.823237 0.169980 0.171063
H84   H     H_    0.166046 0.730076 0.130357 0.181968
H85   H     H_    0.246066 0.783068 0.118864 0.090475
H86   H     H_    0.257535 0.690760 0.133608 0.154914
H87   H     H_    0.553590 0.182356 0.109238 0.084039
H88   H     H_    0.571232 0.140797 0.146172 0.148669
H89   H     H_    0.492782 0.233770 0.172337 0.198073
H90   H     H_    0.170429 0.191425 0.328987 0.156951
H91   H     H_    0.565444 0.275857 0.149681 0.096060
H92   H     H_    0.471751 0.275306 0.135077 0.135452
H93   H     H_    0.546212 0.821737 0.892256 0.082122
H94   H     H_    0.560386 0.849525 0.852850 0.158757
H95   H     H_    0.473082 0.754589 0.834251 0.172707
H96   H     H_    0.545612 0.714839 0.857834 0.078191
H97   H     H_    0.454792 0.727851 0.874113 0.142483
H98   H     H_    0.857813 0.417803 0.146756 0.136460
H99   H     H_    0.794619 0.442956 0.116075 0.119167
H100  H     H_    0.731183 0.529526 0.150183 0.132882
H101  H     H_    0.169080 0.051832 0.332451 0.167245
H102  H     H_    0.733262 0.439094 0.167242 0.106755
H103  H     H_    0.794453 0.509638 0.181530 0.212865
H104  H     H_    0.127133 0.400890 0.847185 0.152322
H105  H     H_    0.154101 0.393998 0.887133 0.080675
H106  H     H_    0.273603 0.462649 0.872664 0.137262
H107  H     H_    0.263158 0.372429 0.856338 0.085651
H108  H     H_    0.245708 0.452593 0.832520 0.211234
H109  H     H_    0.414684 0.839641 0.107483 0.084170
H110  H     H_    0.409561 0.872175 0.146887 0.140568
H111  H     H_    0.480493 0.727233 0.125778 0.129429
H112  H     H_    0.878615 0.857004 0.770526 0.315289
H113  H     H_    0.081785 0.095586 0.340550 0.081334
H114  H     H_    0.472014 0.760435 0.165536 0.208865
H115  H     H_    0.390740 0.737709 0.142977 0.086764
H116  H     H_    0.445372 0.175708 0.891850 0.080654
H117  H     H_    0.435252 0.150827 0.851796 0.174627
H118  H     H_    0.519569 0.249488 0.835864 0.164281
H119  H     H_    0.448035 0.286410 0.860649 0.069643
H120  H     H_    0.539336 0.271139 0.876188 0.150684
H121  H     H_    0.069558 0.319773 0.122517 0.086216
H122  H     H_    0.047073 0.358414 0.159989 0.127196
H123  H     H_    0.174897 0.342694 0.177341 0.229055
H124  H     H_    0.097907 0.052503 0.303124 0.151343
H125  H     H_    0.136304 0.256573 0.164403 0.143202
H126  H     H_    0.201036 0.305510 0.139955 0.148737
H127  H     H_    0.917481 0.623006 0.843195 0.150679
H128  H     H_    0.885058 0.652798 0.880490 0.092127
H129  H     H_    0.755782 0.632424 0.864253 0.118562
H130  H     H_    0.803026 0.689859 0.836286 0.164886
H131  H     H_    0.787212 0.593476 0.827978 0.238758
H132  H     H_    0.028080 0.694161 0.610871 0.083694
H133  H     H_    0.054089 0.650205 0.646281 0.161527
H134  H     H_    0.956368 0.720165 0.674667 0.202220
H135  H     H_    0.841625 0.814442 0.676279 0.182961
H136  H     H_    0.020972 0.780215 0.655256 0.071197
H137  H     H_    0.930660 0.764996 0.638650 0.136474
H138  H     H_    0.024152 0.306208 0.389757 0.081506
H139  H     H_    0.053464 0.350823 0.354983 0.162031
H140  H     H_    0.960533 0.280003 0.324413 0.221088
H141  H     H_    0.023235 0.221270 0.345703 0.069921
H142  H     H_    0.930098 0.234892 0.359681 0.127854
H143  H     H_    0.324116 0.978014 0.651642 0.183423
H144  H     H_    0.317180 0.970786 0.610309 0.079216
H145  H     H_    0.249398 0.093669 0.610136 0.160082
H146  H     H_    0.901172 0.823529 0.710202 0.168254
H147  H     H_    0.202216 0.020350 0.630286 0.077072
H148  H     H_    0.251078 0.089979 0.652169 0.183492
H149  H     H_    0.677920 0.949476 0.371638 0.104933
H150  H     H_    0.727097 0.029160 0.386574 0.157342
H151  H     H_    0.724882 0.076042 0.329198 0.217952
H152  H     H_    0.787256 0.002709 0.339391 0.042234
H153  H     H_    0.702343 0.982516 0.319287 0.195918
H154  H     H_    0.987139 0.303313 0.610958 0.083101
H155  H     H_    0.953406 0.348761 0.644772 0.155745
H156  H     H_    0.048271 0.284524 0.677099 0.214016
H157  H     H_    0.903288 0.959328 0.702038 0.148580
H158  H     H_    0.988728 0.221038 0.656740 0.072085
H159  H     H_    0.081305 0.237458 0.642768 0.128881
H160  H     H_    0.996961 0.689656 0.392027 0.080845
H161  H     H_    0.967163 0.658909 0.354662 0.171010
H162  H     H_    0.064909 0.728606 0.329022 0.222646
H163  H     H_    0.015299 0.788525 0.355304 0.081158
H164  H     H_    0.105026 0.754427 0.366021 0.125950
H165  H     H_    0.561527 0.819739 0.624709 0.084492
H166  H     H_    0.548412 0.859901 0.662676 0.132177
H167  H     H_    0.694628 0.798916 0.637093 0.150964
H168  H     H_    0.938425 0.909262 0.668866 0.081438
H169  H     H_    0.680806 0.839658 0.674975 0.227241
H170  H     H_    0.634055 0.755190 0.664893 0.143366
H171  H     H_    0.320758 0.043787 0.355565 0.157043
H172  H     H_    0.328235 0.038606 0.397226 0.138934
H173  H     H_    0.247034 0.925805 0.396445 0.160912
H174  H     H_    0.202724 0.008134 0.382601 0.075560
H175  H     H_    0.233926 0.939434 0.355119 0.152175
H176  H     H_    0.519944 0.156118 0.047058 0.103888
H177  H     H_    0.470458 0.215859 0.073774 0.149306
H178  H     H_    0.365147 0.222531 0.036355 0.165117
H179  H     H_    0.846438 0.947852 0.667664 0.180655
H180  H     H_    0.450401 0.258521 0.021042 0.076476
H181  H     H_    0.418320 0.168551 0.009045 0.171950
H182  H     H_    0.511466 0.849464 0.955112 0.108367
H183  H     H_    0.462485 0.789447 0.928376 0.145507
H184  H     H_    0.353832 0.788710 0.964103 0.179184
H185  H     H_    0.436539 0.751289 0.981218 0.078578
H186  H     H_    0.406474 0.843078 0.991547 0.171535
H187  H     H_    0.800953 0.416877 0.066890 0.114904
H188  H     H_    0.886625 0.399697 0.047404 0.107969
H189  H     H_    0.847428 0.474722 0.003153 0.201298
H190  H     H_    0.836612 0.089621 0.274076 0.185976
H191  H     H_    0.778343 0.406523 0.011739 0.099129
H192  H     H_    0.763210 0.500913 0.023192 0.155747
H193  H     H_    0.219742 0.453152 0.924596 0.144397
H194  H     H_    0.142220 0.413946 0.945329 0.123269
H195  H     H_    0.176927 0.492084 0.991455 0.204698
H196  H     H_    0.250655 0.431170 0.979493 0.077717
H197  H     H_    0.254632 0.527675 0.969861 0.158543
H198  H     H_    0.460682 0.851548 0.045283 0.108657
H199  H     H_    0.501206 0.790997 0.074243 0.155405
H200  H     H_    0.607873 0.767658 0.038832 0.176646
H201  H     H_    0.836782 0.132221 0.312141 0.150936
H202  H     H_    0.520331 0.738667 0.023019 0.078533
H203  H     H_    0.562878 0.822896 0.009404 0.167120
H204  H     H_    0.475139 0.149841 0.954747 0.108075
H205  H     H_    0.525084 0.212250 0.929550 0.143508
H206  H     H_    0.630218 0.213714 0.967322 0.173822
H207  H     H_    0.544978 0.248103 0.983253 0.076239
H208  H     H_    0.576359 0.156581 0.993203 0.172138
H209  H     H_    0.086732 0.334753 0.061932 0.110886
H210  H     H_    0.167360 0.346158 0.086751 0.168094
H211  H     H_    0.242179 0.381183 0.040379 0.156053
H212  H     H_    0.971755 0.128459 0.313663 0.151778
H213  H     H_    0.203745 0.289639 0.038003 0.095856
H214  H     H_    0.162444 0.363254 0.016014 0.175736
H215  H     H_    0.804964 0.603586 0.917253 0.166962
H216  H     H_    0.886519 0.638004 0.937448 0.123446
H217  H     H_    0.832347 0.601268 0.987384 0.193164
H218  H     H_    0.768661 0.658249 0.966114 0.097621
H219  H     H_    0.753796 0.560153 0.967674 0.151235
H220  H     H_    0.998886 0.676762 0.557317 0.117903
H221  H     H_    0.921618 0.703234 0.582182 0.167005
H222  H     H_    0.836634 0.699898 0.537791 0.155715
H223  H     H_    0.847892 0.135989 0.213440 0.336618
H224  H     H_    0.934701 0.037931 0.306824 0.078341
H225  H     H_    0.913113 0.761576 0.530799 0.078477
H226  H     H_    0.911043 0.672483 0.512317 0.188609
H227  H     H_    0.991077 0.321647 0.442456 0.117134
H228  H     H_    0.914159 0.298809 0.416629 0.165185
H229  H     H_    0.827208 0.304112 0.460239 0.167723
H230  H     H_    0.900772 0.239194 0.467526 0.080545
H231  H     H_    0.901523 0.327654 0.486571 0.189700
H232  H     H_    0.289355 0.014202 0.562425 0.126813
H233  H     H_    0.360679 0.956233 0.546767 0.113255
H234  H     H_    0.374513 0.045213 0.502248 0.203220
H235  H     H_    0.974948 0.089771 0.275073 0.170474
H236  H     H_    0.282602 0.007554 0.505267 0.098603
H237  H     H_    0.300886 0.100177 0.518470 0.153133
H238  H     H_    0.688486 0.940916 0.426941 0.089126
H239  H     H_    0.646427 0.954178 0.464413 0.143916
H240  H     H_    0.736530 0.052132 0.477016 0.183231
H241  H     H_    0.781516 0.966296 0.467581 0.088102
H242  H     H_    0.779773 0.040071 0.439474 0.135557
H243  H     H_    0.020288 0.322261 0.558384 0.121028
H244  H     H_    0.095982 0.297747 0.584576 0.157496
H245  H     H_    0.184552 0.302742 0.541621 0.163110
H246  H     H_    0.162566 0.913397 0.738747 0.179845
H247  H     H_    0.110169 0.239275 0.533422 0.079091
H248  H     H_    0.111767 0.328299 0.514902 0.189093
H249  H     H_    0.036025 0.672773 0.443583 0.119765
H250  H     H_    0.111341 0.692850 0.416719 0.161085
H251  H     H_    0.202533 0.678206 0.458455 0.154918
H252  H     H_    0.134416 0.747081 0.468093 0.075321
H253  H     H_    0.129823 0.657217 0.485827 0.190102
H254  H     H_    0.559453 0.836242 0.557859 0.116771
H255  H     H_    0.640911 0.822051 0.581629 0.148705
H256  H     H_    0.721388 0.850711 0.536763 0.153295
H257  H     H_    0.114746 0.905891 0.775525 0.167051
H258  H     H_    0.658445 0.776319 0.527985 0.095369
H259  H     H_    0.640724 0.867320 0.512861 0.168779
H260  H     H_    0.435490 0.836296 0.440396 0.137031
H261  H     H_    0.368426 0.844721 0.409311 0.162517
H262  H     H_    0.267693 0.858051 0.448126 0.138174
H263  H     H_    0.318493 0.773492 0.453458 0.090822
H264  H     H_    0.334612 0.850376 0.479271 0.174199
H265  H     H_    0.994680 0.898822 0.747057 0.179118
H266  H     H_    0.045151 0.981358 0.737526 0.081729
H267  H     H_    0.043580 0.905396 0.710514 0.143509
H268  H     H_    0.892216 0.858119 0.205561 0.179633
H269  H     H_    0.917681 0.841569 0.245792 0.171664
H270  H     H_    0.918174 0.975455 0.255496 0.144084
H271  H     H_    0.193570 0.819392 0.812929 0.342150
H272  H     H_    0.981820 0.950272 0.225003 0.097729
H273  H     H_    0.894274 0.992662 0.215325 0.190886
H274  H     H_    0.099856 0.187032 0.708068 0.167729
H275  H     H_    0.098760 0.106110 0.732707 0.156952
H276  H     H_    0.126525 0.028317 0.686354 0.166716
H277  H     H_    0.039896 0.077246 0.683672 0.092400
H278  H     H_    0.118803 0.109485 0.662126 0.127621
H279  H     H_    0.174252 0.900282 0.286624 0.189126
H280  H     H_    0.159730 0.846581 0.321478 0.146272
H281  H     H_    0.018625 0.856009 0.307895 0.182499
H282  H     H_    0.791112 0.775805 0.179783 0.350204
H283  H     H_    0.064659 0.936414 0.322652 0.084249
H284  H     H_    0.045963 0.927565 0.281410 0.140105
H285  H     H_    0.895323 0.092672 0.733328 0.152998
H286  H     H_    0.830239 0.087175 0.765060 0.171069
H287  H     H_    0.934152 0.096610 0.802948 0.172272
H288  H     H_    0.941957 0.017839 0.777562 0.083213
H289  H     H_    0.999007 0.097927 0.771010 0.168862
H290  H     H_    0.595009 0.677497 0.786728 0.182944
H291  H     H_    0.650537 0.689283 0.821522 0.179638
H292  H     H_    0.644984 0.556824 0.832011 0.159554
H293  H     H_    0.128683 0.147563 0.782362 0.317694
H294  H     H_    0.553008 0.594104 0.827811 0.087154
H295  H     H_    0.593562 0.541975 0.796372 0.153384
H296  H     H_    0.323872 0.304331 0.170947 0.186023
H297  H     H_    0.391499 0.313718 0.202013 0.176035
H298  H     H_    0.399047 0.446210 0.192262 0.155766
H299  H     H_    0.417636 0.395714 0.156879 0.081390
H300  H     H_    0.329131 0.439949 0.162197 0.185963
H301  H     H_    0.383666 0.602312 0.720273 0.171316
H302  H     H_    0.340984 0.584691 0.757755 0.180059
H303  H     H_    0.460514 0.581371 0.783112 0.135178
H304  H     H_    0.144337 0.870915 0.221250 0.337457
H305  H     H_    0.463344 0.522037 0.749305 0.086035
H306  H     H_    0.506925 0.610744 0.748035 0.192884
H307  H     H_    0.679098 0.403881 0.216860 0.175308
H308  H     H_    0.597667 0.400204 0.241405 0.162314
H309  H     H_    0.520959 0.376702 0.193796 0.166067
H310  H     H_    0.568179 0.464334 0.193254 0.082273
H311  H     H_    0.603019 0.389092 0.170327 0.136930
H312  H     H_    0.403765 0.307591 0.786430 0.192334
H313  H     H_    0.353681 0.317708 0.822421 0.156273
H314  H     H_    0.380037 0.453516 0.820960 0.146405
H315  H     H_    0.794995 0.190584 0.816303 0.342526
H316  H     H_    0.462525 0.397637 0.821774 0.088356
H317  H     H_    0.432569 0.438444 0.785836 0.156613
H318  H     H_    0.581385 0.661987 0.257259 0.169146
H319  H     H_    0.610137 0.639392 0.296547 0.172829
H320  H     H_    0.516293 0.552511 0.277350 0.106205
H321  H     H_    0.573930 0.529817 0.244555 0.129468
H322  H     H_    0.603610 0.506300 0.283510 0.186916
H323  H     H_    0.671155 0.412662 0.736458 0.170870
H324  H     H_    0.597583 0.409197 0.764616 0.145256
H325  H     H_    0.504957 0.401641 0.722552 0.179892
H326  H     H_    0.622617 0.643331 0.727208 0.314026
H327  H     H_    0.565410 0.479678 0.716448 0.080628
H328  H     H_    0.577642 0.397121 0.693747 0.172368
H329  H     H_    0.336057 0.650521 0.178984 0.157486
H330  H     H_    0.327193 0.598475 0.214518 0.192745
H331  H     H_    0.478945 0.644768 0.189533 0.174630
H332  H     H_    0.456324 0.574190 0.217244 0.141495
H333  H     H_    0.432996 0.562872 0.176548 0.088743
H334  H     H_    0.343484 0.321997 0.322999 0.179764
H335  H     H_    0.301786 0.231968 0.327922 0.155346
H336  H     H_    0.216860 0.284328 0.367869 0.134572
N1    N     N_R   0.559104 0.996222 0.015537 -0.205395
N2    N     N_R   0.012260 0.562253 0.484371 -0.238798
N3    N     N_R   0.490264 0.928256 0.515772 -0.280489
N4    N     N_R   0.530148 0.050572 0.484900 -0.186437
N5    N     N_R   0.012403 0.562848 0.515254 -0.234380
N6    N     N_R   0.007052 0.434125 0.484769 -0.231873
N7    N     N_R   0.529859 0.050700 0.515879 -0.180448
N8    N     N_R   0.490170 0.928282 0.484873 -0.244414
N9    N     N_R   0.430515 0.006539 0.984268 -0.215788
N10   N     N_R   0.031674 0.436865 0.013518 -0.244257
N11   N     N_R   0.977792 0.560190 0.987356 -0.218143
N12   N     N_R   0.430260 0.007632 0.015202 -0.211487
N13   N     N_R   0.559420 0.995729 0.984618 -0.211795
N14   N     N_R   0.977352 0.552888 0.018166 -0.187254
N15   N     N_R   0.031926 0.444088 0.982742 -0.260765
N16   N     N_R   0.006601 0.434730 0.515659 -0.235082
O1    O     O_3   0.500000 0.000000 0.250000 -0.480680
O2    O     O_R   0.438450 0.000020 0.680680 -0.536406
O3    O     O_3   0.205320 0.719859 0.189910 -0.551127
O4    O     O_3   0.462090 0.130543 0.129901 -0.514590
O5    O     O_3   0.455177 0.873030 0.870397 -0.497090
O6    O     O_3   0.868520 0.525253 0.128497 -0.488729
O7    O     O_3   0.136704 0.501603 0.870204 -0.501586
O8    O     O_3   0.516503 0.868458 0.128170 -0.498075
O9    O     O_3   0.539345 0.127808 0.870815 -0.498399
O10   O     O_3   0.116029 0.423443 0.132123 -0.510502
O11   O     O_3   0.871308 0.539953 0.871058 -0.515404
O12   O     O_3   0.948392 0.622135 0.629160 -0.547851
O13   O     O_R   0.000020 0.561550 0.319320 -0.526694
O14   O     O_3   0.946076 0.378287 0.370252 -0.530805
O15   O     O_3   0.383220 0.058340 0.627898 -0.504051
O16   O     O_3   0.624333 0.053304 0.368546 -0.510485
O17   O     O_3   0.060991 0.379269 0.630824 -0.527677
O18   O     O_3   0.069004 0.615770 0.369559 -0.530818
O19   O     O_3   0.614172 0.921389 0.632421 -0.499105
O20   O     O_3   0.376913 0.951646 0.370937 -0.524983
O21   O     O_3   0.422369 0.114036 0.067456 -0.515060
O22   O     O_3   0.416959 0.893030 0.932625 -0.506323
O23   O     O_3   0.868893 0.508766 0.064623 -0.507611
O24   O     O_R   0.999980 0.438450 0.680680 -0.523888
O25   O     O_3   0.136342 0.527307 0.933667 -0.520159
O26   O     O_3   0.560467 0.886281 0.066048 -0.507808
O27   O     O_3   0.572905 0.109659 0.933592 -0.507637
O28   O     O_3   0.128037 0.442809 0.067487 -0.518662
O29   O     O_3   0.871620 0.522499 0.935841 -0.532134
O30   O     O_3   0.916889 0.596645 0.565464 -0.525642
O31   O     O_3   0.912743 0.405022 0.433984 -0.520863
O32   O     O_3   0.392964 0.061844 0.563849 -0.510445
O33   O     O_3   0.633303 0.041519 0.433080 -0.518443
O34   O     O_3   0.099712 0.404248 0.567833 -0.525839
O35   O     O_R   0.938450 0.500020 0.819320 -0.505420
O36   O     O_3   0.107867 0.585441 0.432361 -0.524293
O37   O     O_3   0.624627 0.930092 0.568459 -0.514502
O38   O     O_3   0.385819 0.939693 0.435378 -0.545280
O39   O     O_R   0.061550 0.499980 0.180680 -0.494814
O40   O     O_R   0.499980 0.938450 0.819320 -0.526186
O41   O     O_R   0.500020 0.061550 0.180680 -0.530460
O42   O     O_R   0.061550 0.499980 0.819320 -0.511255
O43   O     O_R   0.938450 0.500020 0.180680 -0.532273
O44   O     O_R   0.500020 0.061550 0.819320 -0.515931
O45   O     O_3   0.500000 0.000000 0.750000 -0.484300
O46   O     O_R   0.499980 0.938450 0.180680 -0.508048
O47   O     O_R   0.648010 0.086580 0.268180 -0.527308
O48   O     O_R   0.351990 0.913420 0.731820 -0.522717
O49   O     O_R   0.913420 0.648010 0.268180 -0.513999
O50   O     O_R   0.086580 0.351990 0.731820 -0.520799
O51   O     O_R   0.351990 0.913420 0.268180 -0.510741
O52   O     O_R   0.648010 0.086580 0.731820 -0.506252
O53   O     O_R   0.086580 0.351990 0.268180 -0.522197
O54   O     O_R   0.913420 0.648010 0.731820 -0.528058
O55   O     O_R   0.148010 0.586580 0.768180 -0.500173
O56   O     O_3   0.000000 0.500000 0.250000 -0.481658
O57   O     O_R   0.851990 0.413420 0.231820 -0.537289
O58   O     O_R   0.413420 0.148010 0.768180 -0.523245
O59   O     O_R   0.586580 0.851990 0.231820 -0.498044
O60   O     O_R   0.851990 0.413420 0.768180 -0.504971
O61   O     O_R   0.148010 0.586580 0.231820 -0.507182
O62   O     O_R   0.586580 0.851990 0.768180 -0.527748
O63   O     O_R   0.413420 0.148010 0.231820 -0.519049
O64   O     O_R   0.413460 0.851950 0.231830 -0.523199
O65   O     O_R   0.586540 0.148050 0.768170 -0.515343
O66   O     O_R   0.148050 0.413460 0.231830 -0.517971
O67   O     O_3   0.000000 0.500000 0.750000 -0.478756
O68   O     O_R   0.851950 0.586540 0.768170 -0.530498
O69   O     O_R   0.586540 0.148050 0.231830 -0.517656
O70   O     O_R   0.413460 0.851950 0.768170 -0.505841
O71   O     O_R   0.851950 0.586540 0.231830 -0.528083
O72   O     O_R   0.148050 0.413460 0.768170 -0.527563
O73   O     O_R   0.913460 0.351950 0.731830 -0.531254
O74   O     O_R   0.086540 0.648050 0.268170 -0.516993
O75   O     O_R   0.648050 0.913460 0.731830 -0.520254
O76   O     O_R   0.351950 0.086540 0.268170 -0.519281
O77   O     O_R   0.086540 0.648050 0.731830 -0.522618
O78   O     O_R   0.438450 0.000020 0.319320 -0.507440
O79   O     O_R   0.913460 0.351950 0.268170 -0.518174
O80   O     O_R   0.351950 0.086540 0.731830 -0.510057
O81   O     O_R   0.648050 0.913460 0.268170 -0.541715
O82   O     O_3   0.116126 0.192879 0.233365 -0.709154
O83   O     O_3   0.880984 0.802733 0.772228 -0.701352
O84   O     O_3   0.795505 0.127270 0.219067 -0.720638
O85   O     O_3   0.235797 0.838974 0.800836 -0.704105
O86   O     O_3   0.817681 0.741079 0.193588 -0.696629
O87   O     O_3   0.119916 0.199150 0.775942 -0.724845
O88   O     O_3   0.197974 0.878258 0.224847 -0.732551
O89   O     O_R   0.561550 0.999980 0.680680 -0.494134
O90   O     O_3   0.751297 0.173019 0.804516 -0.710031
O91   O     O_3   0.618738 0.697648 0.726925 -0.718796
O92   O     O_3   0.384474 0.308831 0.266066 -0.706236
O93   O     O_3   0.263387 0.660263 0.699103 -0.727947
O94   O     O_3   0.705027 0.373713 0.281237 -0.719659
O95   O     O_3   0.377058 0.300591 0.724940 -0.697486
O96   O     O_3   0.681379 0.758766 0.306683 -0.723204
O97   O     O_3   0.748597 0.327690 0.695526 -0.732252
O98   O     O_3   0.301833 0.621727 0.274726 -0.713128
O99   O     O_3   0.215148 0.139314 0.290623 -0.550417
O100  O     O_R   0.999980 0.438450 0.319320 -0.524946
O101  O     O_3   0.794069 0.866904 0.713925 -0.546806
O102  O     O_3   0.877491 0.197909 0.276804 -0.547685
O103  O     O_3   0.111061 0.811496 0.748773 -0.546246
O104  O     O_3   0.811523 0.884950 0.237845 -0.552299
O105  O     O_3   0.201159 0.132099 0.714591 -0.557316
O106  O     O_3   0.125862 0.795200 0.281173 -0.557858
O107  O     O_3   0.887110 0.188335 0.759029 -0.544724
O108  O     O_3   0.702657 0.634181 0.785419 -0.563125
O109  O     O_3   0.287370 0.361143 0.209819 -0.546586
O110  O     O_3   0.388928 0.689275 0.751164 -0.554392
O111  O     O_R   0.000020 0.561550 0.680680 -0.537774
O112  O     O_3   0.624443 0.301485 0.220982 -0.546101
O113  O     O_3   0.302336 0.365628 0.784528 -0.552817
O114  O     O_3   0.687017 0.614702 0.262406 -0.554610
O115  O     O_3   0.612788 0.311440 0.741122 -0.544243
O116  O     O_3   0.373403 0.704901 0.218100 -0.551735
O117  O     O_3   0.234967 0.313759 0.307815 -0.563935
O118  O     O_3   0.774048 0.699566 0.690221 -0.575019
O119  O     O_3   0.716408 0.211321 0.310360 -0.568369
O120  O     O_3   0.238221 0.835490 0.697327 -0.551406
O121  O     O_3   0.852803 0.778748 0.295557 -0.546307
O122  O     O_R   0.561550 0.999980 0.319320 -0.519172
O123  O     O_3   0.221107 0.302102 0.691777 -0.546009
O124  O     O_3   0.293428 0.779188 0.310072 -0.549745
O125  O     O_3   0.775220 0.151586 0.702427 -0.536437
O126  O     O_3   0.724985 0.800762 0.809170 -0.579901
O127  O     O_3   0.264814 0.190870 0.191469 -0.574566
O128  O     O_3   0.258338 0.662566 0.801885 -0.536840
O129  O     O_3   0.781262 0.290383 0.189854 -0.562108
O130  O     O_3   0.281117 0.197623 0.809108 -0.569253
O131  O     O_3   0.646886 0.722391 0.204535 -0.533368
O132  O     O_3   0.725878 0.349197 0.797196 -0.538967
Zn1   Zn    Zn3+2 0.499980 0.087890 0.224030 0.963336
Zn2   Zn    Zn3+2 0.000020 0.412110 0.275970 0.972740
Zn3   Zn    Zn3+2 0.412110 0.999980 0.724030 0.980429
Zn4   Zn    Zn3+2 0.587890 0.000020 0.275970 0.965758
Zn5   Zn    Zn3+2 0.000020 0.412110 0.724030 0.964916
Zn6   Zn    Zn3+2 0.999980 0.587890 0.275970 0.986213
Zn7   Zn    Zn3+2 0.587890 0.000020 0.724030 0.996619
Zn8   Zn    Zn3+2 0.412110 0.999980 0.275970 0.983630
Zn9   Zn    Zn3+2 0.500020 0.912110 0.775970 0.967708
Zn10  Zn    Zn3+2 0.912110 0.499980 0.224030 0.959063
Zn11  Zn    Zn3+2 0.087890 0.500020 0.775970 0.991867
Zn12  Zn    Zn3+2 0.500020 0.912110 0.224030 0.984918
Zn13  Zn    Zn3+2 0.499980 0.087890 0.775970 0.983263
Zn14  Zn    Zn3+2 0.087890 0.500020 0.224030 1.003857
Zn15  Zn    Zn3+2 0.912110 0.499980 0.775970 0.978223
Zn16  Zn    Zn3+2 0.999980 0.587890 0.724030 0.954938

loop_
_geom_bond_atom_site_label_1
_geom_bond_atom_site_label_2
_ccdc_geom_bond_type
C144  H140  S    
C54   O101  S    
C154  H165  S    
C242  C259  S    
C126  C127  S    
C37   O32   S    
C162  H184  S    
C166  H195  S    
C108  H52   S    
C8    C26   A    
C32   C45   A    
C79   N2    A    
N6    N16   A    
C215  C233  S    
C90   N16   A    
C112  O2    A    
C15   C32   A    
C83   O115  S    
C126  O5    S    
C124  N13   A    
C187  O36   S    
C225  C250  S    
O80   Zn3   S    
C214  C267  S    
C4    C232  S    
C191  H259  S    
C217  C245  S    
C20   O16   S    
C92   H11   S    
C129  H102  S    
C93   H14   S    
C261  O117  S    
C230  O85   S    
C99   H31   S    
C224  C252  S    
C115  H65   S    
C142  H136  S    
C143  C144  S    
C28   O23   S    
C152  O18   S    
C1    C68   S    
C104  H42   S    
C237  C265  S    
C240  O44   A    
C95   H18   S    
C159  H177  S    
O56   Zn14  S    
C19   C37   A    
C143  H139  S    
C189  H255  S    
C83   H323  S    
C204  O73   A    
C82   H322  S    
C87   H335  S    
C96   O121  S    
C5    C231  S    
C176  C177  S    
C168  O47   A    
C184  H241  S    
C99   H29   S    
C106  H48   S    
C255  C272  S    
C197  C252  S    
C47   C146  S    
C11   O7    S    
C236  C261  S    
C111  O129  S    
C158  H175  S    
C165  H193  S    
C116  H67   S    
C196  O13   A    
C242  O97   S    
C239  C257  S    
C233  C250  S    
C6    C224  S    
C184  H240  S    
C70   H291  S    
C182  H237  S    
O55   Zn11  S    
C138  H123  S    
C180  H231  S    
C179  O48   A    
H282  O86   S    
C56   H190  S    
C114  H63   S    
C272  O128  S    
O100  Zn2   S    
C31   C44   A    
C215  O106  S    
C60   H265  S    
C110  H59   S    
H2    O92   S    
C222  O113  S    
C144  H141  S    
C74   H302  S    
C161  O22   S    
N4    N7    A    
C54   H146  S    
C6    C259  S    
C118  H74   S    
C183  C184  S    
C153  H163  S    
C38   O33   S    
C10   O6    S    
C86   H333  S    
C188  H253  S    
C219  O109  S    
C53   H124  S    
C226  C244  S    
C183  H238  S    
C253  C270  S    
C103  O125  S    
C181  H232  S    
C141  H133  S    
C4    C222  S    
C12   C262  A    
C76   C77   S    
C46   C196  S    
O1    Zn8   S    
C21   O17   S    
C109  H54   S    
C78   H312  S    
C67   H285  S    
C265  O120  S    
C73   H299  S    
C164  H189  S    
C228  O84   S    
C33   C47   A    
H68   O98   S    
O24   Zn5   S    
C34   C48   A    
C17   C34   A    
C31   O27   S    
O77   Zn16  S    
C241  O96   S    
C219  C236  S    
C123  H87   S    
C173  H214  S    
C117  H71   S    
C200  C255  S    
C163  O23   S    
C152  H161  S    
C130  H104  S    
C198  O66   A    
O67   Zn15  S    
C141  H132  S    
C120  H81   S    
C20   C68   A    
C97   H26   S    
C192  O38   S    
C72   C73   S    
C156  O20   S    
C214  O105  S    
C63   H274  S    
C139  C140  S    
C113  N7    A    
C218  O35   A    
C21   C35   A    
C61   H269  S    
N2    N5    A    
C128  H98   S    
C174  H215  S    
C221  C238  S    
C190  C248  S    
C23   C41   A    
C122  H84   S    
C156  C158  S    
C130  C131  S    
C52   H90   S    
C26   O21   S    
C167  H199  S    
C18   O14   S    
C37   C50   A    
C201  O79   A    
C223  C241  S    
C101  N4    A    
C103  H39   S    
C19   O15   S    
C56   H201  S    
C209  O99   S    
O78   Zn8   S    
C169  H202  S    
C134  H117  S    
C178  H228  S    
C243  C260  S    
O75   Zn7   S    
C2    C14   A    
O74   Zn6   S    
C62   H273  S    
C151  H159  S    
C176  O30   S    
C61   H268  S    
O61   Zn14  S    
C211  O102  S    
C98   C99   S    
C158  H173  S    
C122  H85   S    
C194  O72   A    
C187  H250  S    
C186  H248  S    
C25   O20   S    
O65   Zn13  S    
C3    C228  S    
O54   Zn16  S    
C111  H60   S    
O56   Zn2   S    
C83   H324  S    
C251  O46   A    
C71   H295  S    
C213  C258  S    
C139  H128  S    
C150  H155  S    
O71   Zn10  S    
C132  H110  S    
C14   C31   A    
C181  O32   S    
C2    C240  S    
C128  C129  S    
C217  C235  S    
C58   H235  S    
C223  O114  S    
C127  H96   S    
C167  C169  S    
C125  H92   S    
C85   C86   S    
C76   O112  S    
C217  O108  S    
C211  C264  S    
C173  H213  S    
C29   C47   A    
O13   Zn6   S    
C169  H203  S    
C32   O28   S    
C86   H331  S    
O67   Zn5   S    
C204  C259  S    
C58   H224  S    
C252  C269  S    
C156  H171  S    
C228  C246  S    
C170  C171  S    
C124  N9    A    
C40   C49   A    
C157  N14   A    
C225  O116  S    
C58   H212  S    
C116  H70   S    
C3    O129  S    
H46   O96   S    
C189  C191  S    
C96   H21   S    
C145  O15   S    
C266  O121  S    
C92   H10   S    
C206  O75   A    
C69   H287  S    
C153  H162  S    
C126  H93   S    
C77   H309  S    
C27   C44   A    
O45   Zn13  S    
C65   O106  S    
C62   H270  S    
C164  H191  S    
C21   C39   A    
O59   Zn12  S    
C75   H303  S    
C107  C108  S    
C79   N6    A    
C54   H135  S    
C95   H19   S    
C89   O118  S    
C89   C91   S    
O66   Zn14  S    
C1    O122  A    
C219  C271  S    
C213  C231  S    
C197  O52   A    
C179  O70   A    
C1    O78   A    
C142  H134  S    
C137  O10   S    
C6    C234  S    
O1    Zn12  S    
C181  H233  S    
C22   O18   S    
C207  O24   A    
C65   H280  S    
C112  O89   A    
C42   O38   S    
C98   H27   S    
C59   H257  S    
C105  H44   S    
C66   H284  S    
C133  H114  S    
C96   H22   S    
N10   N15   A    
N9    N12   A    
C62   H272  S    
C113  N3    A    
C241  C258  S    
C154  O19   S    
H293  O87   S    
C242  C269  S    
C107  H49   S    
C45   C157  S    
C84   H325  S    
C202  C257  S    
C121  O3    S    
C120  H78   S    
C38   C51   A    
C7    C225  S    
C197  O65   A    
C185  O34   S    
C107  O127  S    
C233  O88   S    
C139  O11   S    
C177  H222  S    
C263  O118  S    
C180  H230  S    
C193  H263  S    
C55   H179  S    
C210  C253  S    
C218  O42   A    
N1    N13   A    
C59   H246  S    
C83   C84   S    
C141  O12   S    
C89   H5    S    
C171  H208  S    
C178  C180  S    
C172  O28   S    
C85   O116  S    
C165  O25   S    
C91   H7    S    
C163  H187  S    
C188  H252  S    
C100  H33   S    
C117  O131  S    
H57   O97   S    
C123  O4    S    
C183  H239  S    
C135  N1    A    
C211  C228  S    
C155  H169  S    
O45   Zn7   S    
H35   O95   S    
C245  C263  S    
C75   H306  S    
C216  C269  S    
C103  C104  S    
C246  C264  S    
C52   C53   S    
C213  O104  S    
C210  C263  S    
C23   C57   A    
C54   C55   S    
C34   O30   S    
C235  C263  S    
C66   H281  S    
C166  H196  S    
C185  H243  S    
C121  H82   S    
C127  H95   S    
C231  O86   S    
C117  H72   S    
C85   H330  S    
C209  C261  S    
C201  C256  S    
C102  H36   S    
C159  O21   S    
C147  H148  S    
C63   O105  S    
C212  C255  S    
C177  H226  S    
C250  C268  S    
C238  O94   S    
C117  C118  S    
C63   H275  S    
C148  H149  S    
C77   H311  S    
H1    O82   S    
C149  H152  S    
C161  H182  S    
C111  H61   S    
C39   O34   S    
C104  H40   S    
C56   C58   S    
C216  C234  S    
C91   H9    S    
H112  O83   S    
C170  H204  S    
C17   O12   S    
C150  O17   S    
C61   C62   S    
H24   O94   S    
C161  H183  S    
C162  H185  S    
C63   C64   S    
C196  O100  A    
C189  H254  S    
C59   C60   S    
C152  C153  S    
C145  H144  S    
C150  C151  S    
C232  C249  S    
C216  C259  S    
C236  C254  S    
C170  O27   S    
C2    C9    A    
C8    C262  A    
C93   H12   S    
C184  H242  S    
C151  H156  S    
C205  C260  S    
C20   C38   A    
C87   C88   S    
C224  O115  S    
C207  O111  A    
C4    C257  S    
C170  H205  S    
C9    O5    S    
C172  H209  S    
C238  C264  S    
C84   H327  S    
C81   H319  S    
C175  H218  S    
C214  C232  S    
C220  O110  S    
C161  C162  S    
C94   O120  S    
C120  H80   S    
C229  O39   A    
C181  C182  S    
C19   C57   A    
C136  H119  S    
C16   O11   S    
C114  H64   S    
O50   Zn5   S    
O1    Zn1   S    
O49   Zn6   S    
O43   Zn10  S    
O69   Zn1   S    
C123  C125  S    
C125  H89   S    
C221  C246  S    
C144  H142  S    
C217  C270  S    
C195  C250  S    
C154  H166  S    
C171  H206  S    
C219  C244  S    
C72   H296  S    
C160  H178  S    
O72   Zn11  S    
C7    O3    S    
C118  H75   S    
O76   Zn8   S    
C169  H200  S    
C65   H279  S    
C3    C256  S    
O122  Zn4   S    
C12   O8    S    
C189  O37   S    
C70   H290  S    
C98   O123  S    
C231  C248  S    
C195  O51   A    
O89   Zn7   S    
C138  H125  S    
O41   Zn1   S    
C140  H129  S    
C52   O99   S    
C105  O126  S    
C216  O107  S    
C214  C257  S    
C70   C71   S    
C76   H307  S    
C137  H122  S    
H223  O84   S    
C56   O102  S    
C78   H313  S    
C64   H276  S    
C109  O128  S    
C268  O124  S    
C73   H298  S    
C185  H244  S    
C128  O6    S    
C3    C221  S    
C108  H51   S    
C36   O31   S    
C104  H41   S    
C94   H17   S    
C6    O132  S    
C7    C260  S    
C176  H220  S    
C25   C68   A    
C18   C46   A    
C4    O130  S    
C145  C147  S    
H315  O90   S    
C81   C82   S    
O42   Zn11  S    
C142  H137  S    
C119  H76   S    
C102  H34   S    
C157  N10   A    
C60   H267  S    
C183  O33   S    
C81   O114  S    
C229  O43   A    
C152  H160  S    
C210  O101  S    
C199  C245  S    
C97   H25   S    
C243  C268  S    
C235  C253  S    
C236  O92   S    
C129  H103  S    
C93   H15   S    
C94   H16   S    
C115  H66   S    
C69   H289  S    
C190  O71   A    
C174  H216  S    
C44   C124  S    
C70   O108  S    
C49   C79   S    
C199  O54   A    
C130  O7    S    
C36   C49   A    
C226  C271  S    
C227  C245  S    
O39   Zn14  S    
C227  C270  S    
O2    Zn3   S    
C131  H106  S    
O67   Zn16  S    
C82   H321  S    
O56   Zn10  S    
C167  O26   S    
C239  C267  S    
O73   Zn5   S    
C205  O74   A    
O45   Zn3   S    
C121  C122  S    
C80   H316  S    
C99   H30   S    
C106  H47   S    
C149  H153  S    
C35   C207  S    
C22   C46   A    
C220  C247  S    
C212  C265  S    
C174  O29   S    
H304  O88   S    
C122  H86   S    
N11   N14   A    
C155  H167  S    
C220  C237  S    
C136  H120  S    
C187  H249  S    
O48   Zn3   S    
C103  H38   S    
C194  O50   A    
C271  O127  S    
C41   C50   A    
H271  O85   S    
C29   O25   S    
C9    C27   A    
C198  O53   A    
C10   C28   A    
C182  H236  S    
C135  N12   A    
C55   H157  S    
C134  O9    S    
C12   C30   A    
C97   H23   S    
C139  H127  S    
C237  C255  S    
C114  H62   S    
C25   C42   A    
C64   H278  S    
C119  C120  S    
C235  O91   S    
C64   H277  S    
C125  H91   S    
C225  C243  S    
C74   H301  S    
C105  C106  S    
C127  H97   S    
C195  O64   A    
C160  H180  S    
C50   C113  S    
C33   O29   S    
C118  H73   S    
C67   O107  S    
C176  H221  S    
C153  H164  S    
C187  C188  S    
C86   H332  S    
C109  C110  S    
C192  C193  S    
C88   H3    S    
C224  C242  S    
C185  C186  S    
C202  O80   A    
C72   O109  S    
C140  H131  S    
C92   C93   S    
C111  C114  S    
C78   C80   S    
C267  O123  S    
C94   C95   S    
O70   Zn9   S    
O46   Zn12  S    
C109  H55   S    
C67   H286  S    
C13   C229  S    
C126  H94   S    
C239  O95   S    
O63   Zn1   S    
C73   H300  S    
C41   O37   S    
C173  H211  S    
C108  H53   S    
C270  O126  S    
O79   Zn2   S    
C241  C266  S    
C143  H138  S    
C269  O125  S    
C17   C35   A    
C18   C36   A    
C123  H88   S    
C115  C116  S    
C39   C48   A    
C251  O41   A    
C168  C246  S    
C88   H336  S    
C100  H32   S    
C165  C166  S    
C30   O26   S    
C15   O10   S    
C210  C227  S    
C222  C239  S    
C163  C164  S    
C110  H58   S    
C98   H28   S    
C105  H43   S    
C240  O40   A    
C80   H317  S    
C90   N5    A    
N3    N8    A    
C71   H294  S    
O40   Zn9   S    
O51   Zn8   S    
C132  O8    S    
C221  O112  S    
C175  H219  S    
O111  Zn16  S    
C209  C254  S    
C59   O103  S    
C7    C233  S    
C202  O58   A    
C57   C112  S    
C53   H113  S    
C136  H118  S    
C60   H266  S    
C87   H334  S    
C11   C24   A    
C146  N15   A    
C134  H116  S    
C178  H227  S    
C193  H262  S    
C206  O62   A    
C215  C268  S    
C5    C258  S    
C133  H111  S    
O62   Zn9   S    
C106  H45   S    
C174  C175  S    
C159  H176  S    
C159  C160  S    
C132  C133  S    
C212  C230  S    
C171  H207  S    
C212  O103  S    
C148  O16   S    
C160  H181  S    
C61   O104  S    
C186  H247  S    
C119  O132  S    
C164  H192  S    
C203  C258  S    
C42   C51   A    
O67   Zn11  S    
C78   O113  S    
C82   H320  S    
C182  H234  S    
C16   C24   A    
C14   O9    S    
C147  H147  S    
C254  C271  S    
C192  H260  S    
C203  O59   A    
O68   Zn15  S    
C150  H154  S    
C208  C254  S    
C132  H109  S    
C75   H305  S    
C200  O55   A    
C26   C43   A    
C163  H188  S    
C28   C45   A    
C190  O49   A    
C74   C75   S    
C40   O36   S    
C166  H197  S    
C23   O19   S    
C227  O83   S    
O52   Zn7   S    
C148  C149  S    
C226  O82   S    
C234  C252  S    
C204  O60   A    
C85   H329  S    
C134  C136  S    
C251  C262  S    
C92   O119  S    
C198  C244  S    
C87   O117  S    
C102  H37   S    
C213  C266  S    
C155  H170  S    
C238  C256  S    
C116  H69   S    
C67   C69   S    
C247  C265  S    
C215  C260  S    
C71   H292  S    
C177  H225  S    
C249  C267  S    
C129  H100  S    
O45   Zn9   S    
C16   C33   A    
O64   Zn12  S    
C115  O130  S    
C148  H150  S    
C77   H310  S    
C149  H151  S    
C119  H77   S    
C72   H297  S    
C22   C40   A    
C96   C97   S    
C100  C102  S    
C154  C155  S    
C194  C249  S    
C211  C256  S    
C95   H20   S    
C131  H108  S    
O60   Zn15  S    
C43   C135  S    
C237  O93   S    
C162  H186  S    
C30   C43   A    
C248  C266  S    
C121  H83   S    
C5    C223  S    
C131  H107  S    
C168  O69   A    
C101  N8    A    
C13   C15   A    
C138  H126  S    
C145  H143  S    
C100  O124  S    
C205  O61   A    
O58   Zn13  S    
C167  H198  S    
C110  H56   S    
C66   H283  S    
C133  H115  S    
H13   O93   S    
C172  C173  S    
C52   H79   S    
O44   Zn13  S    
C8    O4    S    
C147  H145  S    
C128  H99   S    
C69   H288  S    
C146  N11   A    
C27   O22   S    
C172  H210  S    
O57   Zn10  S    
C107  H50   S    
C88   H4    S    
O53   Zn2   S    
C84   H328  S    
C55   H168  S    
C81   H318  S    
C175  H217  S    
C10   C13   A    
C199  O68   A    
C179  C247  S    
C191  H256  S    
C223  C248  S    
C234  O90   S    
O1    Zn4   S    
O56   Zn6   S    
C137  C138  S    
C74   O110  S    
C191  H258  S    
C192  H261  S    
C180  H229  S    
C193  H264  S    
C158  H174  S    
C208  O76   A    
C220  C272  S    
C151  H158  S    
C141  C142  S    
C206  C253  S    
C230  C272  S    
C203  O81   A    
C89   H6    S    
C264  O119  S    
O81   Zn4   S    
C53   H101  S    
C156  H172  S    
C186  H245  S    
O35   Zn15  S    
C91   H8    S    
C165  H194  S    
C232  O87   S    
C80   H314  S    
O47   Zn4   S    
C5    O131  S    
C230  C247  S    
C188  H251  S    
C201  O57   A    
C222  C249  S    
C200  O77   A    
C178  O31   S    
C11   C29   A    
C65   C66   S    
C209  C226  S    
C130  H105  S    
C140  H130  S    
C48   C90   S    
C244  C261  S    
C76   H308  S    
C243  O98   S    
C137  H121  S    
H326  O91   S    
C51   C101  S    
C208  O63   A    
C143  O14   S    
C24   C218  S    
