data_mof_unit_68605.cif
_audit_creation_date              2012-12-11T17:48:23-0500
_audit_creation_method            fapswitch 2.2
_symmetry_space_group_name_H-M    P1
_symmetry_Int_Tables_number       1
_space_group_crystal_system       triclinic
_cell_length_a                    8.192043
_cell_length_b                    12.637325
_cell_length_c                    15.004478
_cell_angle_alpha                 96.638568
_cell_angle_beta                  97.927285
_cell_angle_gamma                 98.217215
_cell_volume                      1508.12950955

loop_
_atom_site_label
_atom_site_type_symbol
_atom_type_description
_atom_site_fract_x
_atom_site_fract_y
_atom_site_fract_z
_atom_type_partial_charge
Ba1   Ba    Ba6+2 0.843750 0.550210 0.455600 1.643292
Ba2   Ba    Ba6+2 0.346090 0.449880 0.544410 1.630989
C1    C     C_3   0.569036 0.923189 0.189019 -0.421633
C2    C     C_3   0.594260 0.829073 0.241099 0.380350
C3    C     C_3   0.433547 0.294001 0.265871 0.305579
C4    C     C_3   0.432569 0.273993 0.163761 -0.409016
C5    C     C_3   0.128282 0.228886 0.794467 0.372918
C6    C     C_3   0.170116 0.202800 0.890451 -0.374134
C7    C     C_3   0.618368 0.166154 0.756140 0.352478
C8    C     C_3   0.691107 0.090866 0.817237 -0.433227
C9    C     C_R   0.827416 0.427777 0.828854 -0.016038
C10   C     C_R   0.898727 0.431758 0.920971 -0.035547
C11   C     C_R   0.039333 0.449471 0.108560 -0.024983
C12   C     C_3   0.146497 0.853221 0.221769 0.308483
C13   C     C_R   0.880086 0.389942 0.074784 -0.052675
C14   C     C_R   0.810034 0.383150 0.983596 -0.108574
C15   C     C_R   0.107523 0.464437 0.203055 0.054696
C16   C     C_R   0.268430 0.522175 0.231179 -0.287067
C17   C     C_R   0.084870 0.528316 0.795400 0.037991
C18   C     C_R   0.156488 0.535841 0.888978 -0.033283
C19   C     C_R   0.063501 0.486751 0.951481 0.013130
C20   C     C_R   0.315636 0.594538 0.923099 -0.045585
C21   C     C_R   0.385786 0.600820 0.013869 -0.107858
C22   C     C_R   0.296830 0.553367 0.076446 -0.035818
C23   C     C_3   0.090403 0.891408 0.131760 -0.183095
C24   C     C_R   0.133163 0.496521 0.045598 0.014577
C25   C     C_R   0.365706 0.562882 0.169349 -0.020809
C26   C     C_R   0.922275 0.473066 0.767638 -0.288102
C27   C     C_R   0.773021 0.181166 0.534158 -0.274801
C28   C     C_R   0.423096 0.808719 0.462353 -0.284448
C29   C     C_R   0.389237 0.987525 0.431548 -0.104210
C30   C     C_R   0.324130 0.879345 0.427349 -0.030726
C31   C     C_R   0.582852 0.847232 0.510558 0.081153
C32   C     C_R   0.649005 0.959263 0.520092 -0.058398
C33   C     C_R   0.551201 0.029278 0.477423 -0.061090
C34   C     C_3   0.269216 0.780478 0.653416 0.284255
C35   C     C_R   0.615807 0.139986 0.484073 0.039473
C36   C     C_R   0.872818 0.113306 0.573375 -0.012981
C37   C     C_R   0.809358 0.003748 0.569497 -0.087891
C38   C     C_3   0.303095 0.902583 0.675486 -0.357347
C39   C     C_3   0.919524 0.220889 0.349497 0.281056
C40   C     C_3   0.917749 0.099757 0.336377 -0.352930
C41   C     C_3   0.739989 0.714445 0.740332 0.304816
C42   C     C_3   0.704693 0.761266 0.833295 -0.211889
H1    H     H_    0.691546 0.857339 0.301756 0.084738
H2    H     H_    0.409816 0.927099 0.731538 0.107561
H3    H     H_    0.333745 0.939623 0.615315 0.081476
H4    H     H_    0.190992 0.932039 0.696556 0.152745
H5    H     H_    0.794301 0.237390 0.357937 0.008242
H6    H     H_    0.010020 0.255700 0.411611 0.073513
H7    H     H_    0.860971 0.065106 0.266117 0.129306
H8    H     H_    0.844907 0.059786 0.383334 0.072351
H9    H     H_    0.047146 0.082830 0.349621 0.122943
H10   H     H_    0.865769 0.691451 0.744056 -0.001081
H11   H     H_    0.646516 0.641730 0.713016 0.062991
H12   H     H_    0.681531 0.948152 0.158552 0.128124
H13   H     H_    0.755128 0.849187 0.847914 0.130208
H14   H     H_    0.567856 0.755189 0.830479 0.092656
H15   H     H_    0.474756 0.799846 0.264198 -0.098449
H16   H     H_    0.544512 0.992439 0.235122 0.096551
H17   H     H_    0.311594 0.314964 0.279232 0.006320
H18   H     H_    0.533408 0.363529 0.293021 0.079655
H19   H     H_    0.314066 0.223631 0.129664 0.103329
H20   H     H_    0.443686 0.351686 0.135700 0.075376
H21   H     H_    0.539156 0.233310 0.148689 0.128570
H22   H     H_    0.462301 0.898212 0.132934 0.102814
H23   H     H_    0.164875 0.858359 0.082119 0.044881
H24   H     H_    0.210697 0.304474 0.788302 0.100793
H25   H     H_    0.996258 0.241532 0.783458 -0.073724
H26   H     H_    0.304649 0.197010 0.906233 0.154778
H27   H     H_    0.140707 0.266654 0.940152 0.066348
H28   H     H_    0.095443 0.124502 0.896474 0.109475
H29   H     H_    0.719658 0.203368 0.721931 -0.053602
H30   H     H_    0.520490 0.118225 0.702314 0.073738
H31   H     H_    0.789798 0.138016 0.871069 0.113099
H32   H     H_    0.746259 0.030127 0.776513 0.096258
H33   H     H_    0.160475 0.766647 0.208574 -0.005571
H34   H     H_    0.592191 0.048757 0.850190 0.126016
H35   H     H_    0.805955 0.349013 0.118458 0.097531
H36   H     H_    0.684936 0.339054 0.963198 0.105783
H37   H     H_    0.509952 0.645413 0.034541 0.101709
H38   H     H_    0.388524 0.636850 0.880343 0.097948
H39   H     H_    0.321911 0.531341 0.302256 0.068515
H40   H     H_    0.865785 0.469310 0.697547 0.073884
H41   H     H_    0.309272 0.038077 0.400520 0.092978
H42   H     H_    0.888579 0.954963 0.603758 0.116157
H43   H     H_    0.822192 0.266029 0.538106 0.062422
H44   H     H_    0.268109 0.902856 0.252199 -0.033611
H45   H     H_    0.370529 0.724345 0.457864 0.068752
H46   H     H_    0.955796 0.858460 0.108955 0.149188
H47   H     H_    0.381714 0.752104 0.633098 -0.001913
H48   H     H_    0.163246 0.757717 0.596613 0.077526
O1    O     O_2   0.827880 0.435260 0.277750 -0.471027
O2    O     O_3   0.733812 0.797355 0.687150 -0.659308
O3    O     O_3   0.026654 0.865207 0.278633 -0.586395
O4    O     O_2   0.361830 0.564780 0.722310 -0.480749
O5    O     O_3   0.089430 0.561130 0.608830 -0.492270
O6    O     O_3   0.564130 0.365960 0.666760 -0.462444
O7    O     O_3   0.232080 0.737427 0.731321 -0.643856
O8    O     O_3   0.601940 0.368240 0.453770 -0.486242
O9    O     O_3   0.133170 0.309040 0.621000 -0.486815
O10   O     O_2   0.212418 0.118696 0.566097 -0.477477
O11   O     O_3   0.153849 0.142892 0.732505 -0.600475
O12   O     O_3   0.100280 0.438960 0.391170 -0.492641
O13   O     O_3   0.587780 0.631850 0.546230 -0.496315
O14   O     O_2   0.332590 0.233690 0.456160 -0.460094
O15   O     O_3   0.461842 0.200659 0.304367 -0.655853
O16   O     O_2   0.486751 0.439123 0.825598 -0.500006
O17   O     O_3   0.544612 0.240478 0.808462 -0.595715
O18   O     O_3   0.625580 0.634130 0.333250 -0.479134
O19   O     O_2   0.706300 0.553668 0.176007 -0.470475
O20   O     O_3   0.961520 0.262313 0.271729 -0.644874
O21   O     O_3   0.648089 0.749690 0.183862 -0.590343
O22   O     O_2   0.857130 0.766340 0.543890 -0.461975
O23   O     O_3   0.056550 0.691050 0.379010 -0.465511
O24   O     O_2   0.995756 0.882240 0.448095 -0.484548
P1    P     P_3+3 0.998730 0.403530 0.291970 0.975908
P2    P     P_3+3 0.687380 0.751030 0.571310 0.964686
P3    P     P_3+3 0.102824 0.830633 0.383931 0.962597
P4    P     P_3+3 0.190990 0.596560 0.708040 0.962655
P5    P     P_3+3 0.091612 0.169665 0.622140 0.955287
P6    P     P_3+3 0.585240 0.622972 0.214966 0.967312
P7    P     P_3+3 0.505688 0.233461 0.422986 0.926166
P8    P     P_3+3 0.606668 0.370859 0.784067 0.947045
C43   C     C_3   0.777916 0.706553 0.911339 -0.270772
C44   C     C_3   0.966441 0.740488 0.933465 -0.411138
H49   H     H_    0.029299 0.715921 0.875970 0.130155
H50   H     H_    0.996934 0.829487 0.947719 0.133583
H51   H     H_    0.015445 0.703666 0.993111 0.132679
H52   H     H_    0.724226 0.732839 0.972578 0.137140
H53   H     H_    0.744193 0.617761 0.895179 0.129140
C45   C     C_3   0.122970 0.014838 0.137201 -0.192092
C46   C     C_3   0.002683 0.054132 0.066038 -0.426424
H54   H     H_    0.010011 0.014365 0.997278 0.125488
H55   H     H_    0.872639 0.035485 0.079313 0.133799
H56   H     H_    0.034350 0.142876 0.068421 0.130035
H57   H     H_    0.111459 0.054513 0.205116 0.150986
H58   H     H_    0.253233 0.040041 0.126030 0.119929

loop_
_geom_bond_atom_site_label_1
_geom_bond_atom_site_label_2
_ccdc_geom_bond_type
C38   H3    S    
C19   C24   A    
C44   H49   S    
C29   H41   S    
C26   H40   S    
C39   C40   S    
C39   H6    S    
C17   C18   A    
C23   H23   S    
C22   C25   A    
O15   P7    S    
C8    H34   S    
C5    C6    S    
O6    P8    S    
C23   H46   S    
O1    P1    D    
C20   H38   S    
C33   C35   A    
C22   C24   A    
C32   C33   A    
C40   H9    S    
O20   P1    S    
C45   H58   S    
C13   C14   A    
C41   O2    S    
C15   C16   A    
Ba1   Ba2   S    
C1    H12   S    
C12   H33   S    
C4    H20   S    
C5    H24   S    
C35   P7    S    
C8    H32   S    
C43   H52   S    
C4    H21   S    
C13   H35   S    
O21   P6    S    
C10   C14   A    
Ba2   O5    S    
C42   H14   S    
C45   C46   S    
C39   O20   S    
C27   C36   A    
C46   H56   S    
C21   C22   A    
O10   P5    D    
C7    C8    S    
C15   P1    S    
C40   H7    S    
C1    H16   S    
C34   H48   S    
C43   C44   S    
O7    P4    S    
Ba2   O8    S    
C31   P2    S    
C5    O11   S    
O19   P6    D    
C7    H29   S    
O16   P8    D    
C28   H45   S    
Ba1   O8    S    
C39   H5    S    
C25   P6    S    
C31   C32   A    
C2    H1    S    
C7    O17   S    
C36   C37   A    
C42   C43   S    
C6    H28   S    
C32   C37   A    
C2    O21   S    
C34   C38   S    
Ba1   O5    S    
Ba2   P4    S    
C44   H51   S    
O3    P3    S    
C45   H57   S    
C10   C19   A    
Ba2   O14   S    
O9    P5    S    
C14   H36   S    
C40   H8    S    
C4    H19   S    
O14   P7    D    
C38   H2    S    
C41   C42   S    
C9    P8    S    
Ba1   O18   S    
C8    H31   S    
C43   H53   S    
C41   H10   S    
C29   C30   A    
Ba2   O12   S    
C42   H13   S    
C16   H39   S    
C3    H17   S    
Ba1   P1    S    
C17   C26   A    
Ba1   O12   S    
O22   P2    D    
C34   H47   S    
C41   H11   S    
C18   C20   A    
C17   P4    S    
O23   P3    S    
C11   C13   A    
C46   H54   S    
C29   C33   A    
O13   P2    S    
C1    H22   S    
Ba1   O22   S    
C30   P3    S    
C1    C2    S    
O11   P5    S    
C12   O3    S    
O12   P1    S    
C3    O15   S    
C38   H4    S    
C6    H27   S    
C44   H50   S    
C21   H37   S    
C28   C31   A    
O4    P4    D    
C16   C25   A    
C5    H25   S    
C9    C10   A    
O17   P8    S    
Ba2   O13   S    
C6    H26   S    
Ba2   O9    S    
O24   P3    D    
C11   C15   A    
O8    P7    S    
O5    P4    S    
Ba2   O4    S    
C12   H44   S    
O18   P6    S    
C28   C30   A    
O2    P2    S    
C3    C4    S    
C9    C26   A    
C2    H15   S    
C3    H18   S    
C34   O7    S    
Ba1   P2    S    
C12   C23   S    
C11   C24   A    
C27   H43   S    
C36   P5    S    
C18   C19   A    
Ba2   O6    S    
Ba1   O1    S    
C7    H30   S    
C27   C35   A    
C46   H55   S    
C20   C21   A    
Ba1   O23   S    
C37   H42   S    
C23   C45   S    
Ba1   O13   S    
