data_mof_unit_13996.cif
_audit_creation_date              2012-12-10T17:55:03-0500
_audit_creation_method            fapswitch 2.2
_symmetry_space_group_name_H-M    P1
_symmetry_Int_Tables_number       1
_space_group_crystal_system       triclinic
_cell_length_a                    8.715433
_cell_length_b                    10.806016
_cell_length_c                    9.591953
_cell_angle_alpha                 89.71204
_cell_angle_beta                  98.08026
_cell_angle_gamma                 91.497753
_cell_volume                      894.08673475

loop_
_atom_site_label
_atom_site_type_symbol
_atom_type_description
_atom_site_fract_x
_atom_site_fract_y
_atom_site_fract_z
_atom_type_partial_charge
C1    C     C_R   0.498619 0.262318 0.500131 0.764304
C2    C     C_R   0.498975 0.737640 0.499879 0.790554
C3    C     C_R   0.203938 0.500776 0.463708 0.837647
C4    C     C_R   0.796026 0.501956 0.536120 0.882030
C5    C     C_2   0.037698 0.500222 0.443750 -0.365900
C6    C     C_2   0.962101 0.506699 0.555292 -0.386728
C7    C     C_R   0.439633 0.063289 0.377537 -0.186106
C8    C     C_R   0.550531 0.936441 0.624477 -0.182532
C9    C     C_R   0.438171 0.935191 0.377871 -0.213715
C10   C     C_R   0.549905 0.064578 0.624760 -0.168685
C11   C     C_R   0.496305 0.871515 0.500459 -0.015998
C12   C     C_R   0.496190 0.128331 0.500765 -0.018530
C13   C     C_R   0.416149 0.411816 0.064067 0.404954
C14   C     C_R   0.591814 0.582615 0.936375 0.392299
C15   C     C_R   0.417193 0.411237 0.915151 0.395521
C16   C     C_R   0.585227 0.587250 0.085464 0.384225
Cu1   Cu    Cu3+1 0.500000 0.500020 0.640660 0.996995
Cu2   Cu    Cu3+1 0.500000 0.499980 0.359340 1.001269
H1    H     H_    0.977333 0.492802 0.336803 0.178291
H2    H     H_    0.022347 0.516242 0.661724 0.155286
H3    H     H_    0.394835 0.111092 0.281665 0.197490
H4    H     H_    0.595123 0.888383 0.720485 0.176177
H5    H     H_    0.390625 0.886040 0.282898 0.143922
H6    H     H_    0.593797 0.113660 0.720946 0.164974
N1    N     N_R   0.500040 0.500030 0.852080 -0.279045
N2    N     N_R   0.499960 0.499970 0.147920 -0.277647
O1    O     O_R   0.499990 0.319660 0.618740 -0.538905
O2    O     O_R   0.500010 0.680340 0.381260 -0.549121
O3    O     O_R   0.499990 0.319630 0.381170 -0.539781
O4    O     O_R   0.500010 0.680370 0.618830 -0.548127
O5    O     O_R   0.274840 0.500010 0.591370 -0.574470
O6    O     O_R   0.725160 0.499990 0.408630 -0.539041
O7    O     O_R   0.274830 0.499980 0.353800 -0.589430
O8    O     O_R   0.725170 0.500020 0.646200 -0.565427
O9    O     O_3   0.350762 0.311395 0.126014 -0.539443
C17   C     C_3   0.191119 0.328324 0.130144 -0.249649
H7    H     H_    0.121755 0.259699 0.061205 0.139101
H8    H     H_    0.149438 0.423157 0.101327 0.116753
H9    H     H_    0.165847 0.306268 0.237715 0.174761
O10   O     O_3   0.692955 0.659409 0.875285 -0.548015
C18   C     C_3   0.846593 0.621301 0.917349 -0.296303
H10   H     H_    0.858086 0.519118 0.909785 0.143337
H11   H     H_    0.891057 0.652776 0.025786 0.178758
H12   H     H_    0.922150 0.665102 0.846190 0.170010
O11   O     O_3   0.363035 0.306496 0.839538 -0.529400
C19   C     C_3   0.200948 0.308091 0.799667 -0.201565
H13   H     H_    0.175000 0.304598 0.683375 0.177990
H14   H     H_    0.142832 0.389024 0.838826 0.088247
H15   H     H_    0.148875 0.221672 0.837115 0.149747
O12   O     O_3   0.675258 0.672034 0.171204 -0.541048
C20   C     C_3   0.637408 0.794384 0.129286 -0.253934
H16   H     H_    0.669436 0.856012 0.221375 0.181340
H17   H     H_    0.511382 0.805087 0.092174 0.128223
H18   H     H_    0.706794 0.827479 0.047481 0.184337

loop_
_geom_bond_atom_site_label_1
_geom_bond_atom_site_label_2
_ccdc_geom_bond_type
C8    H4    S    
C13   O9    S    
C5    H1    S    
C18   H11   S    
C18   H10   S    
O9    C17   S    
Cu2   N2    S    
C2    O4    A    
C20   H18   S    
Cu1   N1    S    
C3    C5    S    
C1    O3    A    
Cu1   Cu2   S    
Cu2   O2    S    
Cu2   O3    S    
O11   C19   S    
C3    O5    A    
Cu1   O4    S    
C9    C11   A    
C19   H15   S    
C4    O6    A    
C1    C12   S    
C10   C12   A    
C8    C11   A    
C2    C11   S    
C17   H8    S    
C17   H7    S    
Cu2   O7    S    
C16   O12   S    
O12   C20   S    
C4    O8    A    
C13   C15   A    
C14   N1    A    
C16   N2    A    
C5    C6    D    
Cu1   O5    S    
C18   H12   S    
C14   C16   A    
C13   N2    A    
C15   N1    A    
C4    C6    S    
Cu2   O6    S    
Cu1   O8    S    
C3    O7    A    
C14   O10   S    
C20   H16   S    
Cu1   O1    S    
C19   H14   S    
C7    C9    A    
C6    H2    S    
C8    C10   A    
C1    O1    A    
C15   O11   S    
C19   H13   S    
O10   C18   S    
C2    O2    A    
C10   H6    S    
C7    C12   A    
C7    H3    S    
C17   H9    S    
C9    H5    S    
C20   H17   S    
