data_mof_unit_23653.cif
_audit_creation_date              2012-10-26T20:03:42-0400
_audit_creation_method            fapswitch 2.2
_symmetry_space_group_name_H-M    P1
_symmetry_Int_Tables_number       1
_space_group_crystal_system       triclinic
_cell_length_a                    12.367962
_cell_length_b                    13.009249
_cell_length_c                    15.82873
_cell_angle_alpha                 77.885242
_cell_angle_beta                  101.372573
_cell_angle_gamma                 116.254417
_cell_volume                      2217.33924952

loop_
_atom_site_label
_atom_site_type_symbol
_atom_type_description
_atom_site_fract_x
_atom_site_fract_y
_atom_site_fract_z
_atom_type_partial_charge
C1    C     C_R   0.854982 0.285036 0.508545 0.543121
C2    C     C_R   0.228372 0.838110 0.469387 -0.009483
C3    C     C_R   0.814407 0.075964 0.563834 0.265693
C4    C     C_R   0.000498 0.501171 0.659850 0.530411
C5    C     C_R   0.731700 0.958194 0.571903 -0.145882
C6    C     C_R   0.610580 0.924781 0.539654 -0.138987
C7    C     C_R   0.566837 0.006261 0.493229 0.021491
C8    C     C_R   0.651926 0.121173 0.470814 -0.068841
C9    C     C_R   0.441270 0.976159 0.466441 -0.018011
C10   C     C_R   0.403702 0.056209 0.408303 0.010712
C11   C     C_R   0.490634 0.163119 0.374610 0.267738
C12   C     C_3   0.004108 0.508279 0.916220 0.049163
C13   C     C_R   0.613599 0.193794 0.404906 -0.099954
C14   C     C_R   0.351813 0.868781 0.496998 -0.178143
C15   C     C_R   0.191128 0.922108 0.418665 0.227183
C16   C     C_R   0.145004 0.714652 0.487359 0.549867
C17   C     C_R   0.773694 0.158945 0.512588 0.001137
C18   C     C_R   0.342177 0.317755 0.629135 0.221776
C19   C     C_R   0.760276 0.646412 0.382504 0.366683
C20   C     C_R   0.671083 0.688821 0.363673 -0.157468
C21   C     C_R   0.567369 0.637428 0.406579 0.207066
C22   C     C_R   0.553740 0.541390 0.473088 -0.007304
C23   C     C_3   0.108215 0.591844 0.030128 -0.141473
C24   C     C_R   0.653434 0.507558 0.495774 0.080008
C25   C     C_R   0.447388 0.477653 0.518958 -0.052536
C26   C     C_R   0.445296 0.384771 0.585359 -0.023065
C27   C     C_R   0.545624 0.358537 0.608082 -0.163858
C28   C     C_R   0.000096 0.499712 0.340124 0.525677
C29   C     C_R   0.646930 0.418874 0.565004 -0.106318
C30   C     C_R   0.340112 0.497316 0.500408 -0.015999
C31   C     C_R   0.248482 0.354086 0.616489 0.427559
C32   C     C_3   0.997125 0.400642 0.043500 -0.136111
C33   C     C_3   0.902540 0.421500 0.970761 0.259631
C34   C     C_3   0.004476 0.503197 0.083394 -0.010304
C35   C     C_1   0.002047 0.504642 0.749198 -0.034008
C36   C     C_1   0.001267 0.500184 0.250574 -0.044123
C37   C     C_3   0.098661 0.490008 0.988932 0.277656
C38   C     C_3   0.725393 0.260268 0.997991 -0.010380
C39   C     C_3   0.602156 0.182664 0.955561 -0.370764
C40   C     C_3   0.960644 0.032317 0.665907 -0.115675
C41   C     C_3   0.192621 0.323918 0.751859 0.006774
C42   C     C_3   0.085932 0.264861 0.805378 -0.350340
C43   C     C_3   0.286605 0.126167 0.632191 -0.019927
C44   C     C_3   0.274010 0.013370 0.690311 -0.381211
C45   C     C_3   0.011878 0.610500 0.956380 -0.174848
C46   C     C_3   0.835688 0.698864 0.250581 0.006171
C47   C     C_3   0.952209 0.762719 0.207711 -0.331544
C48   C     C_3   0.431426 0.688765 0.306805 -0.033123
C49   C     C_3   0.342409 0.743835 0.294878 -0.363625
C50   C     C_3   0.747436 0.567366 0.952619 -0.012172
C51   C     C_3   0.630806 0.563974 0.973275 -0.381324
C52   C     C_3   0.268954 0.459245 0.048659 -0.130137
C53   C     C_3   0.043125 0.970985 0.437874 0.005565
C54   C     C_3   0.908615 0.943014 0.418614 -0.332481
C55   C     C_3   0.475593 0.335890 0.336704 -0.137449
C56   C     C_3   0.909768 0.522130 0.010806 0.284023
C57   C     C_1   0.003305 0.507071 0.824570 -0.002564
C58   C     C_1   0.002815 0.501384 0.175050 -0.039994
C59   C     C_R   0.279371 0.028424 0.385056 -0.126070
Cu1   Cu    Cu3+1 0.098270 0.475420 0.519690 0.989904
Cu2   Cu    Cu3+1 0.901730 0.524580 0.480310 0.980838
H1    H     H_    0.375784 0.806634 0.543449 0.138976
H2    H     H_    0.017627 0.694987 0.919486 0.094811
H3    H     H_    0.193145 0.660557 0.056717 0.105205
H4    H     H_    0.249955 0.089505 0.341031 0.156511
H5    H     H_    0.709976 0.307021 0.042587 0.171835
H6    H     H_    0.770316 0.204705 0.036333 0.124333
H7    H     H_    0.613699 0.133058 0.911468 0.159728
H8    H     H_    0.545827 0.120893 0.006406 0.096955
H9    H     H_    0.554707 0.235961 0.917400 0.165464
H10   H     H_    0.960888 0.961688 0.636928 0.087542
H11   H     H_    0.896831 0.998330 0.716020 0.099554
H12   H     H_    0.554183 0.833087 0.549347 0.142552
H13   H     H_    0.052938 0.075359 0.699732 0.182818
H14   H     H_    0.230902 0.418989 0.752815 0.142654
H15   H     H_    0.262966 0.292571 0.784197 0.152724
H16   H     H_    0.057303 0.169838 0.816653 0.122678
H17   H     H_    0.112957 0.296668 0.869471 0.147655
H18   H     H_    0.007814 0.283332 0.770970 0.183023
H19   H     H_    0.349297 0.143419 0.583950 0.128920
H20   H     H_    0.195838 0.115040 0.596632 0.143852
H21   H     H_    0.211040 0.992339 0.738917 0.143240
H22   H     H_    0.237518 0.942007 0.650125 0.096000
H23   H     H_    0.758449 0.889864 0.604680 0.102048
H24   H     H_    0.364118 0.021273 0.724864 0.159768
H25   H     H_    0.774603 0.741784 0.219691 0.080356
H26   H     H_    0.792029 0.607545 0.237218 0.150297
H27   H     H_    0.019983 0.728194 0.239650 0.166766
H28   H     H_    0.932631 0.752179 0.137708 0.113415
H29   H     H_    0.991343 0.856330 0.213515 0.162893
H30   H     H_    0.379595 0.597215 0.294207 0.112635
H31   H     H_    0.495878 0.737225 0.257533 0.122107
H32   H     H_    0.391805 0.835697 0.306175 0.171669
H33   H     H_    0.294574 0.740294 0.227622 0.086869
H34   H     H_    0.678677 0.273141 0.373563 0.150212
H35   H     H_    0.273943 0.696909 0.341320 0.168304
H36   H     H_    0.722567 0.506741 0.904552 0.169588
H37   H     H_    0.803182 0.656961 0.923277 0.120449
H38   H     H_    0.652174 0.624644 0.020407 0.147882
H39   H     H_    0.580361 0.589697 0.912759 0.102141
H40   H     H_    0.572586 0.474982 0.001806 0.155150
H41   H     H_    0.216762 0.379315 0.091279 0.118675
H42   H     H_    0.306735 0.535717 0.083860 0.104948
H43   H     H_    0.346789 0.448883 0.032919 0.136161
H44   H     H_    0.093294 0.063835 0.412361 0.109709
H45   H     H_    0.546753 0.290248 0.660526 0.163325
H46   H     H_    0.066397 0.957645 0.509801 0.116051
H47   H     H_    0.891321 0.011174 0.437654 0.119315
H48   H     H_    0.878741 0.939901 0.347924 0.161457
H49   H     H_    0.855912 0.858748 0.456371 0.162673
H50   H     H_    0.573948 0.394065 0.343954 0.129661
H51   H     H_    0.436361 0.317761 0.398645 0.117013
H52   H     H_    0.429793 0.382419 0.287192 0.123300
H53   H     H_    0.326297 0.557231 0.447139 0.204827
H54   H     H_    0.992138 0.316309 0.080225 0.088352
H55   H     H_    0.685865 0.767160 0.318251 0.102562
H56   H     H_    0.718698 0.392425 0.588611 0.191638
N1    N     N_R   0.246280 0.438200 0.549540 -0.271536
N2    N     N_R   0.754330 0.561180 0.450980 -0.240263
O1    O     O_R   0.972510 0.318130 0.524770 -0.397338
O2    O     O_3   0.935978 0.113942 0.600360 -0.518149
O3    O     O_3   0.152313 0.297700 0.665595 -0.483940
O4    O     O_3   0.331821 0.216461 0.683795 -0.583402
O5    O     O_3   0.864329 0.703201 0.341239 -0.469252
O6    O     O_3   0.492121 0.694177 0.392703 -0.575497
O7    O     O_3   0.810711 0.535708 0.030280 -0.568523
O8    O     O_3   0.197490 0.475272 0.970344 -0.573859
O9    O     O_3   0.069150 0.898238 0.397828 -0.508994
O10   O     O_3   0.455319 0.233190 0.307163 -0.583048
O11   O     O_R   0.806530 0.359650 0.491510 -0.555697
O12   O     O_R   0.082970 0.479240 0.637550 -0.469724
O13   O     O_R   0.916990 0.520750 0.604290 -0.523198
O14   O     O_R   0.193470 0.640350 0.508490 -0.532697
O15   O     O_R   0.027490 0.681870 0.475230 -0.399533
O16   O     O_R   0.083010 0.479250 0.395710 -0.524423
O17   O     O_R   0.917030 0.520760 0.362450 -0.470498
O18   O     O_3   0.795917 0.337355 0.932506 -0.570028

loop_
_geom_bond_atom_site_label_1
_geom_bond_atom_site_label_2
_ccdc_geom_bond_type
C52   H42   S    
C34   C56   S    
C8    C13   A    
C23   C45   S    
C40   H10   S    
C55   H51   S    
Cu2   N2    S    
C28   O16   A    
C41   C42   S    
C19   C20   A    
C18   C26   A    
C43   C44   S    
C44   H22   S    
C16   O15   A    
C7    C8    A    
C4    O13   A    
C53   C54   S    
C40   O2    S    
C52   H41   S    
C26   C27   A    
C13   H34   S    
C36   C58   T    
C38   C39   S    
C27   C29   A    
C14   H1    S    
C25   C30   A    
C54   H49   S    
C39   H7    S    
C12   C37   S    
C24   C29   A    
Cu2   O13   S    
C48   O6    S    
C38   O18   S    
C52   H43   S    
C38   H5    S    
C45   C56   S    
C33   O18   S    
C55   O10   S    
C48   H30   S    
Cu1   N1    S    
C50   O7    S    
C56   O7    S    
C49   H33   S    
C2    C16   S    
C9    C10   A    
C18   O4    S    
C33   C56   S    
C4    C35   S    
C19   N2    A    
C42   H18   S    
C49   H35   S    
C40   H11   S    
C21   C22   A    
C46   H25   S    
C47   H28   S    
C46   O5    S    
C1    C17   S    
C16   O14   A    
C11   O10   S    
Cu1   O12   S    
C52   O8    S    
Cu2   O15   S    
C4    O12   A    
C51   H38   S    
C19   O5    S    
C50   H37   S    
C1    O11   A    
C20   H55   S    
C5    H23   S    
C30   N1    A    
C27   H45   S    
C43   H19   S    
C23   C37   S    
C29   H56   S    
C45   H2    S    
C54   H48   S    
Cu1   Cu2   S    
C1    O1    A    
C32   C34   S    
C41   O3    S    
C9    C14   A    
C31   N1    A    
C53   O9    S    
C41   H14   S    
C53   H46   S    
C23   C34   S    
C50   C51   S    
C39   H8    S    
C32   C37   S    
C38   H6    S    
C2    C15   A    
Cu1   O16   S    
Cu2   O11   S    
C12   C57   S    
C23   H3    S    
C22   C25   A    
C42   H17   S    
C15   O9    S    
C43   H20   S    
C47   H29   S    
C22   C24   A    
C21   O6    S    
C44   H24   S    
C43   O4    S    
C6    H12   S    
C46   H26   S    
C30   H53   S    
C51   H39   S    
C7    C9    A    
C46   C47   S    
C48   C49   S    
C24   N2    A    
C50   H36   S    
C55   H50   S    
C28   O17   A    
C15   C59   A    
C31   O3    S    
C12   C45   S    
C3    C5    A    
C6    C7    A    
C51   H40   S    
C55   H52   S    
C44   H21   S    
C8    C17   A    
C54   H47   S    
C35   C57   T    
C47   H27   S    
C10   C59   A    
C25   C26   A    
C32   C33   S    
C41   H15   S    
C11   C13   A    
C5    C6    A    
C39   H9    S    
C40   H13   S    
C3    C17   A    
C32   H54   S    
C2    C14   A    
C10   C11   A    
Cu1   O1    S    
C53   H44   S    
C20   C21   A    
C28   C36   S    
C42   H16   S    
C48   H31   S    
C34   C58   S    
C18   C31   A    
C49   H32   S    
C12   C33   S    
Cu1   O14   S    
C59   H4    S    
C3    O2    S    
Cu2   O17   S    
C37   O8    S    
