data_mof_unit_18517.cif
_audit_creation_date              2012-12-10T19:44:27-0500
_audit_creation_method            fapswitch 2.2
_symmetry_space_group_name_H-M    P1
_symmetry_Int_Tables_number       1
_space_group_crystal_system       triclinic
_cell_length_a                    10.880309
_cell_length_b                    12.291627
_cell_length_c                    13.25788
_cell_angle_alpha                 117.142311
_cell_angle_beta                  78.608214
_cell_angle_gamma                 100.34792
_cell_volume                      1538.5595119

loop_
_atom_site_label
_atom_site_type_symbol
_atom_type_description
_atom_site_fract_x
_atom_site_fract_y
_atom_site_fract_z
_atom_type_partial_charge
C1    C     C_R   0.502668 0.854986 0.287771 0.763792
C2    C     C_R   0.780697 0.663408 0.669705 0.214633
C3    C     C_R   0.044736 0.929655 0.537755 -0.222859
C4    C     C_R   0.130734 0.998920 0.491730 -0.091963
C5    C     C_R   0.087344 0.064062 0.443426 -0.001762
C6    C     C_R   0.958024 0.063628 0.449760 -0.221296
C7    C     C_R   0.871290 0.993835 0.496668 -0.083946
C8    C     C_R   0.916506 0.922089 0.537106 -0.003935
C9    C     C_R   0.171995 0.257568 0.424158 -0.155445
C10   C     C_R   0.255839 0.320840 0.369966 -0.158604
C11   C     C_R   0.341760 0.257878 0.275584 -0.138120
C12   C     C_R   0.737255 0.997938 0.499435 0.791228
C13   C     C_R   0.340770 0.130727 0.232343 -0.118499
C14   C     C_R   0.255626 0.066628 0.285085 -0.088292
C15   C     C_R   0.172808 0.130280 0.383235 0.121830
C16   C     C_R   0.325888 0.269324 0.020766 -0.219756
C17   C     C_R   0.439270 0.230529 0.832921 -0.055382
C18   C     C_R   0.520025 0.821718 0.086491 -0.204982
C19   C     C_R   0.509118 0.747482 0.971673 -0.131353
C20   C     C_R   0.474402 0.622078 0.933729 -0.143871
C21   C     C_R   0.440665 0.570257 0.012098 0.081655
C22   C     C_R   0.427236 0.650054 0.130558 0.084769
C23   C     C_R   0.476808 0.146067 0.713129 0.814068
C24   C     C_R   0.416444 0.441725 0.976521 0.076014
C25   C     C_R   0.352220 0.396383 0.055582 0.172392
C26   C     C_R   0.315582 0.478766 0.168238 -0.258790
C27   C     C_R   0.354990 0.603607 0.206196 -0.205761
C28   C     C_R   0.460487 0.357320 0.866103 -0.243592
C29   C     C_R   0.370532 0.186848 0.910593 -0.184229
C30   C     C_R   0.482511 0.774065 0.167475 -0.103881
C31   C     C_R   0.687922 0.335590 0.317739 -0.328452
C32   C     C_R   0.331963 0.763326 0.648230 0.622958
C33   C     C_R   0.300673 0.668182 0.682148 -0.347899
C34   C     C_R   0.263499 0.999461 0.496582 0.782705
C35   C     C_R   0.365315 0.564425 0.627029 -0.256546
C36   C     C_R   0.461978 0.552729 0.535825 -0.005006
C37   C     C_R   0.491855 0.651576 0.504116 0.203640
C38   C     C_R   0.529413 0.446492 0.474531 -0.001729
C39   C     C_R   0.621497 0.439028 0.380180 0.157539
C40   C     C_R   0.648661 0.535887 0.350179 -0.280841
C41   C     C_R   0.588656 0.641649 0.413648 -0.140853
C42   C     C_R   0.508123 0.345421 0.501227 0.077778
C43   C     C_R   0.662467 0.239418 0.348548 0.075111
C44   C     C_R   0.758970 0.786686 0.737325 -0.180739
C45   C     C_R   0.788061 0.871015 0.690179 -0.149173
C46   C     C_R   0.840502 0.832325 0.575223 0.141959
C47   C     C_R   0.858385 0.707705 0.507400 -0.201673
C48   C     C_R   0.828452 0.623871 0.554429 -0.141071
Cu1   Cu    Cu3+1 0.529370 0.098270 0.475420 0.953375
Cu2   Cu    Cu3+1 0.470630 0.901730 0.524580 0.964152
H1    H     H_    0.409131 0.307651 0.235814 0.148735
H2    H     H_    0.406411 0.082057 0.158396 0.120158
H3    H     H_    0.256248 0.968131 0.251422 0.104660
H4    H     H_    0.349344 0.089202 0.885761 0.179067
H5    H     H_    0.259780 0.446380 0.228197 0.144495
H6    H     H_    0.271483 0.233581 0.078783 0.147368
H7    H     H_    0.515321 0.389259 0.805817 0.181019
H8    H     H_    0.556304 0.917219 0.111894 0.149823
H9    H     H_    0.469400 0.567788 0.843339 0.145131
H10   H     H_    0.530317 0.786733 0.911278 0.142650
H11   H     H_    0.727561 0.818948 0.827769 0.143588
H12   H     H_    0.322129 0.662665 0.293788 0.179779
H13   H     H_    0.712135 0.158325 0.300270 0.122767
H14   H     H_    0.721152 0.532238 0.279919 0.151278
H15   H     H_    0.758812 0.329240 0.245759 0.142182
H16   H     H_    0.438937 0.341848 0.570176 0.118954
H17   H     H_    0.336258 0.494484 0.656950 0.156739
H18   H     H_    0.226041 0.674325 0.751447 0.156576
H19   H     H_    0.624163 0.714550 0.390334 0.207265
H20   H     H_    0.779829 0.967647 0.745284 0.132155
H21   H     H_    0.903985 0.677214 0.419937 0.136405
H22   H     H_    0.847959 0.529297 0.502422 0.158271
H23   H     H_    0.077322 0.878100 0.573754 0.193804
H24   H     H_    0.925509 0.115256 0.413908 0.160752
H25   H     H_    0.108025 0.307920 0.498982 0.143427
H26   H     H_    0.255682 0.419110 0.402472 0.142005
N1    N     N_R   0.573890 0.246290 0.438210 -0.178655
N2    N     N_R   0.426890 0.754320 0.561170 -0.222573
O1    O     O_R   0.536940 0.972510 0.318130 -0.588349
O2    O     O_R   0.487330 0.806530 0.359650 -0.616930
O3    O     O_R   0.705160 0.082990 0.479250 -0.574696
O4    O     O_R   0.655550 0.917010 0.520760 -0.599072
O5    O     O_R   0.512670 0.193470 0.640350 -0.585262
O6    O     O_R   0.463060 0.027490 0.681870 -0.536063
O7    O     O_R   0.344450 0.082990 0.479240 -0.581667
O8    O     O_R   0.294840 0.917010 0.520750 -0.549267
I1    I     I_    0.757390 0.538536 0.741674 -0.474630
O9    O     O_3   0.268365 0.866857 0.702034 -0.720125
H27   H     H_    0.202496 0.859085 0.762500 0.288943

loop_
_geom_bond_atom_site_label_1
_geom_bond_atom_site_label_2
_ccdc_geom_bond_type
C17   C29   A    
C35   C36   A    
C26   H5    S    
C43   H13   S    
C7    C8    A    
C28   H7    S    
C26   C27   A    
C17   C23   S    
C31   C43   A    
C36   C37   A    
C38   C42   A    
C5    C6    A    
C29   H4    S    
C32   O9    S    
C18   C19   A    
C34   O8    A    
Cu1   O3    S    
C10   H26   S    
C18   H8    S    
C19   C20   A    
Cu1   N1    S    
C18   C30   A    
C9    C10   A    
C13   C14   A    
C48   H22   S    
Cu2   N2    S    
C25   C26   A    
C6    H24   S    
C7    C12   S    
C4    C34   S    
C23   O6    A    
Cu2   O6    S    
Cu1   O7    S    
C24   C25   A    
C3    C8    A    
C2    C44   A    
C39   C40   A    
C2    C48   A    
C16   C29   A    
C45   C46   A    
Cu1   O1    S    
C34   O7    A    
C16   H6    S    
C27   H12   S    
C13   H2    S    
C47   C48   A    
C35   H17   S    
C12   O4    A    
C2    I1    S    
C20   C21   A    
C20   H9    S    
C47   H21   S    
C23   O5    A    
C40   C41   A    
C22   C27   A    
C1    O1    A    
C3    C4    A    
C44   C45   A    
Cu2   O4    S    
C41   H19   S    
C16   C25   A    
C31   H15   S    
C46   C47   A    
C22   C30   A    
C45   H20   S    
C17   C28   A    
C24   C28   A    
C4    C5    A    
Cu2   O2    S    
C6    C7    A    
C44   H11   S    
C43   N1    A    
C37   N2    A    
C40   H14   S    
C32   C33   A    
Cu1   O5    S    
C36   C38   A    
C9    C15   A    
C11   C13   A    
C38   C39   A    
C1    C30   S    
C33   C35   A    
C31   C39   A    
C12   O3    A    
C37   C41   A    
C3    H23   S    
C8    C46   S    
C5    C15   S    
C11   H1    S    
C10   C11   A    
Cu2   O8    S    
C32   N2    A    
C14   H3    S    
O9    H27   S    
C42   N1    A    
Cu1   Cu2   S    
C21   C24   A    
C42   H16   S    
C1    O2    A    
C14   C15   A    
C19   H10   S    
C9    H25   S    
C21   C22   A    
C33   H18   S    
