data_mof_unit_12647.cif
_audit_creation_date              2013-03-05T16:17:52-0500
_audit_creation_method            fapswitch 2.2
_symmetry_space_group_name_H-M    P1
_symmetry_Int_Tables_number       1
_space_group_crystal_system       triclinic
_cell_length_a                    16.096454
_cell_length_b                    15.796458
_cell_length_c                    9.815453
_cell_angle_alpha                 90.378279
_cell_angle_beta                  90.086688
_cell_angle_gamma                 89.596175
_cell_volume                      2495.62632679

loop_
_atom_site_label
_atom_site_type_symbol
_atom_site_description
_atom_site_fract_x
_atom_site_fract_y
_atom_site_fract_z
_atom_type_partial_charge
O1    O     O_R   0.092530 0.407440 0.616040 -0.580905
O2    O     O_R   0.092530 0.407440 0.383960 -0.589055
O3    O     O_R   0.092530 0.592560 0.383960 -0.530764
O4    O     O_R   0.092530 0.592560 0.616040 -0.540084
O5    O     O_R   0.592530 0.907440 0.616040 -0.571297
O6    O     O_R   0.592530 0.907440 0.383960 -0.586884
O7    O     O_R   0.592530 0.092560 0.383960 -0.537522
O8    O     O_R   0.592530 0.092560 0.616040 -0.527617
C1    C     C_R   0.126760 0.386361 0.500163 1.003802
C2    C     C_R   0.121263 0.622633 0.500672 0.988884
C3    C     C_R   0.625883 0.885602 0.499569 0.967177
C4    C     C_R   0.623184 0.120267 0.501139 0.991342
O9    O     O_R   0.907330 0.407420 0.616040 -0.593200
O10   O     O_R   0.907330 0.407420 0.383960 -0.591230
O11   O     O_R   0.907330 0.592580 0.383960 -0.601984
O12   O     O_R   0.907330 0.592580 0.616040 -0.577473
O13   O     O_R   0.407330 0.907420 0.616040 -0.598183
O14   O     O_R   0.407330 0.907420 0.383960 -0.603456
O15   O     O_R   0.407330 0.092580 0.383960 -0.592113
O16   O     O_R   0.407330 0.092580 0.616040 -0.578101
C5    C     C_R   0.890670 0.368538 0.498276 1.096153
C6    C     C_R   0.878424 0.622944 0.499685 1.115775
C7    C     C_R   0.391153 0.868506 0.499864 1.062010
C8    C     C_R   0.378665 0.122791 0.500699 1.136266
Zn1   Zn    Zn3+2 0.999890 0.500000 0.654960 1.106344
Zn2   Zn    Zn3+2 0.999890 0.500000 0.345040 1.099951
Zn3   Zn    Zn3+2 0.499890 1.000000 0.654960 1.109193
Zn4   Zn    Zn3+2 0.499890 1.000000 0.345040 1.093912
C9    C     C_3   0.822198 0.248213 0.629452 0.165461
C10   C     C_3   0.827014 0.232852 0.374072 0.139063
C11   C     C_3   0.825263 0.759817 0.383036 0.175407
C12   C     C_3   0.808157 0.744481 0.635470 0.168908
C13   C     C_3   0.309156 0.763406 0.647582 0.149489
C14   C     C_3   0.341745 0.718538 0.409704 0.176902
C15   C     C_3   0.305388 0.241458 0.360871 0.127823
C16   C     C_3   0.325578 0.263084 0.615636 0.196702
H1    H     H_    0.801999 0.291096 0.712123 0.219461
H2    H     H_    0.843438 0.263440 0.277039 0.235854
H3    H     H_    0.823157 0.726943 0.283631 0.224805
H4    H     H_    0.804471 0.699464 0.720985 0.237794
H5    H     H_    0.295087 0.817144 0.715634 0.229236
H6    H     H_    0.366405 0.738735 0.310314 0.242903
H7    H     H_    0.307269 0.198636 0.271856 0.245663
H8    H     H_    0.307182 0.239376 0.716652 0.226195
C17   C     C_3   0.237618 0.697750 0.646684 0.155562
C18   C     C_3   0.262974 0.662904 0.397925 0.124750
C19   C     C_3   0.227815 0.299920 0.354055 0.096371
C20   C     C_3   0.273071 0.343791 0.586585 0.097930
C21   C     C_3   0.761959 0.172556 0.618989 0.150459
C22   C     C_3   0.743897 0.183890 0.364086 0.108272
C23   C     C_3   0.761397 0.833708 0.389358 0.120133
C24   C     C_3   0.737577 0.810536 0.639689 0.142500
H9    H     H_    0.263381 0.633978 0.670150 0.223433
H10   H     H_    0.276971 0.595451 0.421866 0.180629
H11   H     H_    0.245886 0.361904 0.311206 0.225277
H12   H     H_    0.309876 0.389013 0.525289 0.216158
H13   H     H_    0.796593 0.113632 0.592245 0.202458
H14   H     H_    0.755823 0.115664 0.342720 0.212277
H15   H     H_    0.792759 0.893107 0.421981 0.193845
H16   H     H_    0.762735 0.875138 0.657482 0.208676
C25   C     C_3   0.732832 0.348169 0.489053 0.221866
C26   C     C_3   0.715738 0.657852 0.460208 0.237788
C27   C     C_3   0.238906 0.845186 0.455367 0.234370
C28   C     C_3   0.217308 0.156548 0.538196 0.235152
C29   C     C_3   0.821659 0.300303 0.495207 -0.418703
C30   C     C_3   0.808776 0.693400 0.497468 -0.457090
C31   C     C_3   0.323636 0.799120 0.501521 -0.431575
C32   C     C_3   0.309477 0.192957 0.503447 -0.418015
C33   C     C_3   0.192278 0.690739 0.501684 -0.441990
C34   C     C_3   0.193809 0.318028 0.501754 -0.386913
C35   C     C_3   0.693735 0.188423 0.503312 -0.429802
C36   C     C_3   0.690924 0.816328 0.497278 -0.415914
C37   C     C_3   0.161856 0.782243 0.463162 0.576126
C38   C     C_3   0.157011 0.235504 0.562980 0.546040
C39   C     C_3   0.660271 0.281640 0.521733 0.554571
C40   C     C_3   0.647626 0.731883 0.463954 0.583013
C41   C     C_3   0.076202 0.462004 0.078486 0.299989
C42   C     C_3   0.081070 0.475900 0.920474 0.283471
C43   C     C_3   0.966298 0.580480 0.920991 0.291077
C44   C     C_3   0.981026 0.584936 0.078813 0.259268
C45   C     C_3   0.579556 0.972788 0.079748 0.283804
C46   C     C_3   0.575608 0.962478 0.921380 0.316494
C47   C     C_3   0.479107 0.084835 0.921819 0.260856
C48   C     C_3   0.469923 0.082271 0.080982 0.288225
H17   H     H_    0.074763 0.392227 0.093555 0.149762
H18   H     H_    0.100965 0.414908 0.874007 0.180416
H19   H     H_    0.897739 0.584514 0.904505 0.114950
H20   H     H_    0.924745 0.612657 0.127690 0.134586
H21   H     H_    0.593228 0.909346 0.121016 0.179625
H22   H     H_    0.573881 0.893278 0.902253 0.162814
H23   H     H_    0.418986 0.107491 0.879266 0.151771
H24   H     H_    0.402314 0.090335 0.102968 0.113139
H25   H     H_    0.934783 0.380408 0.126850 0.250879
H26   H     H_    0.960844 0.370503 0.890421 0.252011
H27   H     H_    0.877303 0.443043 0.870862 0.270369
H28   H     H_    0.869732 0.470834 0.106425 0.272399
H29   H     H_    0.453184 0.872780 0.110937 0.251395
H30   H     H_    0.436248 0.879883 0.873299 0.265617
H31   H     H_    0.369279 0.968588 0.886917 0.261042
H32   H     H_    0.374576 0.951784 0.123938 0.279664
C49   C     C_3   0.931958 0.444390 0.080362 -0.436933
C50   C     C_3   0.939826 0.435709 0.917921 -0.473845
C51   C     C_3   0.436994 0.938647 0.080483 -0.447799
C52   C     C_3   0.431679 0.944553 0.917754 -0.461921
N1    N     N_3   0.998760 0.500000 0.138610 -0.191189
N2    N     N_3   0.998760 0.500000 0.861390 -0.192545
N3    N     N_3   0.498760 1.000000 0.138610 -0.203150
N4    N     N_3   0.498760 1.000000 0.861390 -0.194004
Cl1   Cl    Cl    0.919646 0.213698 0.696491 -0.341974
Cl2   Cl    Cl    0.905023 0.152263 0.380924 -0.359445
Cl3   Cl    Cl    0.925241 0.802849 0.370694 -0.334498
Cl4   Cl    Cl    0.899950 0.801369 0.676711 -0.319380
Cl5   Cl    Cl    0.396558 0.722906 0.739956 -0.351086
Cl6   Cl    Cl    0.421920 0.646377 0.457314 -0.331978
Cl7   Cl    Cl    0.392825 0.305474 0.322981 -0.355142
Cl8   Cl    Cl    0.429663 0.291162 0.643284 -0.309803
Cl9   Cl    Cl    0.175998 0.728300 0.790473 -0.231512
Cl10  Cl    Cl    0.240210 0.659618 0.220514 -0.257268
Cl11  Cl    Cl    0.155522 0.259992 0.229593 -0.398669
Cl12  Cl    Cl    0.258576 0.400497 0.742004 -0.397455
Cl13  Cl    Cl    0.731179 0.158354 0.790633 -0.267424
Cl14  Cl    Cl    0.692919 0.220226 0.212666 -0.257091
Cl15  Cl    Cl    0.730438 0.852749 0.217995 -0.401523
Cl16  Cl    Cl    0.682440 0.790948 0.795675 -0.378022
N5    N     N_R   0.736493 0.420491 0.585934 0.244336
O17   O     O_R   0.727021 0.414600 0.717107 -0.271736
O18   O     O_R   0.781391 0.482884 0.546402 -0.371374
N6    N     N_R   0.715973 0.385945 0.352551 0.287753
O19   O     O_R   0.650493 0.433538 0.335104 -0.136622
O20   O     O_R   0.769491 0.384140 0.253726 -0.335840
N7    N     N_R   0.720849 0.615962 0.323002 0.238793
O21   O     O_R   0.763604 0.546915 0.310044 -0.290837
O22   O     O_R   0.706276 0.655803 0.209770 -0.255824
N8    N     N_R   0.684272 0.595852 0.558272 0.277451
O23   O     O_R   0.702871 0.600418 0.687197 -0.268035
O24   O     O_R   0.620811 0.549628 0.523565 -0.148740
N9    N     N_R   0.227537 0.919672 0.545455 0.230183
O25   O     O_R   0.198105 0.914897 0.668514 -0.248022
O26   O     O_R   0.273823 0.983931 0.519571 -0.387304
N10   N     N_R   0.245223 0.878890 0.313848 0.253850
O27   O     O_R   0.191753 0.935680 0.274306 -0.153551
O28   O     O_R   0.286114 0.839734 0.218351 -0.354913
N11   N     N_R   0.184983 0.103575 0.423515 0.284013
O29   O     O_R   0.228869 0.088053 0.315219 -0.320436
O30   O     O_R   0.117532 0.059370 0.438756 -0.124135
N12   N     N_R   0.213749 0.104432 0.664183 0.269074
O31   O     O_R   0.275098 0.098175 0.749687 -0.376988
O32   O     O_R   0.143009 0.071980 0.700710 -0.122961
Cl17  Cl    Cl    0.079322 0.816347 0.571449 -0.232438
Cl18  Cl    Cl    0.106223 0.784068 0.308626 -0.233197
Cl19  Cl    Cl    0.058614 0.219996 0.490217 -0.343253
Cl20  Cl    Cl    0.132238 0.251294 0.742438 -0.399550
Cl21  Cl    Cl    0.615911 0.297114 0.685358 -0.241875
Cl22  Cl    Cl    0.570469 0.294866 0.418978 -0.253433
Cl23  Cl    Cl    0.579647 0.736764 0.316585 -0.375328
Cl24  Cl    Cl    0.569599 0.718517 0.593613 -0.308663
Cl25  Cl    Cl    0.169655 0.486205 0.166306 -0.385584
Cl26  Cl    Cl    0.160760 0.547201 0.876360 -0.292021
Cl27  Cl    Cl    0.998757 0.670615 0.831585 -0.286504
Cl28  Cl    Cl    0.060911 0.655439 0.112733 -0.236425
Cl29  Cl    Cl    0.663820 0.036187 0.134098 -0.321444
Cl30  Cl    Cl    0.668504 0.988291 0.836476 -0.356809
Cl31  Cl    Cl    0.548591 0.162919 0.871457 -0.242439
Cl32  Cl    Cl    0.508968 0.172104 0.167258 -0.269403

loop_
_geom_bond_atom_site_label_1
_geom_bond_atom_site_label_2
_geom_bond_distance
_ccdc_geom_bond_type
C11   C30   1.566234 S    
C45   N3    1.483602 S    
Zn3   N4    2.026314 S    
C49   C50   1.604528 S    
C37   Cl18  1.760584 S    
C23   Cl15  1.780453 S    
C27   N10   1.494758 S    
N10   O27   1.299549 A    
C22   Cl14  1.792400 S    
C36   C40   1.542323 S    
C38   Cl20  1.821783 S    
N6    O19   1.302086 A    
C43   H19   1.116547 S    
O4    Zn1   2.132410 S    
C20   Cl12  1.778792 S    
C9    C21   1.547079 S    
C41   C42   1.570003 S    
C25   C39   1.610705 S    
N9    O26   1.290195 A    
C10   H2    1.104131 S    
O13   C7    1.318367 A    
C10   Cl2   1.783295 S    
C28   C32   1.632269 S    
O10   C5    1.311686 A    
C9    Cl1   1.783320 S    
N10   O28   1.297269 A    
O5    C3    1.306986 A    
C43   Cl27  1.760316 S    
C44   Cl28  1.737424 S    
Zn4   N3    2.026259 S    
C28   N12   1.491496 S    
N11   O29   1.298256 A    
C48   N3    1.491554 S    
C21   H13   1.111744 S    
C47   N4    1.493926 S    
C18   Cl10  1.779465 S    
N11   O30   1.304343 A    
C7    C31   1.549119 S    
C28   C38   1.592616 S    
C12   C24   1.537543 S    
C18   C33   1.586205 S    
C24   H16   1.113165 S    
O5    Zn3   2.114465 S    
C42   Cl26  1.769159 S    
O11   C6    1.314560 A    
O6    Zn4   2.117136 S    
O16   C8    1.313315 A    
C14   H6    1.103693 S    
C34   C38   1.560020 S    
C33   C37   1.571225 S    
C14   C18   1.551533 S    
C46   N4    1.490034 S    
C15   H7    1.101751 S    
C48   Cl32  1.766614 S    
H27   C50   1.112330 S    
C5    C29   1.553388 S    
C42   H18   1.108650 S    
C19   Cl11  1.800062 S    
H31   C52   1.113470 S    
C10   C22   1.552721 S    
C19   H11   1.109055 S    
C41   H17   1.113476 S    
H28   C49   1.112046 S    
O1    Zn1   2.114465 S    
C27   N9    1.477678 S    
C26   C40   1.597629 S    
Zn2   N1    2.026259 S    
Zn1   N2    2.026314 S    
C45   C46   1.563141 S    
N12   O32   1.303756 A    
C49   N1    1.503189 S    
O7    C4    1.323855 A    
C27   C31   1.607281 S    
C26   C30   1.642961 S    
C17   C33   1.602010 S    
O14   C7    1.323746 A    
C22   H14   1.111994 S    
O14   Zn4   2.131721 S    
C1    C34   1.521160 S    
H25   C49   1.112267 S    
O6    C3    1.302155 A    
C3    C36   1.509170 S    
O11   Zn2   2.113776 S    
N8    O24   1.303402 A    
C46   Cl30  1.764521 S    
C44   N1    1.493512 S    
C40   Cl24  1.803827 S    
H32   C51   1.109782 S    
O7    Zn4   2.128139 S    
C43   N2    1.487683 S    
O13   Zn3   2.127448 S    
C22   C35   1.589280 S    
C19   C34   1.574125 S    
C13   C17   1.555115 S    
C24   C36   1.588632 S    
C11   C23   1.550933 S    
C39   Cl21  1.773373 S    
C47   C48   1.570267 S    
O8    C4    1.310806 A    
C21   Cl13  1.772934 S    
C18   H10   1.114030 S    
O1    C1    1.304763 A    
O2    Zn2   2.117136 S    
O10   Zn2   2.131721 S    
C15   Cl7   1.779976 S    
O15   Zn4   2.113776 S    
H29   C51   1.113501 S    
C9    C29   1.558061 S    
C28   N11   1.493300 S    
C4    C35   1.570363 S    
N5    O17   1.300763 A    
C38   Cl19  1.754527 S    
C16   H8    1.103807 S    
C23   H15   1.113545 S    
C23   C36   1.579897 S    
O4    C2    1.316692 A    
N7    O21   1.291243 A    
C16   Cl8   1.756367 S    
C52   N4    1.503547 S    
C47   H23   1.111259 S    
C13   C31   1.562527 S    
C12   C30   1.572100 S    
N12   O31   1.298652 A    
C17   Cl9   1.788035 S    
O12   Zn1   2.116449 S    
C20   H12   1.111742 S    
C47   Cl31  1.745249 S    
O12   C6    1.324148 A    
C12   Cl4   1.779497 S    
C37   Cl17  1.780867 S    
C45   Cl29  1.771198 S    
C26   N7    1.498707 S    
O3    Zn2   2.128139 S    
O9    Zn1   2.127448 S    
C20   C34   1.576795 S    
N7    O22   1.301052 A    
N6    O20   1.298316 A    
C14   C31   1.580476 S    
C51   N3    1.502607 S    
C16   C32   1.579232 S    
C6    C30   1.574366 S    
N8    O23   1.301601 A    
O16   Zn3   2.116449 S    
C14   Cl6   1.779795 S    
C27   C37   1.597266 S    
N9    O25   1.300979 A    
C40   Cl23  1.814133 S    
C13   Cl5   1.789344 S    
C46   H22   1.108437 S    
C42   N2    1.493351 S    
C13   H5    1.099219 S    
C26   N8    1.470757 S    
C41   N1    1.499803 S    
O15   C8    1.320940 A    
C45   H21   1.103997 S    
C44   H20   1.111561 S    
O3    C2    1.321453 A    
O9    C5    1.333145 A    
C35   C39   1.573748 S    
C24   Cl16  1.800506 S    
C39   Cl22  1.773259 S    
C15   C32   1.600918 S    
H30   C52   1.110188 S    
C11   H3    1.102842 S    
C16   C20   1.552368 S    
C25   N6    1.494004 S    
C12   H4    1.105608 S    
C10   C29   1.593317 S    
C8    C32   1.565828 S    
C17   H9    1.112081 S    
C43   C44   1.567972 S    
C2    C33   1.575218 S    
C25   C29   1.613948 S    
H26   C50   1.113538 S    
C21   C35   1.598145 S    
C50   N2    1.503923 S    
C9    H1    1.101575 S    
C51   C52   1.602725 S    
N5    O18   1.288474 A    
O8    Zn3   2.132410 S    
C11   Cl3   1.756037 S    
C25   N5    1.483020 S    
C48   H24   1.116027 S    
C15   C19   1.549448 S    
O2    C1    1.309930 A    
C41   Cl25  1.775339 S    
