data_mof_unit_11859.cif
_audit_creation_date              2012-12-11T15:47:02-0500
_audit_creation_method            fapswitch 2.2
_symmetry_space_group_name_H-M    P1
_symmetry_Int_Tables_number       1
_space_group_crystal_system       triclinic
_cell_length_a                    20.147615
_cell_length_b                    7.256596
_cell_length_c                    13.5624
_cell_angle_alpha                 90.272133
_cell_angle_beta                  102.980935
_cell_angle_gamma                 89.750191
_cell_volume                      1932.15974228

loop_
_atom_site_label
_atom_site_type_symbol
_atom_type_description
_atom_site_fract_x
_atom_site_fract_y
_atom_site_fract_z
_atom_type_partial_charge
O1    O     O_R   0.449560 0.506810 0.599700 -0.535478
O2    O     O_R   0.550440 0.006810 0.400300 -0.535711
O3    O     O_R   0.587960 0.180060 0.595760 -0.547008
O4    O     O_R   0.412040 0.680060 0.404240 -0.545695
C1    C     C_R   0.614851 0.344165 0.617688 0.695105
C2    C     C_R   0.385155 0.844277 0.382274 0.695294
O5    O     O_R   0.452380 0.177430 0.611700 -0.538567
O6    O     O_R   0.547620 0.677430 0.388300 -0.538493
O7    O     O_R   0.413900 0.001890 0.416350 -0.542498
O8    O     O_R   0.586100 0.501890 0.583650 -0.541149
C3    C     C_R   0.436713 0.346353 0.637991 0.696644
C4    C     C_R   0.563307 0.845113 0.361974 0.696885
O9    O     O_3   0.487530 0.337490 0.435890 -0.379556
O10   O     O_3   0.512470 0.837490 0.564110 -0.379331
V1    V     V_3+5 0.502310 0.064660 0.511890 1.426966
V2    V     V_3+5 0.497690 0.564660 0.488110 1.432469
C5    C     C_R   0.608849 0.833536 0.107027 -0.171560
C6    C     C_R   0.390759 0.408400 0.890829 -0.172861
H1    H     H_    0.692609 0.829609 0.981793 0.136330
H2    H     H_    0.306785 0.437352 0.015088 0.138355
H3    H     H_    0.583651 0.823119 0.027588 0.133638
H4    H     H_    0.415776 0.434051 0.969253 0.135182
C7    C     C_R   0.602007 0.850449 0.282664 -0.074114
C8    C     C_R   0.397944 0.357685 0.717104 -0.073808
C9    C     C_R   0.930587 0.873514 0.316335 -0.167575
C10   C     C_R   0.069635 0.326770 0.685010 -0.167605
C11   C     C_R   0.894722 0.875285 0.392577 -0.120292
C12   C     C_R   0.105613 0.309739 0.609314 -0.119945
C13   C     C_R   0.823806 0.868809 0.368879 -0.156738
C14   C     C_R   0.176440 0.321099 0.632489 -0.156942
C15   C     C_R   0.786570 0.859924 0.266964 0.080562
C16   C     C_R   0.213465 0.350541 0.733286 0.080482
C17   C     C_R   0.823824 0.855870 0.189138 0.065836
C18   C     C_R   0.176083 0.369768 0.810441 0.066077
C19   C     C_R   0.713792 0.854759 0.239698 0.072052
C20   C     C_R   0.286151 0.361622 0.760074 0.072417
C21   C     C_R   0.680197 0.842527 0.135826 0.125738
C22   C     C_R   0.319515 0.394060 0.862679 0.125784
C23   C     C_R   0.717910 0.838478 0.061159 -0.172262
C24   C     C_R   0.281669 0.412788 0.936684 -0.173617
C25   C     C_R   0.788498 0.845710 0.087149 -0.194018
C26   C     C_R   0.211179 0.400353 0.911247 -0.194432
C27   C     C_R   0.673017 0.860559 0.311925 -0.221870
C28   C     C_R   0.327051 0.342307 0.688542 -0.221653
C29   C     C_R   0.569653 0.835907 0.179829 -0.047923
C30   C     C_R   0.430073 0.391592 0.818585 -0.048507
C31   C     C_R   0.895927 0.863394 0.215008 -0.067078
C32   C     C_R   0.104087 0.356961 0.785163 -0.067276
H5    H     H_    0.694664 0.870565 0.391958 0.098031
H6    H     H_    0.305586 0.317106 0.609489 0.097911
H7    H     H_    0.985712 0.880474 0.336368 0.102676
H8    H     H_    0.014595 0.315908 0.665503 0.102961
H9    H     H_    0.799953 0.870754 0.432364 0.106406
H10   H     H_    0.200390 0.306347 0.569492 0.106523
H11   H     H_    0.922109 0.882586 0.470920 0.119888
H12   H     H_    0.078393 0.286726 0.531856 0.119775
H13   H     H_    0.815191 0.842564 0.026203 0.117750
H14   H     H_    0.184368 0.415613 0.971643 0.118109
C33   C     C_R   0.216982 0.023016 0.224412 -0.150722
C34   C     C_R   0.781986 0.523376 0.778038 -0.153299
H15   H     H_    0.192568 0.155771 0.206730 0.119362
H16   H     H_    0.805554 0.656359 0.797740 0.117858
C35   C     C_R   0.282207 0.018667 0.287743 -0.151739
C36   C     C_R   0.716786 0.518860 0.714626 -0.144190
H17   H     H_    0.305712 0.147632 0.316937 0.116743
H18   H     H_    0.692458 0.648006 0.687385 0.116920
C37   C     C_R   0.316306 0.850287 0.313296 -0.024625
C38   C     C_R   0.683712 0.350153 0.686646 -0.024563
C39   C     C_R   0.283462 0.686395 0.273188 -0.140140
C40   C     C_R   0.717565 0.186099 0.724392 -0.147412
H19   H     H_    0.308011 0.553779 0.290793 0.118618
H20   H     H_    0.693862 0.053237 0.704803 0.117841
C41   C     C_R   0.218236 0.690702 0.209848 -0.157430
C42   C     C_R   0.782765 0.190569 0.787791 -0.153862
H21   H     H_    0.194859 0.561659 0.180537 0.117183
H22   H     H_    0.806959 0.061320 0.815141 0.118205
C43   C     C_R   0.183908 0.859029 0.184802 -0.036318
C44   C     C_R   0.816071 0.359234 0.815266 -0.036270
O11   O     O_R   0.913920 0.203370 0.916260 -0.539394
O12   O     O_R   0.086080 0.703370 0.083740 -0.540221
O13   O     O_R   0.047620 0.535540 0.888290 -0.538083
O14   O     O_R   0.952380 0.035540 0.111710 -0.537384
C45   C     C_R   0.063925 0.367736 0.862564 0.679664
C46   C     C_R   0.936043 0.868907 0.137455 0.679808
O15   O     O_R   0.912040 0.532780 0.904220 -0.546205
O16   O     O_R   0.087960 0.032780 0.095780 -0.545418
O17   O     O_R   0.949550 0.708160 0.099720 -0.535083
O18   O     O_R   0.050450 0.208160 0.900280 -0.534209
C47   C     C_R   0.885375 0.365004 0.883177 0.675456
C48   C     C_R   0.114620 0.864867 0.116860 0.675638
O19   O     O_3   0.012480 0.375300 0.064060 -0.378443
O20   O     O_3   0.987520 0.875300 0.935940 -0.378630
V3    V     V_3+5 0.997690 0.648180 0.988110 1.409428
V4    V     V_3+5 0.002310 0.148180 0.011890 1.412944
C49   C     C_1   0.496426 0.822834 0.147674 0.278745
N1    N     N_1   0.437765 0.812259 0.121988 -0.367034
C50   C     C_1   0.503170 0.410102 0.849866 0.279112
N2    N     N_1   0.561729 0.424999 0.874853 -0.365135

loop_
_geom_bond_atom_site_label_1
_geom_bond_atom_site_label_2
_ccdc_geom_bond_type
C14   C16   A    
C35   H17   S    
C7    C29   A    
C11   C13   A    
C49   N1    T    
O1    C3    A    
C46   O17   A    
O2    C4    A    
C33   C43   A    
C2    O7    A    
C50   N2    T    
C12   H12   S    
C23   C25   A    
O5    C3    A    
C14   H10   S    
C4    C7    S    
C34   C44   A    
C42   H22   S    
O14   V4    S    
C16   C20   A    
C19   C21   A    
C5    C29   A    
H2    C24   S    
C11   H11   S    
C3    C8    S    
C7    C27   A    
C34   H16   S    
C39   H19   S    
O16   V4    S    
O15   V3    S    
C18   C26   A    
C40   C42   A    
C15   C17   A    
C39   C41   A    
C19   C27   A    
C9    C31   A    
C10   C32   A    
C24   C26   A    
C45   O18   A    
O6    V2    S    
O12   C48   A    
C41   H21   S    
C26   H14   S    
C1    C38   S    
C6    C30   A    
O13   C45   A    
O18   V4    S    
C44   C47   S    
C21   C23   A    
C35   C37   A    
C43   C48   S    
C33   H15   S    
O11   V4    S    
O4    C2    A    
O16   C48   A    
O15   C47   A    
C27   H5    S    
O5    V1    S    
C5    H3    S    
C37   C39   A    
C36   H18   S    
O4    V2    S    
C9    H7    S    
C10   H8    S    
O13   V3    S    
O6    C4    A    
O1    V2    S    
C5    C21   A    
C31   C46   S    
O2    V1    S    
H1    C23   S    
C2    C37   S    
C30   C50   S    
O14   C46   A    
C17   C31   A    
C15   C19   A    
C20   C28   A    
C18   C32   A    
C29   C49   S    
C36   C38   A    
O3    V1    S    
C28   H6    S    
C6    H4    S    
C10   C12   A    
O3    C1    A    
C9    C11   A    
C33   C35   A    
C32   C45   S    
C34   C36   A    
C17   C25   A    
C12   C14   A    
O7    V1    S    
C8    C30   A    
C1    O8    A    
C13   C15   A    
O8    V2    S    
O19   V4    S    
C22   C24   A    
C13   H9    S    
C8    C28   A    
O17   V3    S    
C20   C22   A    
O20   V3    S    
C6    C22   A    
O11   C47   A    
C25   H13   S    
C38   C40   A    
C42   C44   A    
O9    V2    S    
C41   C43   A    
O10   V1    S    
C40   H20   S    
O12   V3    S    
C16   C18   A    
