data_mof_unit_21658.cif
_audit_creation_date              2012-10-26T20:35:47-0400
_audit_creation_method            fapswitch 2.2
_symmetry_space_group_name_H-M    P1
_symmetry_Int_Tables_number       1
_space_group_crystal_system       triclinic
_cell_length_a                    8.727105
_cell_length_b                    15.877966
_cell_length_c                    16.971924
_cell_angle_alpha                 96.311473
_cell_angle_beta                  91.909212
_cell_angle_gamma                 84.263598
_cell_volume                      2325.22431162

loop_
_atom_site_label
_atom_site_type_symbol
_atom_type_description
_atom_site_fract_x
_atom_site_fract_y
_atom_site_fract_z
_atom_type_partial_charge
C1    C     C_R   0.495767 0.490017 0.348315 0.561176
C2    C     C_R   0.396810 0.148198 0.462736 -0.126481
C3    C     C_R   0.622080 0.763323 0.546045 0.155558
C4    C     C_R   0.377920 0.236677 0.453955 0.155558
C5    C     C_R   0.205524 0.521898 0.500812 0.554863
C6    C     C_R   0.794476 0.478102 0.499188 0.554862
C7    C     C_2   0.040395 0.533791 0.501029 -0.147351
C8    C     C_2   0.959605 0.466209 0.498971 -0.147351
C9    C     C_R   0.482794 0.486160 0.261598 -0.001863
C10   C     C_R   0.517206 0.513840 0.738402 -0.001863
C11   C     C_R   0.447699 0.561519 0.225761 -0.153694
C12   C     C_R   0.504233 0.509983 0.651685 0.561176
C13   C     C_R   0.552300 0.438481 0.774239 -0.153694
C14   C     C_R   0.432241 0.559582 0.143311 0.014072
C15   C     C_R   0.567758 0.440417 0.856689 0.014072
C16   C     C_R   0.458122 0.480343 0.096044 0.208274
C17   C     C_R   0.541878 0.519657 0.903956 0.208274
C18   C     C_R   0.487150 0.405166 0.132145 -0.121654
C19   C     C_R   0.512850 0.594834 0.867855 -0.121654
C20   C     C_R   0.499666 0.407832 0.214342 -0.143260
C21   C     C_R   0.500335 0.592167 0.785658 -0.143260
C22   C     C_R   0.616146 0.359894 0.891553 0.059115
C23   C     C_R   0.403118 0.743991 0.462383 0.013380
C24   C     C_R   0.741475 0.355177 0.945710 -0.064519
C25   C     C_R   0.786268 0.279417 0.978767 -0.117955
C26   C     C_R   0.707201 0.207686 0.957737 -0.103096
C27   C     C_R   0.583403 0.211523 0.903458 -0.101718
C28   C     C_R   0.538034 0.287182 0.870313 -0.089236
C29   C     C_R   0.383852 0.640105 0.108447 0.059115
C30   C     C_R   0.461964 0.712818 0.129687 -0.089236
C31   C     C_R   0.416594 0.788477 0.096542 -0.101718
C32   C     C_R   0.292796 0.792314 0.042262 -0.103096
C33   C     C_R   0.213730 0.720582 0.021233 -0.117955
C34   C     C_R   0.596882 0.256009 0.537617 0.013380
C35   C     C_R   0.258524 0.644822 0.054289 -0.064519
C36   C     C_2   0.750968 0.139749 0.600743 0.584008
C37   C     C_2   0.249032 0.860251 0.399257 0.584008
C38   C     C_2   0.756529 0.730340 0.593090 0.587927
C39   C     C_2   0.243471 0.269660 0.406910 0.587926
C40   C     C_R   0.379725 0.831004 0.451922 0.015664
C41   C     C_R   0.620275 0.168996 0.548077 0.015664
C42   C     C_R   0.480356 0.887113 0.490820 0.165645
C43   C     C_R   0.519644 0.112887 0.509180 0.165645
C44   C     C_R   0.603190 0.851802 0.537264 -0.126481
Cu1   Cu    Cu3+1 0.492520 0.415770 0.496210 1.006153
Cu2   Cu    Cu3+1 0.507480 0.584230 0.503790 1.006153
H1    H     H_    0.985189 0.598398 0.502734 0.167545
H2    H     H_    0.328584 0.701365 0.430227 0.193769
H3    H     H_    0.684034 0.892774 0.567081 0.200836
H4    H     H_    0.315966 0.107226 0.432919 0.200836
H5    H     H_    0.804568 0.410058 0.962208 0.124641
H6    H     H_    0.882417 0.276310 0.020646 0.117022
H7    H     H_    0.742006 0.149094 0.983407 0.119619
H8    H     H_    0.522345 0.155884 0.887163 0.122804
H9    H     H_    0.441094 0.289326 0.828799 0.112125
H10   H     H_    0.558904 0.710674 0.171201 0.112125
H11   H     H_    0.477652 0.844116 0.112837 0.122804
H12   H     H_    0.014811 0.401602 0.497266 0.167545
H13   H     H_    0.257990 0.850906 0.016593 0.119619
H14   H     H_    0.117581 0.723689 0.979353 0.117022
H15   H     H_    0.195431 0.589941 0.037792 0.124641
H16   H     H_    0.943045 0.168709 0.663489 0.349676
H17   H     H_    0.056956 0.831291 0.336510 0.349676
H18   H     H_    0.846634 0.646739 0.667396 0.323440
H19   H     H_    0.153365 0.353261 0.332604 0.323440
H20   H     H_    0.572072 0.378046 0.737865 0.136642
H21   H     H_    0.427926 0.621953 0.262135 0.136642
H22   H     H_    0.504498 0.344436 0.096135 0.136400
H23   H     H_    0.495503 0.655564 0.903865 0.136400
H24   H     H_    0.524691 0.348793 0.240792 0.159026
H25   H     H_    0.475311 0.651207 0.759208 0.159026
H26   H     H_    0.671416 0.298635 0.569772 0.193769
N1    N     N_2   0.459806 0.474130 0.012384 -0.245654
N2    N     N_2   0.540194 0.525870 0.987616 -0.245654
N3    N     N_R   0.518730 0.710760 0.509500 -0.263623
N4    N     N_R   0.481270 0.289240 0.490500 -0.263622
N5    N     N_2   0.454076 0.976701 0.481623 -0.176488
N6    N     N_2   0.545924 0.023298 0.518377 -0.176489
O1    O     O_R   0.493000 0.421040 0.382520 -0.442727
O2    O     O_R   0.860369 0.195476 0.628089 -0.714233
O3    O     O_2   0.236562 0.932237 0.379029 -0.480244
O4    O     O_R   0.139632 0.804524 0.371911 -0.714233
O5    O     O_2   0.876439 0.764401 0.594414 -0.525566
O6    O     O_R   0.746751 0.662751 0.637992 -0.661803
O7    O     O_2   0.123561 0.235598 0.405586 -0.525566
O8    O     O_R   0.253248 0.337249 0.362008 -0.661803
O9    O     O_R   0.507000 0.578960 0.617480 -0.442727
O10   O     O_R   0.505640 0.563310 0.388930 -0.530489
O11   O     O_R   0.494360 0.436690 0.611070 -0.530489
O12   O     O_R   0.269980 0.445280 0.497530 -0.469226
O13   O     O_R   0.730020 0.554720 0.502470 -0.469226
O14   O     O_R   0.282610 0.587550 0.503940 -0.508497
O15   O     O_R   0.717390 0.412450 0.496060 -0.508497
O16   O     O_2   0.763438 0.067763 0.620971 -0.480244

loop_
_geom_bond_atom_site_label_1
_geom_bond_atom_site_label_2
_ccdc_geom_bond_type
C44   H3    S    
C38   O5    D    
N1    N2    D    
Cu1   O15   S    
C27   H8    S    
C7    C8    D    
Cu1   Cu2   S    
C43   N6    S    
C26   C27   A    
C21   H25   S    
Cu1   N4    S    
H16   O2    S    
C19   C21   A    
C37   C40   S    
C30   C31   A    
C33   C35   A    
C11   C14   A    
Cu2   O14   S    
C18   H22   S    
C6    O13   A    
H18   O6    S    
C2    H4    S    
C8    H12   S    
C15   C22   S    
C3    C38   S    
Cu1   O11   S    
C18   C20   A    
C5    O12   A    
C1    O10   A    
C40   C42   A    
C22   C28   A    
C41   C43   A    
C37   O3    D    
C36   C41   S    
C34   C41   A    
C42   C44   A    
Cu2   N3    S    
C28   H9    S    
C11   H21   S    
Cu2   O10   S    
C13   H20   S    
C10   C21   A    
C3    C44   A    
H17   O4    S    
C16   N1    S    
C12   O11   A    
H19   O8    S    
C1    C9    S    
C24   C25   A    
C35   H15   S    
C36   O2    S    
C5    C7    S    
C6    C8    S    
Cu2   O13   S    
C25   C26   A    
N5    N6    D    
C30   H10   S    
C7    H1    S    
C2    C4    A    
C29   C30   A    
C9    C20   A    
C31   C32   A    
C4    C39   S    
C2    C43   A    
C6    O15   A    
Cu1   O1    S    
Cu1   O12   S    
C9    C11   A    
C10   C12   S    
C33   H14   S    
C13   C15   A    
C17   N2    S    
C1    O1    A    
C14   C16   A    
C37   O4    S    
C19   H23   S    
C39   O7    D    
C14   C29   S    
C26   H7    S    
C34   H26   S    
C3    N3    A    
C20   H24   S    
Cu2   O9    S    
C15   C17   A    
C23   H2    S    
C12   O9    A    
C38   O6    S    
C23   N3    A    
C10   C13   A    
C29   C35   A    
C32   H13   S    
C32   C33   A    
C31   H11   S    
C25   H6    S    
C24   H5    S    
C17   C19   A    
C22   C24   A    
C4    N4    A    
C5    O14   A    
C36   O16   D    
C42   N5    S    
C16   C18   A    
C27   C28   A    
C39   O8    S    
C23   C40   A    
C34   N4    A    
