data_mof_unit_18855.cif
_audit_creation_date              2012-12-10T17:31:21-0500
_audit_creation_method            fapswitch 2.2
_symmetry_space_group_name_H-M    P1
_symmetry_Int_Tables_number       1
_space_group_crystal_system       triclinic
_cell_length_a                    19.271764
_cell_length_b                    18.85768
_cell_length_c                    12.308816
_cell_angle_alpha                 90.002144
_cell_angle_beta                  129.23963
_cell_angle_gamma                 89.99993
_cell_volume                      3464.58673556

loop_
_atom_site_label
_atom_site_type_symbol
_atom_type_description
_atom_site_fract_x
_atom_site_fract_y
_atom_site_fract_z
_atom_type_partial_charge
C1    C     C_R   0.615023 0.901202 0.658305 0.816249
C2    C     C_R   0.615021 0.098804 0.658298 0.816243
C3    C     C_R   0.115023 0.401202 0.658306 0.816256
C4    C     C_R   0.115021 0.598804 0.658298 0.816234
C5    C     C_R   0.267526 0.746372 0.084581 0.015927
C6    C     C_R   0.267503 0.253611 0.084574 0.015926
C7    C     C_R   0.767540 0.246367 0.084596 0.015932
C8    C     C_R   0.767486 0.753604 0.084556 0.015921
C9    C     C_R   0.699657 0.231315 0.093522 -0.056860
C10   C     C_R   0.699584 0.768647 0.093455 -0.056872
C11   C     C_R   0.199627 0.731333 0.093481 -0.056872
C12   C     C_R   0.199617 0.268666 0.093500 -0.056859
C13   C     C_R   0.618235 0.203625 0.971204 0.184907
C14   C     C_R   0.618169 0.796356 0.971125 0.184972
C15   C     C_R   0.118204 0.703649 0.971149 0.184914
C16   C     C_R   0.118202 0.296381 0.971184 0.184964
C17   C     C_R   0.612543 0.187618 0.854936 -0.152904
C18   C     C_R   0.612508 0.812365 0.854884 -0.152921
C19   C     C_R   0.112525 0.687638 0.854893 -0.152881
C20   C     C_R   0.112527 0.312386 0.854930 -0.152945
C21   C     C_R   0.319819 0.806904 0.152967 0.202923
C22   C     C_R   0.319819 0.193093 0.152989 0.202961
C23   C     C_R   0.819821 0.306905 0.152970 0.202925
C24   C     C_R   0.819814 0.693092 0.152983 0.202961
C25   C     C_R   0.287722 0.796747 0.314306 0.122005
C26   C     C_R   0.287708 0.203243 0.314310 0.121987
C27   C     C_R   0.787753 0.296734 0.314340 0.121994
C28   C     C_R   0.787676 0.703229 0.314273 0.121998
C29   C     C_R   0.691414 0.142877 0.768159 -0.114946
C30   C     C_R   0.691427 0.857149 0.768196 -0.114878
C31   C     C_R   0.191417 0.642873 0.768162 -0.114927
C32   C     C_R   0.191425 0.357147 0.768196 -0.114893
C33   C     C_R   0.684497 0.999976 0.288773 0.481311
C34   C     C_R   0.184497 0.500007 0.288773 0.481311
C35   C     C_R   0.343826 0.000008 0.630065 0.389472
C36   C     C_R   0.843826 0.500004 0.630065 0.389471
C37   C     C_R   0.312998 0.000020 0.705712 -0.206416
C38   C     C_R   0.812998 0.500018 0.705712 -0.206416
C39   C     C_R   0.388543 0.102535 0.347730 0.864529
C40   C     C_R   0.388534 0.897469 0.347715 0.864520
C41   C     C_R   0.888540 0.602534 0.347727 0.864518
C42   C     C_R   0.888536 0.397469 0.347718 0.864533
C43   C     C_R   0.372533 0.000021 0.850124 -0.152191
C44   C     C_R   0.872533 0.500024 0.850124 -0.152191
C45   C     C_R   0.465294 0.000004 0.923666 0.091475
C46   C     C_R   0.965294 0.500013 0.923666 0.091475
C47   C     C_R   0.495477 0.999999 0.843281 0.256926
C48   C     C_R   0.995477 0.500005 0.843281 0.256926
C49   C     C_R   0.528714 0.999994 0.073839 -0.048841
C50   C     C_R   0.028714 0.500006 0.073839 -0.048841
C51   C     C_R   0.621375 0.999978 0.141690 -0.061497
C52   C     C_R   0.121375 0.500003 0.141690 -0.061497
C53   C     C_R   0.649925 0.999976 0.062202 -0.164251
C54   C     C_R   0.149925 0.500001 0.062201 -0.164252
C55   C     C_R   0.588481 0.999991 0.916654 -0.181818
C56   C     C_R   0.088481 0.500003 0.916654 -0.181819
C57   C     C_R   0.503916 0.000007 0.160352 -0.029453
C58   C     C_R   0.003916 0.500007 0.160352 -0.029453
C59   C     C_R   0.655254 0.999988 0.367281 0.736978
C60   C     C_R   0.155254 0.500005 0.367281 0.736980
C61   C     C_R   0.716845 0.248950 0.220495 0.189011
C62   C     C_R   0.716753 0.750999 0.220411 0.189028
C63   C     C_R   0.216804 0.748972 0.220446 0.189008
C64   C     C_R   0.216797 0.251022 0.220464 0.189030
C65   C     C_R   0.330634 0.834045 0.270152 -0.219520
C66   C     C_R   0.330633 0.165953 0.270165 -0.219498
C67   C     C_R   0.830645 0.334040 0.270165 -0.219512
C68   C     C_R   0.830621 0.665949 0.270151 -0.219504
C69   C     C_R   0.773416 0.131506 0.796346 -0.284189
C70   C     C_R   0.773467 0.868586 0.796493 -0.284151
C71   C     C_R   0.273430 0.631485 0.796378 -0.284181
C72   C     C_R   0.273456 0.368569 0.796466 -0.284162
C73   C     C_R   0.353670 0.652366 0.923784 0.159690
C74   C     C_R   0.353681 0.347680 0.923881 0.159670
C75   C     C_R   0.853658 0.152393 0.923739 0.159699
C76   C     C_R   0.853689 0.847703 0.923919 0.159661
C77   C     C_R   0.352774 0.691897 0.018816 0.625344
C78   C     C_R   0.352759 0.308112 0.018859 0.625330
C79   C     C_R   0.852771 0.191916 0.018786 0.625351
C80   C     C_R   0.852759 0.808127 0.018883 0.625324
C81   C     C_R   0.770711 0.207915 0.989292 -0.051315
C82   C     C_R   0.770679 0.792078 0.989296 -0.051291
C83   C     C_R   0.270706 0.707912 0.989292 -0.051320
C84   C     C_R   0.270687 0.292078 0.989300 -0.051286
C85   C     C_R   0.690418 0.179967 0.868101 -0.035675
C86   C     C_R   0.690396 0.820024 0.868086 -0.035723
C87   C     C_R   0.190411 0.679972 0.868087 -0.035676
C88   C     C_R   0.190404 0.320032 0.868103 -0.035721
Cu1   Cu    Cu3+1 0.526340 0.000000 0.421010 1.068231
Cu2   Cu    Cu3+1 0.026340 0.500000 0.421010 1.068232
Cu3   Cu    Cu3+1 0.473640 0.000000 0.578990 0.988742
Cu4   Cu    Cu3+1 0.973640 0.500000 0.578990 0.988742
H1    H     H_    0.720707 0.999969 0.112658 0.210670
H2    H     H_    0.220706 0.500000 0.112658 0.210670
H3    H     H_    0.435655 0.000033 0.118531 0.190203
H4    H     H_    0.935656 0.500022 0.118531 0.190204
H5    H     H_    0.343164 0.000032 0.900567 0.183753
H6    H     H_    0.843164 0.500038 0.900567 0.183753
H7    H     H_    0.241781 0.000029 0.652035 0.193371
H8    H     H_    0.741781 0.500024 0.652035 0.193372
H9    H     H_    0.617312 0.000000 0.866120 0.201469
H10   H     H_    0.117312 0.500004 0.866120 0.201469
H11   H     H_    0.776313 0.099043 0.726726 0.243531
H12   H     H_    0.776403 0.901105 0.726952 0.243509
H13   H     H_    0.276333 0.599013 0.726771 0.243535
H14   H     H_    0.276387 0.401079 0.726913 0.243505
H15   H     H_    0.546657 0.178868 0.756492 0.201697
H16   H     H_    0.546636 0.821128 0.756431 0.201710
H17   H     H_    0.046641 0.678893 0.756434 0.201674
H18   H     H_    0.046653 0.321154 0.756492 0.201732
N1    N     N_R   0.566260 0.000000 0.302220 -0.269872
N2    N     N_R   0.066260 0.500000 0.302220 -0.269873
N3    N     N_R   0.434410 0.000000 0.697680 -0.234995
N4    N     N_R   0.934410 0.500000 0.697680 -0.234995
O1    O     O_R   0.608610 0.924520 0.551740 -0.523017
O2    O     O_R   0.608610 0.075480 0.551740 -0.523079
O3    O     O_R   0.108610 0.424520 0.551740 -0.523028
O4    O     O_R   0.108610 0.575480 0.551740 -0.523067
O5    O     O_R   0.564110 0.924510 0.685150 -0.628572
O6    O     O_R   0.564110 0.075490 0.685150 -0.628559
O7    O     O_R   0.064110 0.424510 0.685150 -0.628580
O8    O     O_R   0.064110 0.575490 0.685150 -0.628553
O9    O     O_R   0.435880 0.075470 0.314850 -0.555882
O10   O     O_R   0.435880 0.924530 0.314850 -0.555867
O11   O     O_R   0.935880 0.575470 0.314850 -0.555882
O12   O     O_R   0.935880 0.424530 0.314850 -0.555866
O13   O     O_R   0.391380 0.075460 0.448260 -0.555203
O14   O     O_R   0.391380 0.924540 0.448260 -0.555187
O15   O     O_R   0.891380 0.575460 0.448260 -0.555204
O16   O     O_R   0.891380 0.424540 0.448260 -0.555186
I1    I     I_    0.333373 0.804720 0.524565 -0.205808
I2    I     I_    0.333357 0.195267 0.524573 -0.205836
I3    I     I_    0.833418 0.304710 0.524606 -0.205846
I4    I     I_    0.833312 0.695259 0.524531 -0.205798
F1    F     F_    0.773826 0.999952 0.356151 -0.604035
F2    F     F_    0.273826 0.499998 0.356150 -0.604035
I5    I     I_    0.238223 0.000008 0.408821 -0.167089
I6    I     I_    0.738223 0.500000 0.408821 -0.167088
I7    I     I_    0.493127 0.195910 0.928468 -0.229041
I8    I     I_    0.493036 0.804195 0.928316 -0.229119
I9    I     I_    0.993084 0.695936 0.928376 -0.229050
I10   I     I_    0.993083 0.304221 0.928415 -0.229110
I11   I     I_    0.654525 0.192409 0.290109 -0.133520
I12   I     I_    0.654391 0.807492 0.290009 -0.133295
I13   I     I_    0.154451 0.692449 0.290026 -0.133478
I14   I     I_    0.154470 0.307533 0.290097 -0.133336
I15   I     I_    0.345388 0.866468 0.033827 -0.272052
I16   I     I_    0.345480 0.133569 0.033972 -0.272054
I17   I     I_    0.845349 0.366484 0.033803 -0.272072
I18   I     I_    0.845514 0.633581 0.033994 -0.272036
F3    F     F_    0.431940 0.709155 0.144886 -0.608110
F4    F     F_    0.431911 0.290850 0.144941 -0.608109
F5    F     F_    0.931938 0.209181 0.144844 -0.608116
F6    F     F_    0.931909 0.790872 0.144978 -0.608105
I19   I     I_    0.475293 0.611735 0.981246 -0.121551
I20   I     I_    0.475328 0.388373 0.981496 -0.121472
I21   I     I_    0.975271 0.111781 0.981153 -0.121545
I22   I     I_    0.975345 0.888413 0.981579 -0.121478
F7    F     F_    0.716128 0.999980 0.509225 -0.627742
F8    F     F_    0.216128 0.500000 0.509225 -0.627743

loop_
_geom_bond_atom_site_label_1
_geom_bond_atom_site_label_2
_ccdc_geom_bond_type
C70   H12   S    
C83   C87   A    
Cu1   O1    S    
C72   C74   A    
C14   C18   A    
Cu4   O16   S    
C57   H3    S    
Cu2   N2    S    
C36   N4    A    
C77   F3    S    
C78   F4    S    
C32   C72   A    
C15   C19   A    
C76   I22   S    
C18   C86   A    
C75   C79   A    
Cu3   O13   S    
C2    C29   S    
C17   C85   A    
C13   I7    S    
C48   N4    A    
C28   C68   A    
C41   O11   A    
C5    C11   A    
C19   C87   A    
C17   H15   S    
C6    C12   A    
C12   C64   A    
C58   H4    S    
C77   C83   A    
C6    C22   A    
C39   O9    A    
C7    C9    A    
C1    O5    A    
C23   C67   A    
C26   C64   A    
C22   C66   A    
C9    C13   A    
C27   C61   A    
C15   I9    S    
C2    O2    A    
C61   I11   S    
C12   C16   A    
C52   C54   A    
C49   C51   A    
C59   N1    A    
C76   C80   A    
C69   C75   A    
C45   C49   A    
C30   C86   A    
C3    O3    A    
C29   C85   A    
C48   C56   A    
C21   C65   A    
C75   I21   S    
C45   C47   A    
Cu2   O4    S    
C23   I17   S    
Cu1   O2    S    
C33   C59   A    
C34   C60   A    
C4    O4    A    
C10   C62   A    
C11   C15   A    
C30   C70   A    
C44   C46   A    
C46   C50   A    
C41   C68   S    
C29   C69   A    
C53   C55   A    
Cu2   Cu4   S    
C40   O10   A    
C46   C48   A    
C31   C87   A    
Cu3   O14   S    
C53   H1    S    
C26   C66   A    
Cu2   O3    S    
C84   C88   A    
C58   N2    A    
C6    C84   A    
C38   H8    S    
C10   C14   A    
C62   I12   S    
C79   C81   A    
C2    O6    A    
Cu1   O9    S    
C82   C86   A    
C24   C68   A    
Cu3   N3    S    
C51   C53   A    
C39   O13   A    
C27   I3    S    
C37   C43   A    
C16   I10   S    
C5    C83   A    
C38   C44   A    
C60   N2    A    
Cu4   O8    S    
C79   F5    S    
C33   F1    S    
C50   C52   A    
C34   F2    S    
C16   C20   A    
C73   I19   S    
Cu2   O12   S    
C50   C58   A    
C4    O8    A    
C42   O16   A    
C43   C45   A    
C24   I18   S    
C20   H18   S    
C80   C82   A    
C7    C81   A    
C22   I16   S    
C14   I8    S    
C40   C65   S    
C71   H13   S    
C70   C76   A    
C42   C67   S    
C39   C66   S    
C9    C61   A    
C32   C88   A    
Cu1   Cu3   S    
C28   I4    S    
C25   I1    S    
C21   I15   S    
C37   H7    S    
C26   I2    S    
C35   C37   A    
C47   C55   A    
C59   F7    S    
C47   N3    A    
C55   H9    S    
C25   C63   A    
C64   I14   S    
C69   H11   S    
C60   F8    S    
C72   H14   S    
C49   C57   A    
C54   C56   A    
C80   F6    S    
Cu1   O10   S    
C33   C51   A    
Cu1   N1    S    
C34   C52   A    
C13   C17   A    
C36   C38   A    
Cu4   O15   S    
C56   H10   S    
Cu4   O7    S    
C35   I5    S    
C41   O15   A    
C57   N1    A    
C19   H17   S    
Cu4   N4    S    
C7    C23   A    
C20   C88   A    
C31   C71   A    
C1    C30   S    
C8    C24   A    
Cu2   O11   S    
C35   N3    A    
Cu3   O5    S    
C3    C32   S    
C18   H16   S    
C54   H2    S    
C4    C31   S    
C27   C67   A    
C42   O12   A    
C44   H6    S    
C78   C84   A    
C8    C82   A    
C5    C21   A    
C8    C10   A    
C43   H5    S    
C74   C78   A    
C71   C73   A    
C25   C65   A    
C73   C77   A    
Cu3   O6    S    
C74   I20   S    
C1    O1    A    
C11   C63   A    
C36   I6    S    
C63   I13   S    
C81   C85   A    
C3    O7    A    
C28   C62   A    
C40   O14   A    
