data_mof_unit_52545.cif
_audit_creation_date              2012-12-11T17:12:47-0500
_audit_creation_method            fapswitch 2.2
_symmetry_space_group_name_H-M    P1
_symmetry_Int_Tables_number       1
_space_group_crystal_system       triclinic
_cell_length_a                    17.245771
_cell_length_b                    6.890121
_cell_length_c                    14.371287
_cell_angle_alpha                 89.999666
_cell_angle_beta                  110.137401
_cell_angle_gamma                 90.00104
_cell_volume                      1603.2840028

loop_
_atom_site_label
_atom_site_type_symbol
_atom_type_description
_atom_site_fract_x
_atom_site_fract_y
_atom_site_fract_z
_atom_type_partial_charge
O1    O     O_R   0.314130 0.635770 0.168990 -0.536446
O2    O     O_R   0.685870 0.364230 0.831010 -0.541348
O3    O     O_R   0.185870 0.135770 0.331010 -0.536448
O4    O     O_R   0.814130 0.864230 0.668990 -0.541354
O5    O     O_R   0.146800 0.302460 0.139760 -0.536298
O6    O     O_R   0.853200 0.697540 0.860240 -0.539259
O7    O     O_R   0.353200 0.802460 0.360240 -0.536296
O8    O     O_R   0.646800 0.197540 0.639760 -0.539255
C1    C     C_R   0.114025 0.475830 0.112791 0.725362
C2    C     C_R   0.885971 0.524171 0.887217 0.725802
C3    C     C_R   0.385975 0.975831 0.387209 0.725359
C4    C     C_R   0.614029 0.024169 0.612783 0.725805
O9    O     O_R   0.311100 0.305780 0.157130 -0.542617
O10   O     O_R   0.688900 0.694220 0.842870 -0.538220
O11   O     O_R   0.188900 0.805780 0.342870 -0.542613
O12   O     O_R   0.811100 0.194220 0.657130 -0.538219
O13   O     O_R   0.351340 0.139640 0.348510 -0.538014
O14   O     O_R   0.648660 0.860360 0.651490 -0.535237
O15   O     O_R   0.148660 0.639640 0.151490 -0.538012
O16   O     O_R   0.851340 0.360360 0.848510 -0.535233
C5    C     C_R   0.334018 0.474718 0.137648 0.703726
C6    C     C_R   0.666240 0.525381 0.862670 0.702557
C7    C     C_R   0.165982 0.974715 0.362351 0.703724
C8    C     C_R   0.833759 0.025384 0.637329 0.702555
C9    C     C_1   0.533584 0.008917 0.533039 -0.173631
C10   C     C_1   0.466425 0.991083 0.466944 -0.174454
C11   C     C_1   0.966416 0.508919 0.966961 -0.173630
C12   C     C_1   0.033575 0.491081 0.033055 -0.174450
O17   O     O_3   0.263010 0.470920 0.312770 -0.367488
O18   O     O_3   0.736990 0.529080 0.687230 -0.367370
O19   O     O_3   0.236990 0.970920 0.187230 -0.367490
O20   O     O_3   0.763010 0.029080 0.812770 -0.367368
V1    V     V_3+5 0.247590 0.194450 0.238360 1.441766
V2    V     V_3+5 0.752410 0.805550 0.761640 1.441771
V3    V     V_3+5 0.252410 0.694450 0.261640 1.441772
V4    V     V_3+5 0.747590 0.305550 0.738360 1.441777
C13   C     C_R   0.113926 0.984923 0.424658 -0.145292
C14   C     C_R   0.885506 0.017164 0.574598 -0.146343
C15   C     C_R   0.386071 0.484937 0.075338 -0.145296
C16   C     C_R   0.614492 0.517152 0.925398 -0.146326
C17   C     C_R   0.891162 0.038036 0.407894 0.166388
C18   C     C_R   0.108671 0.025677 0.590577 0.168287
C19   C     C_R   0.608839 0.537920 0.092105 0.166400
C20   C     C_R   0.391324 0.525777 0.909422 0.168259
C21   C     C_R   0.846950 0.042580 0.473301 -0.274421
C22   C     C_R   0.153092 0.012035 0.525693 -0.274718
C23   C     C_R   0.653052 0.542467 0.026701 -0.274422
C24   C     C_R   0.346906 0.512143 0.974310 -0.274715
C25   C     C_R   0.972313 0.996894 0.615199 0.291718
C26   C     C_R   0.026654 0.981273 0.383655 0.291297
C27   C     C_R   0.527681 0.496973 0.884791 0.291712
C28   C     C_R   0.473342 0.481194 0.116335 0.291300
C29   C     C_R   0.020350 0.010289 0.552040 0.008974
C30   C     C_R   0.978972 0.009642 0.446457 0.006898
C31   C     C_R   0.479646 0.510336 0.947953 0.008941
C32   C     C_R   0.521025 0.509594 0.053537 0.006925
H1    H     H_    0.219902 0.023833 0.553949 0.119292
H2    H     H_    0.780679 0.065849 0.445110 0.121510
H3    H     H_    0.280098 0.523994 0.946060 0.119300
H4    H     H_    0.719327 0.565669 0.054898 0.121495
O21   O     O_3   0.986858 0.943301 0.283989 -0.663215
H5    H     H_    0.026527 0.910314 0.250585 0.278886
O22   O     O_3   0.011288 0.957337 0.714881 -0.662825
H6    H     H_    0.971334 0.945684 0.749996 0.281223
O23   O     O_3   0.513136 0.443101 0.215988 -0.663224
H7    H     H_    0.473464 0.410102 0.249385 0.278895
O24   O     O_3   0.488702 0.457547 0.785097 -0.662823
H8    H     H_    0.528654 0.445907 0.749980 0.281213
C33   C     C_3   0.841383 0.081065 0.299691 -0.276519
C34   C     C_3   0.864072 0.278247 0.267354 -0.709458
H9    H     H_    0.852314 0.395022 0.314129 0.210587
H10   H     H_    0.929893 0.284443 0.273603 0.251875
H11   H     H_    0.825451 0.305886 0.188931 0.200988
H12   H     H_    0.846259 0.962593 0.249945 0.218974
H13   H     H_    0.774249 0.087444 0.287832 0.146426
C35   C     C_3   0.159012 0.074315 0.697917 -0.277273
C36   C     C_3   0.139087 0.277257 0.726552 -0.713765
H14   H     H_    0.153053 0.387589 0.678191 0.211363
H15   H     H_    0.073310 0.291550 0.719503 0.250932
H16   H     H_    0.177560 0.307446 0.804725 0.199680
H17   H     H_    0.152408 0.961990 0.749794 0.220022
H18   H     H_    0.226140 0.074391 0.709724 0.147878
C37   C     C_3   0.658623 0.580883 0.200316 -0.276518
C38   C     C_3   0.635957 0.778056 0.232686 -0.709491
H19   H     H_    0.647702 0.894848 0.185911 0.210603
H20   H     H_    0.570145 0.784245 0.226473 0.251871
H21   H     H_    0.674601 0.805675 0.311104 0.200996
H22   H     H_    0.653737 0.462386 0.250047 0.218967
H23   H     H_    0.725756 0.587240 0.212175 0.146450
C39   C     C_3   0.340979 0.574389 0.802079 -0.277221
C40   C     C_3   0.360897 0.777321 0.773421 -0.713700
H24   H     H_    0.346888 0.887682 0.821734 0.211313
H25   H     H_    0.426681 0.791662 0.780515 0.250953
H26   H     H_    0.322452 0.807428 0.695229 0.199680
H27   H     H_    0.347581 0.462043 0.750212 0.220004
H28   H     H_    0.273851 0.574461 0.790276 0.147864

loop_
_geom_bond_atom_site_label_1
_geom_bond_atom_site_label_2
_ccdc_geom_bond_type
C2    C11   S    
C16   C23   A    
C31   C32   A    
O1    C5    A    
C25   O22   S    
C19   C37   S    
O3    C7    A    
C38   H21   S    
C39   H27   S    
C14   C25   A    
C36   H14   S    
O7    C3    A    
C26   C30   A    
O20   V4    S    
C38   H20   S    
C18   C29   A    
O8    V4    S    
O4    C8    A    
O3    V1    S    
O17   V1    S    
C18   C22   A    
C14   C21   A    
C23   H4    S    
C1    O15   A    
C29   C30   A    
C2    O16   A    
O5    V1    S    
O2    C6    A    
C8    C14   S    
O19   V1    S    
C33   H13   S    
C34   H9    S    
O11   C7    A    
C37   H22   S    
O12   C8    A    
O9    V1    S    
O21   H5    S    
O13   V1    S    
O11   V3    S    
C36   H15   S    
C37   H23   S    
O4    V2    S    
C21   H2    S    
O18   V2    S    
O24   H8    S    
C38   H19   S    
C35   H18   S    
C40   H24   S    
C3    C10   S    
C9    C10   T    
C7    C13   S    
O6    V2    S    
O20   V2    S    
O5    C1    A    
C40   H25   S    
C37   C38   S    
C5    C15   S    
O8    C4    A    
C6    C16   S    
C34   H11   S    
O9    C5    A    
C33   H12   S    
C27   O24   S    
C35   C36   S    
O14   V2    S    
C22   H1    S    
O19   V3    S    
C20   C39   S    
O1    V3    S    
C24   H3    S    
C17   C33   S    
C36   H16   S    
O2    V4    S    
C3    O13   A    
O7    V3    S    
C35   H17   S    
O10   V2    S    
C39   H28   S    
C16   C27   A    
O17   V3    S    
C18   C35   S    
O18   V4    S    
C4    C9    S    
O10   C6    A    
O15   V3    S    
O12   V4    S    
C40   H26   S    
C13   C26   A    
C20   C31   A    
C39   C40   S    
C25   C29   A    
C15   C28   A    
C27   C31   A    
C33   C34   S    
C17   C30   A    
O6    C2    A    
O22   H6    S    
O16   V4    S    
C28   C32   A    
C19   C32   A    
O23   H7    S    
C4    O14   A    
C11   C12   T    
C26   O21   S    
C17   C21   A    
C34   H10   S    
C13   C22   A    
C19   C23   A    
C28   O23   S    
C20   C24   A    
C1    C12   S    
C15   C24   A    
