data_mof_unit_65223.cif
_audit_creation_date              2012-12-10T21:38:10-0500
_audit_creation_method            fapswitch 2.2
_symmetry_space_group_name_H-M    P1
_symmetry_Int_Tables_number       1
_space_group_crystal_system       triclinic
_cell_length_a                    16.262446
_cell_length_b                    16.917336
_cell_length_c                    16.848376
_cell_angle_alpha                 88.824547
_cell_angle_beta                  94.620482
_cell_angle_gamma                 86.121049
_cell_volume                      4608.05982039

loop_
_atom_site_label
_atom_site_type_symbol
_atom_type_description
_atom_site_fract_x
_atom_site_fract_y
_atom_site_fract_z
_atom_type_partial_charge
C1    C     C_R   0.512259 0.347475 0.499360 0.866829
C2    C     C_R   0.471295 0.903723 0.501012 0.309695
C3    C     C_R   0.592298 0.136939 0.469335 -0.218122
C4    C     C_R   0.407107 0.863790 0.529564 -0.231747
C5    C     C_R   0.587000 0.219325 0.465581 -0.025361
C6    C     C_R   0.409590 0.781383 0.529143 -0.024195
C7    C     C_R   0.228599 0.534383 0.457466 0.122458
C8    C     C_R   0.768797 0.457314 0.537680 0.134530
C9    C     C_R   0.142558 0.530443 0.460369 0.023699
C10   C     C_R   0.855507 0.462409 0.543276 0.023326
C11   C     C_R   0.111854 0.481258 0.518350 0.222135
C12   C     C_R   0.487777 0.652647 0.500643 0.886564
C13   C     C_R   0.890493 0.520302 0.497750 0.199775
C14   C     C_R   0.169492 0.435851 0.570485 -0.190443
C15   C     C_R   0.836644 0.572345 0.449036 -0.145690
C16   C     C_R   0.513103 0.500350 0.651899 0.906601
C17   C     C_R   0.486879 0.500757 0.348083 0.854468
C18   C     C_R   0.255585 0.441258 0.565347 0.187174
C19   C     C_R   0.750113 0.565742 0.444386 0.170473
C20   C     C_R   0.524748 0.510604 0.736636 -0.072933
C21   C     C_R   0.474744 0.512269 0.262801 -0.115163
C22   C     C_R   0.495221 0.582420 0.767862 0.066633
C23   C     C_R   0.523070 0.261520 0.502610 -0.079873
C24   C     C_R   0.503732 0.452420 0.213345 0.056405
C25   C     C_R   0.509625 0.594891 0.848910 -0.196295
C26   C     C_R   0.502863 0.468228 0.132302 -0.121893
C27   C     C_R   0.552356 0.535759 0.898452 0.154115
C28   C     C_R   0.474649 0.543378 0.100625 0.120074
C29   C     C_R   0.585458 0.466135 0.866584 -0.191732
C30   C     C_R   0.440508 0.600844 0.148615 -0.194015
C31   C     C_R   0.571495 0.452864 0.785637 -0.050190
C32   C     C_R   0.441095 0.586111 0.230149 -0.031729
C33   C     C_2   0.552452 0.539578 0.984486 -0.214370
C34   C     C_R   0.477914 0.738864 0.499050 -0.070679
C35   C     C_2   0.482964 0.562631 0.017421 -0.217168
C36   C     C_1   0.140299 0.383469 0.629379 0.193779
C37   C     C_1   0.870544 0.633228 0.402288 0.235358
C38   C     C_1   0.412433 0.649561 0.279356 0.135294
C39   C     C_1   0.601692 0.378194 0.754891 0.127912
C40   C     C_1   0.645505 0.257928 0.420556 0.160723
C41   C     C_1   0.342876 0.742997 0.562262 0.193647
C42   C     C_R   0.467933 0.220590 0.544891 -0.227552
C43   C     C_R   0.539807 0.779845 0.466641 -0.229791
C44   C     C_R   0.473568 0.138835 0.547972 -0.155512
C45   C     C_R   0.536509 0.861394 0.467059 -0.151050
C46   C     C_R   0.534402 0.096762 0.507916 0.308202
H1    H     H_    0.429848 0.591461 0.982453 0.157816
H2    H     H_    0.429644 0.108540 0.580440 0.152800
H3    H     H_    0.639457 0.103590 0.439371 0.147757
H4    H     H_    0.356343 0.897216 0.554284 0.146120
H5    H     H_    0.482980 0.694124 0.721573 0.182700
H6    H     H_    0.392951 0.654821 0.738477 0.198167
H7    H     H_    0.491203 0.351651 0.276705 0.181451
H8    H     H_    0.587915 0.383777 0.283335 0.216649
H9    H     H_    0.693273 0.415980 0.617425 0.241492
H10   H     H_    0.715419 0.352833 0.542181 0.225737
H11   H     H_    0.285544 0.548612 0.356210 0.218207
H12   H     H_    0.604402 0.510036 0.020715 0.156019
H13   H     H_    0.296488 0.623279 0.422957 0.241446
H14   H     H_    0.898501 0.351302 0.579913 0.208920
H15   H     H_    0.888594 0.416595 0.654237 0.206522
H16   H     H_    0.096795 0.633847 0.405907 0.215488
H17   H     H_    0.100833 0.555069 0.345294 0.200458
H18   H     H_    0.302918 0.335008 0.611267 0.160297
H19   H     H_    0.304762 0.409899 0.676415 0.179781
H20   H     H_    0.715366 0.605856 0.332363 0.172619
H21   H     H_    0.637966 0.610004 0.389927 0.248790
H22   H     H_    0.617988 0.420374 0.905525 0.141513
H23   H     H_    0.417659 0.658352 0.123123 0.146172
H24   H     H_    0.526249 0.422456 0.094254 0.150070
H25   H     H_    0.485543 0.649668 0.873357 0.136986
H26   H     H_    0.591461 0.748862 0.441142 0.177935
H27   H     H_    0.420171 0.251854 0.575581 0.164719
H28   H     H_    0.585678 0.891114 0.441848 0.156432
N1    N     N_2   0.537228 0.013964 0.502488 -0.198115
N2    N     N_3   0.256495 0.583998 0.396978 -0.464935
N3    N     N_3   0.907183 0.409513 0.596677 -0.415266
N4    N     N_3   0.086972 0.573566 0.401830 -0.420693
N5    N     N_1   0.116906 0.341568 0.676489 -0.197072
N6    N     N_1   0.897619 0.681869 0.364941 -0.199559
N7    N     N_3   0.314281 0.394681 0.617861 -0.387054
N8    N     N_3   0.699930 0.619004 0.389923 -0.454558
N9    N     N_1   0.389560 0.700783 0.318297 -0.212604
N10   N     N_1   0.625642 0.318298 0.730328 -0.203435
N11   N     N_1   0.692735 0.288502 0.384639 -0.208799
N12   N     N_2   0.468786 0.986519 0.508149 -0.195095
N13   N     N_1   0.289305 0.712364 0.588683 -0.199789
N14   N     N_R   0.283770 0.490310 0.509640 -0.108089
N15   N     N_R   0.716230 0.509690 0.490360 -0.124016
N16   N     N_2   0.025081 0.470917 0.521840 -0.117073
N17   N     N_2   0.977895 0.529816 0.498868 -0.123772
N18   N     N_3   0.450942 0.642651 0.717092 -0.449352
N19   N     N_3   0.535988 0.376063 0.244356 -0.455206
N20   N     N_3   0.738140 0.394145 0.581709 -0.464498
O1    O     O_R   0.577220 0.387330 0.496550 -0.630944
O2    O     O_R   0.422780 0.612670 0.503450 -0.617158
O3    O     O_R   0.438350 0.381110 0.502740 -0.597991
O4    O     O_R   0.561650 0.618890 0.497260 -0.628362
O5    O     O_R   0.577640 0.503470 0.612340 -0.632620
O6    O     O_R   0.422360 0.496530 0.387660 -0.627751
O7    O     O_R   0.438770 0.497250 0.618530 -0.578808
O8    O     O_R   0.561230 0.502750 0.381470 -0.633585
Zn1   Zn    Zn3+2 0.592720 0.504150 0.495870 0.940028
Zn2   Zn    Zn3+2 0.407280 0.495850 0.504130 0.968742

loop_
_geom_bond_atom_site_label_1
_geom_bond_atom_site_label_2
_ccdc_geom_bond_type
O5    Zn1   S    
C43   H26   S    
C38   N9    T    
C27   C29   A    
C14   C18   A    
C35   H1    S    
C3    H3    S    
C27   C33   S    
H10   N20   S    
C33   H12   S    
C23   C42   A    
H11   N2    S    
C24   C26   A    
C39   N10   T    
C14   C36   S    
C11   C14   A    
O4    Zn1   S    
O6    Zn2   S    
C18   N7    S    
C15   C37   S    
H8    N19   S    
C15   C19   A    
C28   C35   S    
H15   N3    S    
O1    Zn1   S    
C22   C25   A    
C25   H25   S    
C32   C38   S    
C19   N8    S    
C12   O4    A    
C1    O1    A    
N15   Zn1   S    
C42   C44   A    
H9    N20   S    
C46   N1    S    
N14   Zn2   S    
C10   N3    S    
C44   C46   A    
C2    C45   A    
C41   N13   T    
C21   C32   A    
H14   N3    S    
H7    N19   S    
C8    N20   S    
C4    C6    A    
C1    O3    A    
C36   N5    T    
C18   N14   A    
C6    C34   A    
C4    H4    S    
C45   H28   S    
C6    C41   S    
C40   N11   T    
C2    C4    A    
C17   O8    A    
C37   N6    T    
C19   N15   A    
H5    N18   S    
H20   N8    S    
C29   H22   S    
C43   C45   A    
N1    N12   D    
H19   N7    S    
C7    N14   A    
C5    C23   A    
C16   C20   S    
C9    C11   A    
C20   C22   A    
C1    C23   S    
O7    Zn2   S    
O2    Zn2   S    
C26   H24   S    
H6    N18   S    
C12   C34   S    
C30   H23   S    
C7    C9    A    
C42   H27   S    
H16   N4    S    
C34   C43   A    
C3    C5    A    
C10   C13   A    
C16   O5    A    
C7    N2    S    
C25   C27   A    
C3    C46   A    
C26   C28   A    
C13   C15   A    
C29   C31   A    
C24   N19   S    
C30   C32   A    
C11   N16   S    
N16   N17   D    
C28   C30   A    
C33   C35   D    
C31   C39   S    
C2    N12   S    
C9    N4    S    
O8    Zn1   S    
C17   O6    A    
C17   C21   S    
H18   N7    S    
O3    Zn2   S    
C16   O7    A    
H21   N8    S    
C8    C10   A    
C21   C24   A    
C22   N18   S    
C12   O2    A    
C8    N15   A    
C5    C40   S    
H13   N2    S    
C20   C31   A    
C13   N17   S    
C44   H2    S    
H17   N4    S    
