data_mof_unit_66901.cif
_audit_creation_date              2013-03-05T15:57:25-0500
_audit_creation_method            fapswitch 2.2
_symmetry_space_group_name_H-M    P1
_symmetry_Int_Tables_number       1
_space_group_crystal_system       triclinic
_cell_length_a                    17.194705
_cell_length_b                    18.490358
_cell_length_c                    8.38751
_cell_angle_alpha                 90.000261
_cell_angle_beta                  102.061947
_cell_angle_gamma                 89.961887
_cell_volume                      2607.81826366

loop_
_atom_site_label
_atom_site_type_symbol
_atom_site_description
_atom_site_fract_x
_atom_site_fract_y
_atom_site_fract_z
_atom_type_partial_charge
P1    P     P_3+3 0.834140 0.419320 0.003900 0.975979
P2    P     P_3+3 0.834140 0.580680 0.503900 0.975049
P3    P     P_3+3 0.334140 0.919320 0.003900 0.975899
P4    P     P_3+3 0.334140 0.080680 0.503900 0.975207
O1    O     O_2   0.841960 0.394640 0.833410 -0.463841
O2    O     O_2   0.841960 0.605360 0.333410 -0.463633
O3    O     O_2   0.341960 0.894640 0.833410 -0.463685
O4    O     O_2   0.341960 0.105360 0.333410 -0.463751
O5    O     O_3   0.907950 0.463080 0.102990 -0.498178
O6    O     O_3   0.907950 0.536920 0.602990 -0.498977
O7    O     O_3   0.407950 0.963080 0.102990 -0.498308
O8    O     O_3   0.407950 0.036920 0.602990 -0.498985
O9    O     O_3   0.972780 0.329600 0.629720 -0.489949
O10   O     O_3   0.972780 0.670400 0.129720 -0.488894
O11   O     O_3   0.472780 0.829600 0.629720 -0.490152
O12   O     O_3   0.472780 0.170400 0.129720 -0.488900
O13   O     O_2   0.842897 0.271617 0.703299 -0.443685
O14   O     O_2   0.843211 0.728638 0.204818 -0.445321
O15   O     O_2   0.342891 0.771628 0.703029 -0.443389
O16   O     O_2   0.343228 0.228648 0.204966 -0.445496
O17   O     O_3   0.751566 0.476714 0.966996 -0.651575
O18   O     O_3   0.751794 0.523129 0.466409 -0.651928
O19   O     O_3   0.251575 0.976713 0.966944 -0.651615
O20   O     O_3   0.251775 0.023152 0.466397 -0.651743
O21   O     O_3   0.945153 0.180562 0.629014 -0.573740
O22   O     O_3   0.944818 0.819348 0.127771 -0.573173
O23   O     O_3   0.445277 0.680514 0.629258 -0.574054
O24   O     O_3   0.444742 0.319347 0.127665 -0.573037
H1    H     H_    0.062898 0.211974 0.694175 0.081989
H2    H     H_    0.062825 0.788150 0.182612 0.076082
H3    H     H_    0.562854 0.712116 0.697441 0.083742
H4    H     H_    0.562783 0.288283 0.180908 0.075237
C1    C     C_3   0.051039 0.108642 0.575126 -0.405565
C2    C     C_3   0.048325 0.892374 0.067796 -0.404630
C3    C     C_3   0.551952 0.608992 0.577477 -0.405678
C4    C     C_3   0.547823 0.392637 0.066781 -0.404466
H5    H     H_    0.614559 0.610402 0.562394 0.073201
H6    H     H_    0.610052 0.392313 0.049154 0.075420
H7    H     H_    0.113561 0.109794 0.559446 0.073824
H8    H     H_    0.110591 0.891891 0.050360 0.075088
H9    H     H_    0.047350 0.077513 0.685741 0.128266
H10   H     H_    0.045075 0.922882 0.179436 0.128667
H11   H     H_    0.548145 0.577705 0.687820 0.128330
H12   H     H_    0.544582 0.423055 0.178517 0.128980
P5    P     P_3+3 0.165830 0.418670 0.685610 0.975526
P6    P     P_3+3 0.165830 0.581330 0.185610 0.975177
P7    P     P_3+3 0.665830 0.918670 0.685610 0.975259
P8    P     P_3+3 0.665830 0.081330 0.185610 0.975326
P9    P     P_3+3 0.103825 0.265461 0.110964 0.986171
P10   P     P_3+3 0.103579 0.734736 0.610503 0.989638
P11   P     P_3+3 0.603854 0.765486 0.110978 0.985193
P12   P     P_3+3 0.603505 0.234803 0.610469 0.990173
O25   O     O_2   0.157990 0.394030 0.856030 -0.470476
O26   O     O_2   0.157990 0.605970 0.356030 -0.470679
O27   O     O_2   0.657990 0.894030 0.856030 -0.470756
O28   O     O_2   0.657990 0.105970 0.356030 -0.470525
O29   O     O_3   0.027110 0.329490 0.059550 -0.436236
O30   O     O_3   0.027110 0.670510 0.559550 -0.434917
O31   O     O_3   0.527110 0.829490 0.059550 -0.436655
O32   O     O_3   0.527110 0.170510 0.559550 -0.434758
O33   O     O_2   0.169198 0.285531 0.018739 -0.495081
O34   O     O_2   0.169194 0.714108 0.519304 -0.493693
O35   O     O_2   0.669066 0.785286 0.018108 -0.495298
O36   O     O_2   0.669176 0.214092 0.519482 -0.493648
O37   O     O_3   0.249827 0.474153 0.725263 -0.623689
O38   O     O_3   0.249674 0.525492 0.224924 -0.624732
O39   O     O_3   0.749749 0.974264 0.725170 -0.623853
O40   O     O_3   0.749734 0.025572 0.224898 -0.624622
O41   O     O_3   0.071505 0.181950 0.024565 -0.589137
O42   O     O_3   0.071137 0.817761 0.521114 -0.585366
O43   O     O_3   0.571407 0.681833 0.025640 -0.590089
O44   O     O_3   0.571023 0.317755 0.520636 -0.584700
C5    C     C_3   0.025857 0.147389 0.122245 0.587406
C6    C     C_3   0.027481 0.854171 0.619998 0.584243
C7    C     C_3   0.525284 0.647834 0.123143 0.588395
C8    C     C_3   0.527839 0.354505 0.619919 0.583467
H13   H     H_    0.048570 0.156306 0.254310 -0.079200
H14   H     H_    0.053139 0.847827 0.751649 -0.078950
H15   H     H_    0.547154 0.657628 0.255020 -0.079178
H16   H     H_    0.554100 0.348597 0.751372 -0.078682
C9    C     C_3   0.027572 0.066582 0.093720 -0.358191
C10   C     C_3   0.027315 0.934307 0.583078 -0.355489
C11   C     C_3   0.527544 0.566891 0.097400 -0.359246
C12   C     C_3   0.527308 0.434514 0.581624 -0.354855
H17   H     H_    0.486413 0.539809 0.164559 0.102470
H18   H     H_    0.504472 0.443913 0.449239 0.133251
H19   H     H_    0.986962 0.039173 0.161615 0.102113
H20   H     H_    0.987883 0.962844 0.651860 0.102404
H21   H     H_    0.008288 0.054247 0.961483 0.132278
H22   H     H_    0.005491 0.944116 0.450543 0.133035
H23   H     H_    0.509300 0.553764 0.965473 0.132157
H24   H     H_    0.588702 0.456241 0.617602 0.088836
C13   C     C_3   0.228520 0.455538 0.263009 0.257335
C14   C     C_3   0.228998 0.544492 0.761461 0.257727
C15   C     C_3   0.728699 0.955566 0.262848 0.257317
C16   C     C_3   0.728792 0.044506 0.761847 0.257658
H25   H     H_    0.217763 0.454997 0.388528 0.013330
H26   H     H_    0.221035 0.546393 0.888971 0.014037
H27   H     H_    0.718513 0.954839 0.388825 0.013776
H28   H     H_    0.720267 0.046080 0.889036 0.013867
H29   H     H_    0.175585 0.434636 0.175981 0.066339
H30   H     H_    0.174639 0.564702 0.677542 0.064701
H31   H     H_    0.675470 0.934769 0.176480 0.065666
H32   H     H_    0.674680 0.064834 0.677282 0.065241
C17   C     C_3   0.297351 0.405718 0.253545 -0.280282
C18   C     C_3   0.296583 0.594056 0.742943 -0.275575
C19   C     C_3   0.797328 0.905761 0.251708 -0.279626
C20   C     C_3   0.796609 0.094217 0.745174 -0.276478
H33   H     H_    0.352635 0.426694 0.332547 0.158139
H34   H     H_    0.353083 0.574157 0.819592 0.160717
H35   H     H_    0.852865 0.926548 0.330188 0.158529
H36   H     H_    0.852915 0.074104 0.822225 0.160180
H37   H     H_    0.284779 0.350677 0.293538 0.128376
H38   H     H_    0.284160 0.649643 0.779899 0.131254
H39   H     H_    0.784828 0.850635 0.291310 0.128769
H40   H     H_    0.784128 0.149677 0.782923 0.130739
H41   H     H_    0.306016 0.403272 0.126223 0.128247
H42   H     H_    0.302899 0.594504 0.614009 0.124670
H43   H     H_    0.805501 0.903611 0.124005 0.127498
H44   H     H_    0.803352 0.095164 0.616450 0.125408
Ba1   Ba    Ba6+2 0.000000 0.447380 0.844850 1.667309
Ba2   Ba    Ba6+2 0.000000 0.552620 0.344850 1.667761
Ba3   Ba    Ba6+2 0.500000 0.947380 0.844850 1.666884
Ba4   Ba    Ba6+2 0.500000 0.052620 0.344850 1.667933
C21   C     C_3   0.771544 0.543695 0.909759 0.267509
C22   C     C_3   0.772614 0.455918 0.411640 0.267343
C23   C     C_3   0.271687 0.043753 0.910250 0.267536
C24   C     C_3   0.272562 0.955869 0.411903 0.267263
H45   H     H_    0.771715 0.538556 0.778680 0.024244
H46   H     H_    0.776483 0.461005 0.282445 0.023632
H47   H     H_    0.272731 0.038629 0.779589 0.023748
H48   H     H_    0.276030 0.960746 0.282448 0.022927
H49   H     H_    0.829755 0.564350 0.977588 0.045739
H50   H     H_    0.829261 0.434593 0.485312 0.049840
H51   H     H_    0.329516 0.064591 0.979477 0.046541
H52   H     H_    0.329381 0.934686 0.485109 0.050013
C25   C     C_3   0.708376 0.597919 0.931798 -0.344817
C26   C     C_3   0.707507 0.402546 0.425885 -0.344362
C27   C     C_3   0.208007 0.097738 0.930464 -0.344597
C28   C     C_3   0.207691 0.902465 0.427450 -0.343761
H53   H     H_    0.649089 0.572290 0.901031 0.136513
H54   H     H_    0.648847 0.428315 0.383762 0.132175
H55   H     H_    0.148871 0.071997 0.897273 0.135622
H56   H     H_    0.148935 0.928046 0.385215 0.132155
H57   H     H_    0.708622 0.645576 0.852069 0.056281
H58   H     H_    0.710573 0.353836 0.350877 0.057115
H59   H     H_    0.208803 0.145605 0.851617 0.056337
H60   H     H_    0.210847 0.853457 0.353313 0.057793
H61   H     H_    0.719222 0.615850 0.060551 0.131432
H62   H     H_    0.713368 0.386302 0.555040 0.130196
H63   H     H_    0.217738 0.115346 0.059331 0.131091
H64   H     H_    0.213742 0.886710 0.556978 0.130403
O45   O     O_3   0.092100 0.536880 0.086720 -0.503364
O46   O     O_3   0.092100 0.463120 0.586720 -0.503724
O47   O     O_3   0.592100 0.036880 0.086720 -0.503416
O48   O     O_3   0.592100 0.963120 0.586720 -0.503598
P13   P     P_3+3 0.898563 0.735812 0.082391 1.004814
P14   P     P_3+3 0.898787 0.264042 0.582021 1.003349
P15   P     P_3+3 0.398529 0.235788 0.082432 1.004960
P16   P     P_3+3 0.398876 0.763973 0.581967 1.002910
C29   C     C_3   0.021306 0.184527 0.592850 0.372974
C30   C     C_3   0.019543 0.816131 0.084925 0.369046
C31   C     C_3   0.521832 0.684748 0.595149 0.374010
C32   C     C_3   0.519241 0.316317 0.083808 0.368199
H65   H     H_    0.021057 0.213716 0.476726 -0.052323
H66   H     H_    0.017102 0.787955 0.966715 -0.047006
H67   H     H_    0.522213 0.714183 0.479659 -0.053608
H68   H     H_    0.516496 0.288313 0.965310 -0.045642
H69   H     H_    0.514372 0.582416 0.469801 0.123381
H70   H     H_    0.508829 0.419376 0.961030 0.125838
H71   H     H_    0.013120 0.082080 0.467820 0.123848
H72   H     H_    0.009457 0.919135 0.961875 0.125527
H73   H     H_    0.588952 0.546613 0.144883 0.088239
H74   H     H_    0.488533 0.463295 0.651562 0.102189
H75   H     H_    0.089063 0.045927 0.138763 0.088515
H76   H     H_    0.088661 0.955945 0.621352 0.088510
C33   C     C_R   0.137021 0.677935 0.924364 -0.283158
C34   C     C_R   0.137174 0.322331 0.424456 -0.284075
C35   C     C_R   0.636900 0.178020 0.924418 -0.283324
C36   C     C_R   0.637343 0.822454 0.424326 -0.283988
C37   C     C_R   0.859878 0.324785 0.270297 -0.239816
C38   C     C_R   0.859432 0.674844 0.770955 -0.238757
C39   C     C_R   0.359956 0.824739 0.270245 -0.240292
C40   C     C_R   0.359371 0.174802 0.771023 -0.238616
C41   C     C_R   0.788039 0.215397 0.305669 -0.039620
C42   C     C_R   0.787609 0.784317 0.806395 -0.036774
C43   C     C_R   0.288163 0.715320 0.305575 -0.040292
C44   C     C_R   0.287520 0.284260 0.806478 -0.036209
C45   C     C_R   0.844354 0.268125 0.368644 -0.009439
C46   C     C_R   0.843740 0.731415 0.869447 -0.008185
C47   C     C_R   0.344499 0.768031 0.368538 -0.009588
C48   C     C_R   0.343654 0.231358 0.869534 -0.008023
C49   C     C_R   0.814582 0.334574 0.112920 0.092328
C50   C     C_R   0.814381 0.665278 0.613329 0.090748
C51   C     C_R   0.314604 0.834564 0.112930 0.092121
C52   C     C_R   0.314368 0.165270 0.613338 0.090988
C53   C     C_R   0.753095 0.283166 0.050432 -0.024725
C54   C     C_R   0.753062 0.716857 0.550782 -0.026540
C55   C     C_R   0.253128 0.783145 0.050448 -0.024644
C56   C     C_R   0.253024 0.216829 0.550802 -0.026705
C57   C     C_R   0.240761 0.721643 0.147296 -0.025918
C58   C     C_R   0.240490 0.278220 0.647814 -0.027103
C59   C     C_R   0.740689 0.221686 0.147319 -0.025933
C60   C     C_R   0.740559 0.778265 0.647765 -0.027078
C61   C     C_R   0.181919 0.668381 0.081674 0.055522
C62   C     C_R   0.181844 0.331645 0.581941 0.055317
C63   C     C_R   0.681847 0.168424 0.081693 0.055432
C64   C     C_R   0.681931 0.831703 0.581880 0.055285
C65   C     C_R   0.150735 0.735937 0.828388 -0.025564
C66   C     C_R   0.151040 0.264408 0.328530 -0.023464
C67   C     C_R   0.650622 0.236024 0.828417 -0.025934
C68   C     C_R   0.651212 0.764539 0.328421 -0.022958
C69   C     C_R   0.206380 0.789141 0.891781 -0.097537
C70   C     C_R   0.206444 0.210997 0.392035 -0.098434
C71   C     C_R   0.706349 0.289172 0.891757 -0.098078
C72   C     C_R   0.706501 0.711050 0.392005 -0.097867
H77   H     H_    0.282691 0.669643 0.381812 0.104969
H78   H     H_    0.282218 0.330010 0.882766 0.106778
H79   H     H_    0.782576 0.169721 0.381941 0.105224
H80   H     H_    0.782296 0.830064 0.882668 0.106328
H81   H     H_    0.713721 0.333785 0.813759 0.086774
H82   H     H_    0.713608 0.666276 0.314283 0.086923
H83   H     H_    0.213691 0.833790 0.813854 0.086607
H84   H     H_    0.213635 0.166274 0.314224 0.087021
H85   H     H_    0.094077 0.637215 0.871739 0.058020
H86   H     H_    0.094293 0.363136 0.371704 0.057954
H87   H     H_    0.593937 0.137313 0.871809 0.058193
H88   H     H_    0.594480 0.863271 0.371559 0.057801
H89   H     H_    0.905618 0.363613 0.319853 0.046562
H90   H     H_    0.905327 0.636076 0.820338 0.047050
H91   H     H_    0.405686 0.863575 0.319805 0.046759
H92   H     H_    0.405241 0.136016 0.820439 0.046908
Br1   Br    Br    0.917879 0.180336 0.060713 -0.657255
Br2   Br    Br    0.919641 0.820359 0.571019 -0.662856
Br3   Br    Br    0.417336 0.680286 0.058235 -0.655999
Br4   Br    Br    0.420044 0.320607 0.573510 -0.664275

loop_
_geom_bond_atom_site_label_1
_geom_bond_atom_site_label_2
_geom_bond_distance
_ccdc_geom_bond_type
P6    C61   1.878492 S    
C67   C71   1.398090 A    
P1    O17   1.747085 S    
P5    C62   1.876328 S    
O10   Ba2   2.804185 S    
C35   C67   1.390704 A    
C20   H44   1.109851 S    
P3    O19   1.746957 S    
O7    Ba4   2.832495 S    
C2    H10   1.104519 S    
P8    O28   1.532767 D    
P4    O4    1.533507 D    
O6    Ba1   2.831274 S    
C54   C72   1.407321 A    
C28   H60   1.106698 S    
C54   C60   1.438729 A    
C2    H72   1.110039 S    
Ba3   Ba4   4.623216 S    
C70   H84   1.076393 S    
Ba3   O47   2.832463 S    
C26   H62   1.108255 S    
C34   C66   1.389626 A    
C1    H7    1.110222 S    
C7    H15   1.106319 S    
O11   Ba3   2.804656 S    
P7    C64   1.876024 S    
C18   H38   1.107035 S    
P1    O1    1.533449 D    
O15   P16   1.544708 D    
O28   Ba4   2.873823 S    
C25   H57   1.106759 S    
C3    H5    1.110192 S    
C23   H51   1.110639 S    
P6    O38   1.747142 S    
P3    O3    1.533449 D    
C24   H52   1.110713 S    
C43   H77   1.075316 S    
P4    O20   1.746993 S    
C49   C53   1.437289 A    
O18   C22   1.397044 S    
P7    O48   1.590555 S    
C14   H26   1.106789 S    
C21   H49   1.110803 S    
O1    Ba1   2.870414 S    
P9    O29   1.757221 S    
P4    Ba4   3.430793 S    
O22   P13   1.743103 S    
C36   C68   1.389435 A    
C33   C65   1.390514 A    
O32   Ba4   2.803979 S    
P13   C46   1.838936 S    
C25   H53   1.105022 S    
P12   O32   1.757491 S    
C13   C17   1.514409 S    
C30   H66   1.113053 S    
P5    O37   1.746513 S    
C37   C45   1.393447 A    
P11   C68   1.835476 S    
C38   H90   1.082033 S    
C14   C18   1.513728 S    
C60   C64   1.436600 A    
P10   C65   1.838059 S    
O21   C29   1.406460 S    
O16   P15   1.544832 D    
P9    C66   1.835833 S    
P2    O18   1.746996 S    
P12   C67   1.838382 S    
C56   C70   1.407404 A    
C12   H24   1.110989 S    
C40   C48   1.393652 A    
O41   C5    1.401838 S    
C38   C50   1.396936 A    
P4    O8    1.585553 S    
C3    H11   1.104934 S    
C28   H64   1.108466 S    
C5    Br1   1.919025 S    
C53   C71   1.407997 A    
C52   C56   1.436661 A    
O25   Ba1   2.872584 S    
O23   C31   1.406511 S    
C33   H85   1.082354 S    
C28   H56   1.104395 S    
C16   C20   1.514516 S    
P7    O27   1.532824 D    
P5    O25   1.532824 D    
P9    O41   1.746782 S    
C18   H42   1.109261 S    
O12   P15   1.742253 S    
C35   H87   1.082348 S    
Ba2   O46   2.831243 S    
C17   H41   1.109584 S    
P2    O2    1.533507 D    
P11   O43   1.746511 S    
Ba1   O45   2.832463 S    
C6    C10   1.513643 S    
C12   H74   1.111219 S    
C24   H48   1.103514 S    
C22   H50   1.110858 S    
C19   H43   1.109736 S    
C15   H31   1.110731 S    
C51   C55   1.437274 A    
Ba3   O48   2.951897 S    
P2    Ba2   3.430793 S    
O31   Ba3   2.803510 S    
H3    C31   1.112324 S    
C8    C12   1.513478 S    
O30   Ba2   2.803979 S    
O40   C15   1.398728 S    
P9    O33   1.537379 D    
Ba1   O46   2.951897 S    
O10   P13   1.742188 S    
C42   C60   1.409792 A    
P10   O30   1.757559 S    
C68   C72   1.397585 A    
C32   H68   1.112928 S    
P11   O35   1.537437 D    
C1    H9    1.104877 S    
C40   H92   1.082046 S    
C8    Br4   1.918303 S    
C26   H54   1.104378 S    
P14   C45   1.839723 S    
C37   H89   1.082078 S    
O20   C24   1.397172 S    
C22   H46   1.103478 S    
O4    Ba4   2.869186 S    
P5    Ba1   3.433051 S    
O23   P16   1.743959 S    
C40   C52   1.396975 A    
C42   H80   1.075850 S    
O22   C30   1.405869 S    
O24   P15   1.743013 S    
P3    C51   1.879956 S    
C20   H36   1.109651 S    
C44   C58   1.409892 A    
C3    C31   1.511093 S    
C42   C46   1.397662 A    
C1    C29   1.510982 S    
O42   C6    1.401468 S    
P12   O44   1.747932 S    
H1    C29   1.112538 S    
C27   H63   1.107598 S    
O9    Ba1   2.804656 S    
C19   H35   1.109371 S    
C39   H91   1.082072 S    
C39   C51   1.397113 A    
C33   C61   1.393636 A    
C35   C63   1.393798 A    
C31   H67   1.112323 S    
C27   H59   1.106665 S    
P6    O26   1.532767 D    
O5    Ba2   2.832495 S    
P1    O5    1.586410 S    
O44   C8    1.401539 S    
P7    O39   1.746656 S    
P8    O40   1.747074 S    
C7    Br3   1.917765 S    
O13   P14   1.544762 D    
C19   H39   1.107089 S    
Ba1   Ba2   4.623216 S    
C9    H19   1.111477 S    
C15   C19   1.514585 S    
C5    C9    1.514429 S    
O38   C13   1.398785 S    
O37   C14   1.398855 S    
C25   H61   1.107627 S    
P8    O47   1.591422 S    
C10   H76   1.111235 S    
C34   C62   1.393036 A    
Ba4   O48   2.831243 S    
P12   O36   1.537430 D    
O39   C16   1.398953 S    
P10   O34   1.537412 D    
Ba2   O45   2.951689 S    
C2    H8    1.110492 S    
C4    H12   1.104335 S    
C6    Br2   1.918630 S    
O2    Ba2   2.869186 S    
C13   H29   1.110613 S    
C4    H6    1.110362 S    
C1    H71   1.109762 S    
O27   Ba3   2.872584 S    
C13   H25   1.106384 S    
O9    P14   1.742830 S    
C37   C49   1.397099 A    
O24   C32   1.405787 S    
C55   C57   1.439025 A    
C18   H34   1.109503 S    
C17   H37   1.107081 S    
P4    C52   1.879956 S    
C16   H32   1.110781 S    
C17   H33   1.109233 S    
C22   C26   1.516186 S    
C5    H13   1.107247 S    
C41   H79   1.075452 S    
P1    Ba1   3.431369 S    
C11   H17   1.111405 S    
C58   C62   1.436612 A    
C55   C69   1.407944 A    
C43   C47   1.398075 A    
P15   C48   1.838910 S    
C8    H16   1.106046 S    
P16   C47   1.839782 S    
C12   H18   1.111315 S    
C2    C30   1.511171 S    
C39   C47   1.393468 A    
P8    Ba4   3.433640 S    
C41   C45   1.398102 A    
P7    Ba3   3.433051 S    
C44   H78   1.075920 S    
H2    C30   1.112440 S    
C11   H23   1.112107 S    
C43   C57   1.409992 A    
O19   C23   1.396996 S    
C4    H70   1.109850 S    
C10   H22   1.111319 S    
C44   C48   1.397702 A    
C21   C25   1.517109 S    
C20   H40   1.107243 S    
C23   H47   1.103885 S    
C11   H73   1.112573 S    
O12   Ba4   2.804185 S    
C9    H21   1.112897 S    
O11   P16   1.742726 S    
O14   P13   1.544830 D    
C66   C70   1.397612 A    
C41   C59   1.410091 A    
O43   C7    1.401690 S    
C69   H83   1.076598 S    
C7    C11   1.513796 S    
C50   C54   1.436658 A    
O8    Ba3   2.831274 S    
C59   C63   1.437056 A    
C26   H58   1.106155 S    
C10   H20   1.110835 S    
H4    C32   1.112285 S    
P8    C63   1.878783 S    
P3    Ba3   3.431369 S    
C3    H69   1.109589 S    
C36   H88   1.082408 S    
C53   C59   1.439079 A    
C15   H27   1.106649 S    
P6    O45   1.591422 S    
C16   H28   1.107137 S    
C65   C69   1.398068 A    
P10   O42   1.747611 S    
C34   H86   1.082405 S    
C72   H82   1.076305 S    
P3    O7    1.586410 S    
O29   Ba1   2.803510 S    
C21   H45   1.104135 S    
O26   Ba2   2.873823 S    
P11   O31   1.757266 S    
C14   H30   1.110539 S    
C56   C58   1.438764 A    
C6    H14   1.106363 S    
Ba4   O47   2.951689 S    
O21   P14   1.743732 S    
C4    C32   1.511177 S    
C57   C61   1.437052 A    
P1    C49   1.879866 S    
P6    Ba2   3.433640 S    
C27   H55   1.104669 S    
P5    O46   1.590555 S    
C38   C46   1.393624 A    
P2    C50   1.879974 S    
C36   C64   1.392876 A    
O17   C21   1.397084 S    
C23   C27   1.516660 S    
C9    H75   1.113112 S    
C29   H65   1.112765 S    
C71   H81   1.076724 S    
O3    Ba3   2.870414 S    
C24   C28   1.516099 S    
P2    O6    1.585553 S    
