data_mof_unit_21444.cif
_audit_creation_date              2012-12-10T18:31:05-0500
_audit_creation_method            fapswitch 2.2
_symmetry_space_group_name_H-M    P1
_symmetry_Int_Tables_number       1
_space_group_crystal_system       triclinic
_cell_length_a                    13.727358
_cell_length_b                    15.004481
_cell_length_c                    15.600422
_cell_angle_alpha                 98.001037
_cell_angle_beta                  92.090517
_cell_angle_gamma                 99.505068
_cell_volume                      3132.46182643

loop_
_atom_site_label
_atom_site_type_symbol
_atom_type_description
_atom_site_fract_x
_atom_site_fract_y
_atom_site_fract_z
_atom_type_partial_charge
C1    C     C_R   0.516449 0.557900 0.662393 0.848528
C2    C     C_R   0.485227 0.442379 0.337704 0.847344
C3    C     C_R   0.529910 0.557248 0.901766 0.095318
C4    C     C_R   0.503422 0.446257 0.100644 0.052401
C5    C     C_R   0.561730 0.650429 0.936306 -0.003198
C6    C     C_R   0.469912 0.353922 0.064173 0.097199
C7    C     C_R   0.517758 0.489092 0.956478 0.044861
C8    C     C_R   0.522982 0.515190 0.046767 0.038821
C9    C     C_R   0.537757 0.609381 0.080083 -0.212683
C10   C     C_R   0.507531 0.395304 0.923232 -0.251753
C11   C     C_R   0.552460 0.677214 0.026293 0.119888
C12   C     C_R   0.488165 0.327656 0.976397 0.146483
C13   C     C_R   0.373620 0.172450 0.650943 -0.140130
C14   C     C_R   0.636253 0.832350 0.356947 -0.115590
C15   C     C_R   0.375202 0.251677 0.610823 0.216961
C16   C     C_R   0.620683 0.745631 0.384872 0.240248
C17   C     C_R   0.496403 0.208584 0.516580 -0.075664
C18   C     C_R   0.513958 0.795108 0.491414 0.004946
C19   C     C_R   0.486699 0.121841 0.544818 -0.048002
C20   C     C_R   0.526754 0.883342 0.466176 0.018195
C21   C     C_R   0.428635 0.105564 0.616302 0.118302
C22   C     C_R   0.585504 0.900421 0.395435 -0.064430
C23   C     C_R   0.318837 0.513598 0.498141 0.890392
C24   C     C_R   0.681219 0.486451 0.501970 0.913619
C25   C     C_R   0.526658 0.048452 0.499725 -0.062213
C26   C     C_R   0.487766 0.956927 0.512318 0.109238
C27   C     C_R   0.418318 0.943538 0.576063 -0.161322
C28   C     C_R   0.596360 0.062224 0.436468 -0.048710
C29   C     C_R   0.413517 0.016780 0.640215 -0.057246
C30   C     C_R   0.601240 0.989075 0.371964 0.027338
C31   C     C_1   0.780453 0.476506 0.495522 -0.185486
C32   C     C_1   0.219413 0.523180 0.503053 -0.182796
C33   C     C_2   0.965997 0.462712 0.482399 0.133243
C34   C     C_2   0.033697 0.538353 0.509914 0.140832
C35   C     C_1   0.135386 0.532051 0.507098 -0.008197
C36   C     C_1   0.864360 0.467963 0.489044 -0.017361
C37   C     C_R   0.534045 0.594996 0.755546 -0.167433
C38   C     C_R   0.476300 0.406748 0.244419 -0.127631
C39   C     C_R   0.600237 0.712073 0.879044 -0.067619
C40   C     C_R   0.420440 0.292535 0.117047 -0.039491
C41   C     C_R   0.585774 0.684020 0.787916 -0.052943
C42   C     C_R   0.426099 0.318497 0.208383 -0.070742
C43   C     C_R   0.507126 0.534087 0.813074 -0.246538
C44   C     C_R   0.515883 0.467511 0.190165 -0.247082
H1    H     H_    0.558950 0.531988 0.219062 0.149340
H2    H     H_    0.466274 0.467443 0.787718 0.165660
H3    H     H_    0.532375 0.632129 0.147936 0.155250
H4    H     H_    0.519057 0.373161 0.856100 0.154289
H5    H     H_    0.474949 0.779348 0.547534 0.127045
H6    H     H_    0.538511 0.224793 0.462190 0.159339
N1    N     N_R   0.445040 0.272490 0.551770 -0.113268
N2    N     N_R   0.554960 0.727510 0.448230 -0.122205
O1    O     O_R   0.527700 0.614770 0.606110 -0.637979
O2    O     O_R   0.472300 0.385230 0.393890 -0.612901
O3    O     O_R   0.492440 0.468680 0.639380 -0.601827
O4    O     O_R   0.507560 0.531320 0.360620 -0.637262
O5    O     O_R   0.379820 0.583550 0.480950 -0.579507
O6    O     O_R   0.620180 0.416450 0.519050 -0.606282
O7    O     O_R   0.344560 0.437460 0.514220 -0.631645
O8    O     O_R   0.655440 0.562540 0.485780 -0.618946
Zn1   Zn    Zn3+2 0.523550 0.597550 0.477790 0.953914
Zn2   Zn    Zn3+2 0.476450 0.402450 0.522210 0.953339
C45   C     C_3   0.007798 0.629591 0.548047 -0.411275
C46   C     C_3   0.994854 0.633975 0.645175 -0.788686
H7    H     H_    0.933507 0.579963 0.657584 0.260651
H8    H     H_    0.064234 0.624831 0.679210 0.253529
H9    H     H_    0.976942 0.701576 0.671640 0.272750
H10   H     H_    0.067704 0.685948 0.537489 0.234535
H11   H     H_    0.939368 0.642232 0.515273 0.211900
C47   C     C_3   0.992239 0.370417 0.448189 -0.396752
C48   C     C_3   0.011078 0.317812 0.522378 -0.796121
H12   H     H_    0.073551 0.356473 0.566809 0.250553
H13   H     H_    0.943764 0.305831 0.559481 0.267820
H14   H     H_    0.030156 0.250721 0.495780 0.262861
H15   H     H_    0.930516 0.329311 0.404146 0.244277
H16   H     H_    0.058283 0.378245 0.409007 0.202064
C49   C     C_2   0.300316 0.154572 0.717285 0.462214
H17   H     H_    0.300300 0.204709 0.774456 0.088356
O9    O     O_2   0.236033 0.086588 0.705729 -0.552986
C50   C     C_2   0.716718 0.855044 0.297716 0.356216
H18   H     H_    0.719030 0.812380 0.236057 0.053361
O10   O     O_2   0.782325 0.921015 0.318699 -0.513355
C51   C     C_2   0.335569 0.864149 0.566488 0.382577
H19   H     H_    0.293571 0.847847 0.621420 0.061070
O11   O     O_2   0.309294 0.819270 0.495526 -0.543357
C52   C     C_2   0.680023 0.141141 0.450645 0.471786
H20   H     H_    0.687360 0.190082 0.509651 0.038637
O12   O     O_2   0.744649 0.149990 0.399204 -0.499151
C53   C     C_3   0.545697 0.775108 0.065316 -0.438121
C54   C     C_3   0.457913 0.781970 0.122459 -0.822870
H21   H     H_    0.389314 0.739087 0.089778 0.277586
H22   H     H_    0.472470 0.761032 0.186549 0.241746
H23   H     H_    0.446021 0.853999 0.134497 0.257151
H24   H     H_    0.615374 0.806735 0.103921 0.191639
H25   H     H_    0.533988 0.816773 0.013822 0.237187
C55   C     C_3   0.497702 0.230617 0.939159 -0.322588
C56   C     C_3   0.599867 0.224758 0.904789 -0.785042
H26   H     H_    0.610141 0.257438 0.845424 0.244899
H27   H     H_    0.658899 0.258123 0.955141 0.259118
H28   H     H_    0.607476 0.151965 0.887799 0.293027
H29   H     H_    0.488479 0.183964 0.988427 0.224771
H30   H     H_    0.439746 0.205361 0.886093 0.257780
C57   C     C_2   0.374656 0.256557 0.265127 0.408962
H31   H     H_    0.325429 0.281579 0.312097 0.077067
O13   O     O_2   0.389713 0.178251 0.261937 -0.554717
C58   C     C_2   0.629471 0.745400 0.727548 0.554251
H32   H     H_    0.581848 0.773358 0.685183 0.039561
O14   O     O_2   0.719141 0.764365 0.724589 -0.544936
C59   C     C_2   0.667303 0.799157 0.914126 0.427261
H33   H     H_    0.715220 0.802278 0.971734 0.067435
O15   O     O_2   0.667225 0.868478 0.881377 -0.535681
C60   C     C_2   0.346395 0.211654 0.077412 0.363894
H34   H     H_    0.331467 0.151047 0.108458 0.144107
O16   O     O_2   0.298567 0.213306 0.010252 -0.560486
C61   C     C_2   0.402309 0.998178 0.730765 0.481202
H35   H     H_    0.370867 0.930724 0.744072 0.046307
O17   O     O_2   0.434782 0.056558 0.791943 -0.594665
C62   C     C_2   0.607626 0.004453 0.279742 0.575959
H36   H     H_    0.601235 0.947124 0.228092 0.011218
O18   O     O_2   0.614091 0.080980 0.259758 -0.503860
C63   C     C_3   0.688410 0.679143 0.351719 -0.394281
C64   C     C_3   0.789710 0.702176 0.401395 -0.790454
H37   H     H_    0.781350 0.707270 0.472348 0.278797
H38   H     H_    0.833512 0.647683 0.381270 0.232362
H39   H     H_    0.831641 0.767835 0.387641 0.276942
H40   H     H_    0.658595 0.608184 0.353727 0.260460
H41   H     H_    0.698056 0.678494 0.281436 0.147794
C65   C     C_3   0.281359 0.293862 0.613631 -0.350544
C66   C     C_3   0.282493 0.371994 0.688160 -0.829791
H42   H     H_    0.317657 0.357209 0.748534 0.231435
H43   H     H_    0.321046 0.437529 0.672199 0.279534
H44   H     H_    0.205297 0.380821 0.700735 0.239817
H45   H     H_    0.259879 0.310295 0.549891 0.228341
H46   H     H_    0.216431 0.241018 0.620759 0.190696

loop_
_geom_bond_atom_site_label_1
_geom_bond_atom_site_label_2
_ccdc_geom_bond_type
O6    Zn2   S    
C7    C10   A    
C53   H25   S    
C55   H30   S    
C27   C29   A    
C4    C8    A    
C65   C66   S    
C17   N1    A    
C60   O16   D    
C56   H26   S    
C18   N2    A    
C7    C8    A    
C39   C41   A    
C49   H17   S    
C25   C28   A    
C23   O7    A    
C3    C43   A    
C26   C27   A    
C20   C26   A    
C19   C21   A    
C63   H41   S    
C3    C7    A    
N2    Zn1   S    
C59   O15   D    
C6    C12   A    
C52   O12   D    
C58   H32   S    
C61   H35   S    
O3    Zn2   S    
C33   C36   S    
C34   C35   S    
C53   H24   S    
C11   C53   S    
C62   H36   S    
C1    O1    A    
O1    Zn1   S    
C45   H11   S    
C8    C9    A    
C61   O17   D    
C47   C48   S    
C14   C16   A    
C14   C50   S    
C1    C37   S    
C66   H44   S    
C40   C42   A    
C29   C61   S    
C55   H29   S    
C42   C57   S    
N1    Zn2   S    
C60   H34   S    
C56   H27   S    
C49   O9    D    
C13   C49   S    
C41   C58   S    
C32   C35   T    
C50   O10   D    
C2    O2    A    
C48   H13   S    
C52   H20   S    
C4    C44   A    
C25   C26   A    
C21   C29   A    
C45   C46   S    
O8    Zn1   S    
C46   H8    S    
C37   C43   A    
C16   C63   S    
C46   H9    S    
C38   C44   A    
C65   H46   S    
C2    C38   S    
C54   H22   S    
C51   H19   S    
C24   O8    A    
C55   C56   S    
C33   C34   D    
C13   C21   A    
C57   O13   D    
C9    C11   A    
C63   C64   S    
C10   C12   A    
C33   C47   S    
C4    C6    A    
C51   O11   D    
C20   C22   A    
C9    H3    S    
C15   N1    A    
C15   C65   S    
C13   C15   A    
C5    C11   A    
C10   H4    S    
C6    C40   A    
C47   H16   S    
C64   H38   S    
C53   C54   S    
C47   H15   S    
C56   H28   S    
C44   H1    S    
C54   H23   S    
C66   H42   S    
C23   O5    A    
C45   H10   S    
O7    Zn2   S    
C22   C30   A    
C31   C36   T    
C16   N2    A    
C50   H18   S    
C3    C5    A    
C17   H6    S    
C48   H14   S    
O5    Zn1   S    
O2    Zn2   S    
C46   H7    S    
C14   C22   A    
C64   H39   S    
C5    C39   A    
C1    O3    A    
C24   C31   S    
C63   H40   S    
C2    O4    A    
C65   H45   S    
C23   C32   S    
C28   C52   S    
C40   C60   S    
C54   H21   S    
C58   O14   D    
C28   C30   A    
C34   C45   S    
C17   C19   A    
C18   C20   A    
C37   C41   A    
C19   C25   A    
C43   H2    S    
C62   O18   D    
C27   C51   S    
C38   C42   A    
C39   C59   S    
C48   H12   S    
C24   O6    A    
C30   C62   S    
C57   H31   S    
O4    Zn1   S    
C12   C55   S    
C64   H37   S    
C59   H33   S    
C18   H5    S    
C66   H43   S    
