data_mof_unit_20395.cif
_audit_creation_date              2012-12-11T16:26:32-0500
_audit_creation_method            fapswitch 2.2
_symmetry_space_group_name_H-M    P1
_symmetry_Int_Tables_number       1
_space_group_crystal_system       triclinic
_cell_length_a                    6.931757
_cell_length_b                    17.52791
_cell_length_c                    19.46335
_cell_angle_alpha                 108.637507
_cell_angle_beta                  89.864996
_cell_angle_gamma                 90.36441
_cell_volume                      2240.72570352

loop_
_atom_site_label
_atom_site_type_symbol
_atom_type_description
_atom_site_fract_x
_atom_site_fract_y
_atom_site_fract_z
_atom_type_partial_charge
O1    O     O_R   0.494330 0.415720 0.413720 -0.536000
O2    O     O_R   0.819330 0.430070 0.560210 -0.543878
O3    O     O_R   0.994320 0.584280 0.586280 -0.534978
C1    C     C_R   0.650691 0.414906 0.581650 0.705897
O4    O     O_R   0.823730 0.406300 0.412670 -0.538280
O5    O     O_R   0.998760 0.560340 0.437690 -0.542811
C2    C     C_R   0.654881 0.383565 0.384931 0.695349
O6    O     O_R   0.489890 0.439660 0.562310 -0.541496
O7    O     O_3   0.662340 0.550560 0.508380 -0.368659
V1    V     V_3+5 0.935370 0.490620 0.498450 1.415784
O8    O     O_R   0.328750 0.569930 0.439790 -0.544027
C3    C     C_R   0.160369 0.584950 0.418072 0.704940
O9    O     O_R   0.324340 0.593700 0.587330 -0.538566
C4    C     C_R   0.155578 0.616500 0.614991 0.697827
V2    V     V_3+5 0.435940 0.509380 0.501550 1.414566
O10   O     O_3   0.159100 0.449440 0.491620 -0.367930
H1    H     H_    0.320278 0.870280 0.572014 0.113620
C5    C     C_R   0.050489 0.591236 0.750019 -0.153946
C6    C     C_R   0.998494 0.577036 0.814073 -0.113399
C7    C     C_R   0.986306 0.640708 0.878510 -0.096353
C8    C     C_R   0.025816 0.719082 0.879392 -0.142967
C9    C     C_R   0.077686 0.735497 0.815120 0.068731
C10   C     C_R   0.090419 0.670239 0.749066 0.070988
C11   C     C_R   0.120049 0.815109 0.816109 -0.184027
C12   C     C_R   0.175408 0.829437 0.751059 0.068524
C13   C     C_R   0.188243 0.764178 0.685018 0.068900
C14   C     C_R   0.145615 0.684592 0.684000 -0.183309
C15   C     C_R   0.215471 0.908428 0.750117 -0.145788
C16   C     C_R   0.267926 0.922590 0.686100 -0.125572
C17   C     C_R   0.280418 0.858906 0.621683 -0.117584
C18   C     C_R   0.240551 0.780565 0.620775 -0.135120
H2    H     H_    0.968432 0.516220 0.813738 0.133153
H3    H     H_    0.946875 0.629297 0.928205 0.133807
H4    H     H_    0.016350 0.766386 0.931057 0.100622
H5    H     H_    0.205473 0.960192 0.798563 0.111463
H6    H     H_    0.298054 0.983401 0.686449 0.113048
H7    H     H_    0.250151 0.733273 0.569110 0.099589
C19   C     C_R   0.306928 0.633206 0.321209 -0.213450
C20   C     C_R   0.152328 0.634072 0.368546 -0.087685
C21   C     C_R   0.989426 0.681376 0.367746 -0.228009
C22   C     C_R   0.981445 0.728245 0.321185 0.092244
C23   C     C_R   0.136215 0.726361 0.273393 0.052178
C24   C     C_R   0.298887 0.678210 0.273085 0.085196
C25   C     C_R   0.821601 0.777190 0.321660 -0.192080
C26   C     C_R   0.813910 0.823168 0.274670 -0.186644
C27   C     C_R   0.965658 0.820897 0.226174 0.090665
C28   C     C_R   0.128287 0.772710 0.225827 0.052535
C29   C     C_R   0.283098 0.770871 0.178061 0.087167
C30   C     C_R   0.442786 0.721806 0.177494 -0.172639
C31   C     C_R   0.450479 0.675826 0.224490 -0.166399
C32   C     C_R   0.957865 0.866118 0.178237 -0.218491
C33   C     C_R   0.112655 0.865445 0.131041 -0.084748
C34   C     C_R   0.275363 0.817966 0.131677 -0.222197
H8    H     H_    0.432256 0.596391 0.320963 0.125052
H9    H     H_    0.869994 0.682653 0.404174 0.128477
H10   H     H_    0.701761 0.779595 0.358141 0.131864
H11   H     H_    0.688396 0.860153 0.275948 0.132277
H12   H     H_    0.832601 0.902993 0.178554 0.122895
H13   H     H_    0.394849 0.816769 0.095291 0.128688
H14   H     H_    0.562588 0.719372 0.140989 0.137587
H15   H     H_    0.575955 0.638814 0.223192 0.137765
C35   C     C_R   0.480272 0.207731 0.884755 0.129389
C36   C     C_R   0.621304 0.146258 0.878465 -0.135279
C37   C     C_R   0.771434 0.136591 0.827997 -0.204119
C38   C     C_R   0.777936 0.181574 0.780323 0.121259
C39   C     C_R   0.639822 0.242108 0.786014 -0.009701
C40   C     C_R   0.500045 0.260633 0.842423 0.008315
C41   C     C_R   0.920615 0.166161 0.726298 -0.159531
C42   C     C_R   0.923775 0.208566 0.676522 -0.188843
C43   C     C_R   0.784197 0.267135 0.679809 0.109575
C44   C     C_R   0.642782 0.284473 0.734981 0.062083
C45   C     C_R   0.504929 0.344440 0.739215 0.055379
C46   C     C_R   0.379362 0.367607 0.798205 -0.210697
C47   C     C_R   0.384462 0.330529 0.852008 0.211444
C48   C     C_R   0.784925 0.309365 0.629408 -0.224512
C49   C     C_R   0.643661 0.367667 0.632416 -0.087543
C50   C     C_R   0.503524 0.384543 0.687281 -0.194416
H16   H     H_    0.878378 0.090154 0.822828 0.139137
H17   H     H_    0.028915 0.120517 0.722032 0.121266
H18   H     H_    0.034707 0.195114 0.635097 0.123131
H19   H     H_    0.894818 0.296604 0.587563 0.124671
H20   H     H_    0.398190 0.431307 0.691303 0.121624
H21   H     H_    0.286511 0.419142 0.805359 0.148609
H22   H     H_    0.364238 0.147264 0.428855 0.112037
C51   C     C_R   0.793827 0.399073 0.249545 -0.152061
C52   C     C_R   0.860560 0.408660 0.185197 -0.119535
C53   C     C_R   0.848362 0.345181 0.120599 -0.065206
C54   C     C_R   0.769477 0.271612 0.119864 -0.108111
C55   C     C_R   0.702230 0.259739 0.184486 0.060912
C56   C     C_R   0.714521 0.324815 0.250699 0.069443
C57   C     C_R   0.620177 0.185104 0.183667 -0.177208
C58   C     C_R   0.550005 0.175556 0.248989 0.068712
C59   C     C_R   0.562148 0.240634 0.315186 0.069835
C60   C     C_R   0.644457 0.315261 0.316067 -0.181460
C61   C     C_R   0.470685 0.101269 0.250098 -0.145477
C62   C     C_R   0.403541 0.091679 0.314377 -0.123854
C63   C     C_R   0.415413 0.155178 0.378954 -0.120682
C64   C     C_R   0.494501 0.228746 0.379745 -0.133347
H23   H     H_    0.804038 0.450743 0.298066 0.111595
H24   H     H_    0.920931 0.465870 0.185428 0.132904
H25   H     H_    0.899192 0.353097 0.070658 0.168043
H26   H     H_    0.760564 0.224603 0.067988 0.120477
H27   H     H_    0.343120 0.034454 0.314107 0.117266
H28   H     H_    0.503253 0.275739 0.431628 0.102296
O11   O     O_R   0.775200 0.060470 0.937800 -0.534293
O12   O     O_R   0.441110 0.093720 0.087350 -0.531412
O13   O     O_R   0.266330 0.939630 0.062280 -0.546266
C65   C     C_R   0.609952 0.116736 0.114921 0.694792
O14   O     O_R   0.445750 0.069950 0.939820 -0.525583
O15   O     O_R   0.271000 0.915700 0.913700 -0.536367
C66   C     C_R   0.614177 0.089592 0.921949 0.737255
O16   O     O_R   0.770530 0.084400 0.086380 -0.539016
O17   O     O_3   0.602830 0.949510 0.991680 -0.374989
V3    V     V_3+5 0.329710 0.009370 0.001550 1.467534
O18   O     O_R   0.940990 0.906170 0.912570 -0.540168
C67   C     C_R   0.109852 0.883269 0.885065 0.694788
O19   O     O_R   0.936350 0.929940 0.060100 -0.546265
C68   C     C_R   0.104732 0.914846 0.081752 0.694590
V4    V     V_3+5 0.829160 0.990450 0.998310 1.437694
O20   O     O_3   0.105910 0.050480 0.008320 -0.347960
I1    I     I_    0.215506 0.208089 0.943173 -0.376359
H29   H     H_    0.060271 0.539500 0.701546 0.106217
I2    I     I_    0.269641 0.406434 0.952375 -0.403205
H30   H     H_    0.460732 0.049559 0.201605 0.106833

loop_
_geom_bond_atom_site_label_1
_geom_bond_atom_site_label_2
_ccdc_geom_bond_type
C61   H30   S    
C53   C54   A    
C59   C60   A    
C46   C47   A    
C61   C62   A    
C1    O6    A    
C63   C64   A    
C34   H13   S    
C51   C52   A    
C33   C34   A    
C12   C15   A    
C16   H6    S    
C26   H11   S    
C13   C14   A    
C45   C50   A    
C30   H14   S    
C35   C40   A    
O12   V3    S    
H22   C63   S    
C15   C16   A    
O19   V4    S    
O5    C3    A    
C17   C18   A    
O18   C67   A    
C5    C6    A    
C22   C23   A    
C53   H25   S    
O8    V2    S    
C39   C44   A    
C15   H5    S    
C41   C42   A    
C43   C44   A    
O1    V2    S    
C10   C14   A    
C4    C14   S    
C55   C57   A    
C52   H24   S    
O7    V1    S    
O15   V3    S    
O13   C68   A    
C38   C41   A    
C41   H17   S    
C47   I2    S    
O11   C66   A    
C13   C18   A    
O17   V4    S    
C8    C9    A    
H1    C17   S    
C6    H2    S    
C56   C60   A    
C29   C34   A    
C32   C33   A    
C11   C12   A    
C20   C21   A    
C32   H12   S    
C52   C53   A    
C48   H19   S    
C8    H4    S    
C12   C13   A    
C26   C27   A    
C27   C32   A    
C58   C61   A    
C65   O16   A    
O2    C1    A    
C48   C49   A    
O13   V3    S    
C16   C17   A    
C51   H23   S    
C25   H10   S    
C28   C29   A    
C19   H8    S    
V4    O20   S    
C21   H9    S    
C62   C63   A    
C7    C8    A    
C35   C36   A    
C40   C47   A    
C49   C50   A    
O3    C4    A    
O14   V3    S    
C5    H29   S    
C7    H3    S    
C21   C22   A    
C11   C67   S    
O6    V2    S    
O18   V4    S    
O9    V2    S    
C22   C25   A    
C9    C11   A    
C23   C24   A    
O2    V1    S    
O15   C67   A    
C57   C58   A    
C25   C26   A    
O4    C2    A    
O17   V3    S    
C2    C60   S    
C27   C28   A    
C29   C30   A    
O1    C2    A    
C37   H16   S    
C57   C65   S    
C45   C46   A    
O5    V1    S    
O16   V4    S    
C54   H26   S    
C51   C56   A    
C24   C31   A    
C37   C38   A    
C6    C7    A    
O14   C66   A    
O7    V2    S    
C19   C24   A    
O3    V1    S    
V1    O10   S    
O19   C68   A    
C19   C20   A    
O12   C65   A    
C50   H20   S    
C3    C20   S    
C5    C10   A    
C64   H28   S    
C58   C59   A    
C39   C40   A    
C23   C28   A    
C38   C39   A    
C36   C66   S    
C42   C43   A    
C1    C49   S    
C36   C37   A    
C18   H7    S    
O4    V1    S    
C44   C45   A    
C54   C55   A    
C30   C31   A    
C62   H27   S    
C43   C48   A    
C31   H15   S    
C9    C10   A    
O11   V4    S    
C42   H18   S    
C55   C56   A    
O9    C4    A    
C59   C64   A    
C46   H21   S    
C35   I1    S    
V3    O20   S    
V2    O10   S    
O8    C3    A    
C33   C68   S    
