data_mof_unit_14446.cif
_audit_creation_date              2012-12-10T19:04:12-0500
_audit_creation_method            fapswitch 2.2
_symmetry_space_group_name_H-M    P1
_symmetry_Int_Tables_number       1
_space_group_crystal_system       triclinic
_cell_length_a                    10.630256
_cell_length_b                    10.812973
_cell_length_c                    9.588084
_cell_angle_alpha                 89.588123
_cell_angle_beta                  88.857278
_cell_angle_gamma                 91.210606
_cell_volume                      1101.60209985

loop_
_atom_site_label
_atom_site_type_symbol
_atom_type_description
_atom_site_fract_x
_atom_site_fract_y
_atom_site_fract_z
_atom_type_partial_charge
C1    C     C_R   0.497471 0.262472 0.500352 0.833086
C2    C     C_3   0.957445 0.610337 0.544730 -0.160668
C3    C     C_3   0.045329 0.592534 0.415853 -0.211396
C4    C     C_3   0.122643 0.502721 0.502775 0.008976
C5    C     C_R   0.493668 0.062652 0.625575 0.011406
C6    C     C_R   0.485417 0.129127 0.501023 -0.080006
C7    C     C_R   0.460686 0.064610 0.377279 -0.192217
C8    C     C_R   0.461389 0.935622 0.376843 -0.221948
C9    C     C_R   0.486583 0.870456 0.500184 -0.071432
C10   C     C_R   0.494146 0.935332 0.625195 0.058436
C11   C     C_3   0.588992 0.928444 0.738020 -0.521148
C12   C     C_R   0.259486 0.501066 0.501106 0.821877
C13   C     C_3   0.589048 0.069397 0.738780 0.250240
C14   C     C_R   0.566633 0.588304 0.071070 0.239177
C15   C     C_R   0.426453 0.419933 0.079107 -0.067842
C16   C     C_R   0.422325 0.420711 0.931064 0.218330
C17   C     C_R   0.567316 0.587804 0.924094 0.226961
C18   C     C_3   0.706022 0.611106 0.915592 -0.492791
C19   C     C_3   0.705216 0.612206 0.073870 -0.494175
C20   C     C_R   0.498263 0.737509 0.499718 0.789952
C21   C     C_R   0.740480 0.499562 0.498838 0.814718
C22   C     C_3   0.040622 0.394635 0.455937 0.430036
C23   C     C_3   0.962485 0.481814 0.367339 -0.201180
C24   C     C_3   0.877219 0.499415 0.496944 -0.040999
C25   C     C_3   0.953987 0.409314 0.584267 -0.222683
C26   C     C_3   0.036733 0.520497 0.631533 -0.197316
Cu1   Cu    Cu3+1 0.499990 0.499980 0.640670 0.949645
Cu2   Cu    Cu3+1 0.500010 0.500020 0.359330 0.944244
H1    H     H_    0.931305 0.463308 0.259621 0.138133
H2    H     H_    0.679073 0.887892 0.701621 0.192715
H3    H     H_    0.551282 0.109192 0.837192 0.128679
H4    H     H_    0.370126 0.353730 0.139729 0.163695
H5    H     H_    0.758286 0.532028 0.871337 0.227369
H6    H     H_    0.730707 0.702645 0.868016 0.190778
H7    H     H_    0.756889 0.533840 0.119247 0.214609
H8    H     H_    0.729046 0.704453 0.117728 0.194590
H9    H     H_    0.914670 0.333136 0.651244 0.171827
H10   H     H_    0.067997 0.539894 0.738737 0.153857
H11   H     H_    0.919512 0.699580 0.581374 0.132588
H12   H     H_    0.085387 0.667852 0.348166 0.146637
H13   H     H_    0.446499 0.113290 0.279903 0.160262
H14   H     H_    0.447694 0.887748 0.279290 0.160908
H15   H     H_    0.548141 0.886433 0.835377 0.173328
N1    N     N_R   0.500800 0.500930 0.147930 -0.208494
N2    N     N_R   0.500800 0.500890 0.852020 -0.204816
O1    O     O_R   0.500000 0.319640 0.618810 -0.588520
O2    O     O_R   0.500010 0.319680 0.381230 -0.590649
O3    O     O_R   0.316850 0.499950 0.618770 -0.603760
O4    O     O_R   0.316860 0.499990 0.381190 -0.572064
O5    O     O_R   0.499990 0.680320 0.618770 -0.575870
O6    O     O_R   0.500000 0.680360 0.381190 -0.589022
O7    O     O_R   0.683140 0.500010 0.618810 -0.573283
O8    O     O_R   0.683150 0.500050 0.381230 -0.588494
O9    O     O_3   0.704857 0.124499 0.695658 -0.719004
H16   H     H_    0.731688 0.087441 0.605614 0.325140
C27   C     C_3   0.329413 0.328453 0.870008 -0.365066
C28   C     C_3   0.194450 0.351246 0.920965 -0.873073
H17   H     H_    0.174483 0.451484 0.917956 0.252529
H18   H     H_    0.126751 0.301398 0.853471 0.253485
H19   H     H_    0.179412 0.316776 0.029483 0.254376
H20   H     H_    0.327616 0.328792 0.756757 0.267488
H21   H     H_    0.355746 0.233464 0.901423 0.162493
O10   O     O_3   0.088765 0.282353 0.410064 -0.750834
H22   H     H_    0.014167 0.230489 0.386965 0.316179

loop_
_geom_bond_atom_site_label_1
_geom_bond_atom_site_label_2
_ccdc_geom_bond_type
Cu1   O3    S    
C16   N2    A    
O9    H16   S    
C4    C26   S    
C23   C24   S    
C16   C27   S    
Cu2   O2    S    
C11   H15   S    
C6    C7    A    
C8    C9    A    
C4    C12   S    
C4    C22   S    
Cu2   O4    S    
C13   O9    S    
C9    C20   S    
C5    C13   S    
Cu1   O5    S    
C12   O3    A    
Cu1   N2    S    
C7    H13   S    
C12   O4    A    
C22   O10   S    
C5    C10   A    
C2    C26   S    
C17   C18   S    
C19   H7    S    
C24   C25   S    
Cu2   O8    S    
C21   O8    A    
C11   C13   S    
C14   C17   A    
C28   H17   S    
C5    C6    A    
C23   H1    S    
Cu1   O1    S    
C14   C19   S    
Cu2   O6    S    
C17   N2    A    
C3    H12   S    
C2    C3    S    
C20   O6    A    
C19   H8    S    
C18   H6    S    
C2    C24   S    
C15   N1    A    
C18   H5    S    
C27   H21   S    
C1    O1    A    
C28   H18   S    
C10   C11   S    
C15   C16   A    
C7    C8    A    
Cu1   O7    S    
Cu2   N1    S    
C14   N1    A    
C18   C19   S    
C9    C10   A    
C21   C24   S    
Cu1   Cu2   S    
C27   C28   S    
C27   H20   S    
C26   H10   S    
C28   H19   S    
C20   O5    A    
C1    C6    S    
C25   H9    S    
C25   C26   S    
C22   C23   S    
C3    C23   S    
C2    H11   S    
C13   H3    S    
C21   O7    A    
C1    O2    A    
C3    C4    S    
C11   H2    S    
C8    H14   S    
O10   H22   S    
C22   C25   S    
C15   H4    S    
