data_mof_unit_13204.cif
_audit_creation_date              2012-12-11T17:09:39-0500
_audit_creation_method            fapswitch 2.2
_symmetry_space_group_name_H-M    P1
_symmetry_Int_Tables_number       1
_space_group_crystal_system       triclinic
_cell_length_a                    14.79938
_cell_length_b                    6.925846
_cell_length_c                    13.507602
_cell_angle_alpha                 89.999703
_cell_angle_beta                  99.775117
_cell_angle_gamma                 90.002294
_cell_volume                      1364.40462512

loop_
_atom_site_label
_atom_site_type_symbol
_atom_type_description
_atom_site_fract_x
_atom_site_fract_y
_atom_site_fract_z
_atom_type_partial_charge
O1    O     O_R   0.586930 0.505770 0.416350 -0.550346
O2    O     O_R   0.413070 0.005770 0.583650 -0.535860
O3    O     O_R   0.397900 0.173100 0.389630 -0.536399
O4    O     O_R   0.602100 0.673100 0.610370 -0.536952
C1    C     C_R   0.364274 0.345432 0.362813 0.723495
C2    C     C_R   0.635735 0.845432 0.637176 0.735082
O5    O     O_R   0.585280 0.175870 0.404330 -0.539399
O6    O     O_R   0.414720 0.675870 0.595670 -0.544664
O7    O     O_R   0.601790 0.008380 0.598460 -0.531625
O8    O     O_R   0.398210 0.508380 0.401540 -0.539886
C3    C     C_R   0.614551 0.344637 0.382825 0.721636
C4    C     C_R   0.385406 0.844638 0.617129 0.744093
O9    O     O_3   0.505200 0.340120 0.563670 -0.361776
O10   O     O_3   0.494800 0.840120 0.436330 -0.377483
V1    V     V_3+5 0.499040 0.064180 0.488190 1.446304
V2    V     V_3+5 0.500960 0.564180 0.511810 1.424967
C5    C     C_R   0.326078 0.979108 0.766651 0.092549
C6    C     C_R   0.673541 0.477696 0.232772 0.023028
C7    C     C_R   0.317477 0.851267 0.685617 -0.220992
C8    C     C_R   0.682484 0.351162 0.314350 -0.195442
C9    C     C_R   0.242641 0.722660 0.673185 -0.179573
C10   C     C_R   0.757552 0.223128 0.327116 -0.152777
H1    H     H_    0.234868 0.618343 0.612529 0.136398
H2    H     H_    0.765483 0.119319 0.388011 0.129569
C11   C     C_R   0.172443 0.738575 0.731948 0.408099
C12   C     C_R   0.827684 0.238821 0.268225 0.406171
C13   C     C_R   0.180304 0.877069 0.811331 -0.191924
C14   C     C_R   0.819694 0.376986 0.188652 -0.188446
C15   C     C_R   0.260302 0.989269 0.828833 -0.071515
C16   C     C_R   0.739387 0.488127 0.170773 -0.069942
C17   C     C_3   0.273750 0.203019 0.842122 0.157375
C18   C     C_3   0.724839 0.701365 0.156158 0.219878
C19   C     C_3   0.345422 0.190617 0.772962 0.129114
C20   C     C_3   0.652878 0.688813 0.224900 0.132251
H3    H     H_    0.301518 0.244376 0.920957 0.143242
H4    H     H_    0.697210 0.740645 0.076988 0.147385
H5    H     H_    0.328181 0.267045 0.699565 0.097545
H6    H     H_    0.669757 0.769485 0.297083 0.098532
C21   C     C_1   0.783464 0.877094 0.782873 -0.175986
C22   C     C_1   0.216545 0.377104 0.217117 -0.178785
C23   C     C_1   0.716189 0.860134 0.716824 -0.167687
C24   C     C_1   0.283823 0.360138 0.283163 -0.174317
O11   O     O_R   0.101720 0.231700 0.098560 -0.541852
O12   O     O_R   0.898280 0.731700 0.901440 -0.542156
O13   O     O_R   0.914700 0.558980 0.095690 -0.521451
O14   O     O_R   0.085300 0.058980 0.904310 -0.519608
C25   C     C_R   0.886864 0.389646 0.118950 0.701263
C26   C     C_R   0.113134 0.889658 0.881045 0.704329
O15   O     O_R   0.102080 0.561590 0.110390 -0.538976
O16   O     O_R   0.897920 0.061590 0.889610 -0.538249
O17   O     O_R   0.086950 0.728940 0.916330 -0.532134
O18   O     O_R   0.913050 0.228940 0.083670 -0.530762
C27   C     C_R   0.136097 0.391902 0.137472 0.721196
C28   C     C_R   0.863907 0.891898 0.862524 0.721840
O19   O     O_3   0.994770 0.394510 0.936380 -0.359990
O20   O     O_3   0.005230 0.894510 0.063620 -0.360620
V3    V     V_3+5 0.000970 0.670520 0.011800 1.508793
V4    V     V_3+5 0.999030 0.170520 0.988200 1.512389
O21   O     O_3   0.095538 0.625141 0.704402 -0.631426
H7    H     H_    0.043978 0.678850 0.733574 0.280959
O22   O     O_3   0.904564 0.125308 0.295727 -0.633459
H8    H     H_    0.956071 0.178758 0.266367 0.280812
O23   O     O_3   0.195806 0.310880 0.801278 -0.614554
H9    H     H_    0.173064 0.263881 0.732014 0.307671
O24   O     O_3   0.802093 0.811635 0.196716 -0.617791
H10   H     H_    0.825070 0.765811 0.266147 0.304191
O25   O     O_3   0.434307 0.226697 0.823980 -0.628334
H11   H     H_    0.440818 0.369285 0.826059 0.301061
O26   O     O_3   0.564343 0.723577 0.172429 -0.631101
H12   H     H_    0.522700 0.708176 0.222237 0.303019

loop_
_geom_bond_atom_site_label_1
_geom_bond_atom_site_label_2
_ccdc_geom_bond_type
C13   C26   S    
C1    C24   S    
C14   C25   S    
C13   C15   A    
C5    C15   A    
O1    C3    A    
O2    C4    A    
C2    O7    A    
C21   C23   T    
O5    C3    A    
O13   V3    S    
O16   C28   A    
C18   H4    S    
C7    C9    A    
C12   O22   S    
C21   C28   S    
O15   V3    S    
O20   V3    S    
C17   H3    S    
O11   V4    S    
O11   C27   A    
C26   O17   A    
C2    C23   S    
C17   C19   S    
C6    C16   A    
C6    C8    A    
C22   C24   T    
O21   H7    S    
O6    V2    S    
O14   V4    S    
O22   H8    S    
C5    C19   S    
O13   C25   A    
C9    H1    S    
O14   C26   A    
C3    C8    S    
O25   H11   S    
O16   V4    S    
C17   O23   S    
O4    C2    A    
O5    V1    S    
C19   H5    S    
C18   C20   S    
O4    V2    S    
O12   V3    S    
O6    C4    A    
O1    V2    S    
O2    V1    S    
C6    C20   S    
C20   O26   S    
O18   V4    S    
O17   V3    S    
C8    C10   A    
O24   H10   S    
O19   V3    S    
O10   V2    S    
O19   V4    S    
O3    V1    S    
C19   O25   S    
C9    C11   A    
C20   H6    S    
O3    C1    A    
C25   O18   A    
C11   C13   A    
C12   C14   A    
O9    V1    S    
O7    V1    S    
C1    O8    A    
C15   C17   S    
O8    V2    S    
C16   C18   S    
O15   C27   A    
C4    C7    S    
C14   C16   A    
C5    C7    A    
O20   V4    S    
C10   H2    S    
O26   H12   S    
O23   H9    S    
O12   C28   A    
C22   C27   S    
C10   C12   A    
O9    V2    S    
O10   V1    S    
C11   O21   S    
C18   O24   S    
