data_mof_unit_46355.cif
_audit_creation_date              2012-12-10T18:57:39-0500
_audit_creation_method            fapswitch 2.2
_symmetry_space_group_name_H-M    P1
_symmetry_Int_Tables_number       1
_space_group_crystal_system       triclinic
_cell_length_a                    10.898103
_cell_length_b                    10.841247
_cell_length_c                    9.542252
_cell_angle_alpha                 89.736904
_cell_angle_beta                  90.709949
_cell_angle_gamma                 90.343559
_cell_volume                      1127.28946471

loop_
_atom_site_label
_atom_site_type_symbol
_atom_type_description
_atom_site_fract_x
_atom_site_fract_y
_atom_site_fract_z
_atom_type_partial_charge
C1    C     C_R   0.497808 0.262922 0.500263 0.805027
C2    C     C_R   0.488166 0.130907 0.500166 -0.155555
C3    C     C_R   0.434369 0.068412 0.385834 -0.238481
C4    C     C_R   0.427834 0.938250 0.383879 0.138839
C5    C     C_R   0.481319 0.870117 0.497806 -0.145160
C6    C     C_R   0.526124 0.937028 0.611254 0.056461
C7    C     C_3   0.595089 0.924682 0.746637 -0.479478
C8    C     C_3   0.597631 0.067170 0.749073 -0.107359
C9    C     C_R   0.563521 0.588313 0.073960 0.263232
C10   C     C_R   0.429668 0.418954 0.073851 -0.088490
C11   C     C_R   0.429528 0.419036 0.924968 -0.081940
C12   C     C_R   0.265119 0.496177 0.498749 0.825741
C13   C     C_R   0.563355 0.588486 0.926515 0.261316
C14   C     C_3   0.698244 0.611553 0.922253 -0.511299
C15   C     C_3   0.698474 0.611250 0.080969 -0.507139
C16   C     C_R   0.493166 0.737209 0.499259 0.805755
C17   C     C_R   0.734778 0.495847 0.501231 0.872857
C18   C     C_2   0.930575 0.457099 0.391481 -0.142694
C19   C     C_2   0.866478 0.479991 0.506960 -0.393498
C20   C     C_2   0.064255 0.437122 0.395812 0.186522
C21   C     C_2   0.132156 0.496324 0.494984 -0.382758
C22   C     C_R   0.529335 0.061151 0.612482 0.110026
Cu1   Cu    Cu3+1 0.499990 0.499980 0.640670 0.929990
Cu2   Cu    Cu3+1 0.500010 0.500020 0.359330 0.926735
H1    H     H_    0.883530 0.450241 0.291263 0.168826
H2    H     H_    0.375101 0.351358 0.129229 0.129091
H3    H     H_    0.374409 0.351849 0.868701 0.138898
H4    H     H_    0.749897 0.533003 0.877937 0.215180
H5    H     H_    0.721117 0.703082 0.876830 0.189514
H6    H     H_    0.749870 0.532160 0.125852 0.211683
H7    H     H_    0.721573 0.702530 0.127156 0.191330
H8    H     H_    0.909298 0.478887 0.610198 0.145700
H9    H     H_    0.089993 0.552686 0.574388 0.134106
H10   H     H_    0.395856 0.120625 0.298799 0.156672
H11   H     H_    0.537732 0.883077 0.830133 0.187593
H12   H     H_    0.685785 0.880573 0.733171 0.187270
H13   H     H_    0.540140 0.105686 0.833732 0.144794
N1    N     N_R   0.500780 0.500930 0.147930 -0.182366
N2    N     N_R   0.500780 0.500890 0.852020 -0.187608
O1    O     O_R   0.500000 0.319640 0.618810 -0.589440
O2    O     O_R   0.500010 0.319680 0.381230 -0.590351
O3    O     O_R   0.321940 0.499980 0.618760 -0.577582
O4    O     O_R   0.321950 0.500020 0.381180 -0.592312
O5    O     O_R   0.499990 0.680320 0.618770 -0.574986
O6    O     O_R   0.500000 0.680360 0.381190 -0.577108
O7    O     O_R   0.678050 0.499980 0.618820 -0.588893
O8    O     O_R   0.678060 0.500020 0.381240 -0.578210
C23   C     C_3   0.726888 0.126559 0.744588 -0.355939
C24   C     C_3   0.800360 0.101516 0.610820 -0.320755
C25   C     C_3   0.932111 0.148561 0.626329 -0.861540
H14   H     H_    0.933233 0.249031 0.648075 0.260668
H15   H     H_    0.979912 0.099354 0.713351 0.248683
H16   H     H_    0.982622 0.131731 0.528045 0.245770
H17   H     H_    0.803011 0.001281 0.588152 0.217390
H18   H     H_    0.756476 0.149155 0.520018 0.215568
H19   H     H_    0.716585 0.227991 0.755913 0.204915
H20   H     H_    0.779454 0.093148 0.837725 0.197737
C26   C     C_3   0.123263 0.356101 0.285036 -0.344267
C27   C     C_3   0.035109 0.267115 0.210033 -0.903891
H21   H     H_    0.088677 0.200939 0.147110 0.239333
H22   H     H_    0.980022 0.214095 0.286949 0.262980
H23   H     H_    0.973159 0.317886 0.137094 0.246213
H24   H     H_    0.166916 0.416025 0.204943 0.210864
H25   H     H_    0.195416 0.298575 0.336015 0.194918
C28   C     C_3   0.359048 0.879319 0.262393 -0.368744
C29   C     C_3   0.437159 0.879046 0.130704 -0.819894
H26   H     H_    0.527136 0.835192 0.152594 0.259020
H27   H     H_    0.388918 0.826827 0.046483 0.228532
H28   H     H_    0.453319 0.974912 0.093310 0.234486
H29   H     H_    0.327309 0.784524 0.287301 0.215263
H30   H     H_    0.273792 0.932210 0.240290 0.182238

loop_
_geom_bond_atom_site_label_1
_geom_bond_atom_site_label_2
_ccdc_geom_bond_type
C16   O6    A    
C2    C22   A    
C25   H15   S    
Cu1   Cu2   S    
C8    C23   S    
C15   H7    S    
C6    C7    S    
Cu2   N1    S    
C28   H29   S    
C7    H12   S    
C16   O5    A    
C8    C22   S    
C2    C3    A    
C1    O1    A    
C11   H3    S    
C10   N1    A    
C10   H2    S    
C25   H14   S    
C3    C4    A    
C27   H21   S    
Cu1   O7    S    
C28   H30   S    
C13   C14   S    
C17   O7    A    
C11   N2    A    
Cu2   O2    S    
Cu1   O3    S    
C5    C6    A    
C18   H1    S    
Cu1   N2    S    
C19   H8    S    
C1    O2    A    
C9    N1    A    
C17   C19   S    
C18   C19   D    
C12   O4    A    
C18   C20   S    
C28   C29   S    
C26   H25   S    
C4    C28   S    
Cu2   O4    S    
C24   C25   S    
C13   N2    A    
C29   H28   S    
C27   H22   S    
C29   H27   S    
Cu2   O6    S    
C14   H5    S    
C20   C26   S    
C24   H17   S    
C25   H16   S    
C26   H24   S    
C17   O8    A    
C8    H13   S    
C23   H20   S    
C21   H9    S    
C20   C21   D    
C15   H6    S    
C1    C2    S    
C10   C11   A    
C29   H26   S    
C23   H19   S    
C7    C8    S    
C9    C13   A    
C14   C15   S    
C23   C24   S    
C5    C16   S    
C12   O3    A    
C3    H10   S    
C14   H4    S    
C26   C27   S    
C24   H18   S    
Cu2   O8    S    
C7    H11   S    
C12   C21   S    
Cu1   O5    S    
Cu1   O1    S    
C9    C15   S    
C4    C5    A    
C27   H23   S    
C6    C22   A    
