data_mof_unit_25093.cif
_audit_creation_date              2012-12-10T18:45:05-0500
_audit_creation_method            fapswitch 2.2
_symmetry_space_group_name_H-M    P1
_symmetry_Int_Tables_number       1
_space_group_crystal_system       triclinic
_cell_length_a                    10.742296
_cell_length_b                    9.877007
_cell_length_c                    10.834211
_cell_angle_alpha                 90.387126
_cell_angle_beta                  91.168907
_cell_angle_gamma                 89.57016
_cell_volume                      1149.23193333

loop_
_atom_site_label
_atom_site_type_symbol
_atom_type_description
_atom_site_fract_x
_atom_site_fract_y
_atom_site_fract_z
_atom_type_partial_charge
C1    C     C_R   0.260345 0.499783 0.507942 0.883564
C2    C     C_R   0.739792 0.498528 0.492237 0.889047
C3    C     C_R   0.935814 0.615737 0.473096 -0.207561
C4    C     C_R   0.063118 0.616550 0.481205 -0.191312
C5    C     C_R   0.575291 0.071021 0.582316 0.269583
C6    C     C_R   0.419824 0.070195 0.422803 0.243391
C7    C     C_R   0.576780 0.926708 0.577990 -0.117517
C8    C     C_R   0.421571 0.926701 0.424063 -0.064242
C9    C     C_R   0.495943 0.499533 0.260050 0.869652
C10   C     C_R   0.496955 0.501327 0.740259 0.927570
C11   C     C_R   0.389462 0.731787 0.121104 -0.140438
C12   C     C_R   0.498441 0.759818 0.893472 -0.155936
C13   C     C_R   0.393027 0.858807 0.066131 -0.118816
C14   C     C_R   0.454383 0.873455 0.955526 -0.091543
C15   C     C_R   0.480637 0.628346 0.941319 0.074532
C16   C     C_R   0.447922 0.619034 0.064891 0.114670
C17   C     C_R   0.482799 0.498710 0.127552 -0.216982
C18   C     C_R   0.486948 0.504662 0.873146 -0.177792
C19   C     C_R   0.509987 0.380115 0.059227 -0.154194
C20   C     C_R   0.474534 0.381063 0.936090 -0.005849
C21   C     C_R   0.062983 0.377205 0.539185 -0.091458
C22   C     C_R   0.938544 0.370413 0.503458 -0.005763
C23   C     C_R   0.872888 0.493608 0.484689 -0.056130
C24   C     C_R   0.127420 0.497991 0.513433 -0.079183
H1    H     H_    0.340140 0.721783 0.206280 0.139942
H2    H     H_    0.549679 0.779564 0.811799 0.160406
H3    H     H_    0.352811 0.946279 0.111185 0.156358
H4    H     H_    0.466057 0.971856 0.915365 0.164612
H5    H     H_    0.887002 0.710256 0.455302 0.174689
H6    H     H_    0.110771 0.710599 0.463609 0.165901
H7    H     H_    0.638405 0.868383 0.637107 0.143997
H8    H     H_    0.359739 0.869822 0.364467 0.135189
N1    N     N_R   0.500000 0.857200 0.500000 -0.121894
N2    N     N_R   0.500000 0.142810 0.500000 -0.146707
O1    O     O_R   0.316770 0.614620 0.499990 -0.627619
O2    O     O_R   0.683230 0.614620 0.500010 -0.626418
O3    O     O_R   0.316800 0.385290 0.500000 -0.658843
O4    O     O_R   0.683200 0.385290 0.500000 -0.619872
O5    O     O_R   0.500010 0.614690 0.316770 -0.610511
O6    O     O_R   0.499990 0.614690 0.683230 -0.643308
O7    O     O_R   0.500040 0.385360 0.316770 -0.659794
O8    O     O_R   0.499960 0.385360 0.683230 -0.590403
Zn1   Zn    Zn3+2 0.500000 0.653120 0.500000 0.949114
Zn2   Zn    Zn3+2 0.500000 0.346880 0.500000 0.971274
C25   C     C_2   0.586468 0.264148 0.107610 0.424404
H9    H     H_    0.640787 0.273350 0.192414 0.161511
O9    O     O_2   0.597173 0.159048 0.048752 -0.611243
C26   C     C_2   0.394031 0.268405 0.891056 0.502993
H10   H     H_    0.388920 0.176155 0.943518 0.080829
O10   O     O_2   0.321917 0.282456 0.803716 -0.570411
C27   C     C_2   0.118797 0.262178 0.610258 0.409748
H11   H     H_    0.207586 0.217148 0.588517 0.149720
O11   O     O_2   0.062978 0.215030 0.696956 -0.566081
C28   C     C_2   0.885574 0.234649 0.473114 0.398558
H12   H     H_    0.906182 0.147697 0.530633 0.096172
O12   O     O_2   0.824406 0.217186 0.378165 -0.570444
N3    N     N_2   0.645416 0.141203 0.676370 -0.301298
H13   H     H_    0.675747 0.235727 0.655647 0.278305
C29   C     C_3   0.729479 0.068750 0.759190 -0.762870
H14   H     H_    0.773673 0.141206 0.825252 0.282886
H15   H     H_    0.804027 0.017612 0.706274 0.235815
H16   H     H_    0.677622 0.994207 0.813945 0.247944
N4    N     N_2   0.334945 0.136712 0.339513 -0.312781
H17   H     H_    0.339282 0.239402 0.334350 0.290472
C30   C     C_3   0.208817 0.085562 0.329273 -0.856808
H18   H     H_    0.147079 0.162221 0.284271 0.262343
H19   H     H_    0.171843 0.062853 0.421710 0.232930
H20   H     H_    0.205936 0.992784 0.271210 0.243904

loop_
_geom_bond_atom_site_label_1
_geom_bond_atom_site_label_2
_ccdc_geom_bond_type
C6    N4    S    
C15   C18   A    
O5    Zn1   S    
C19   C25   S    
O4    Zn2   S    
C27   H11   S    
C1    O3    A    
C10   O8    A    
O1    Zn1   S    
C11   C16   A    
C2    O4    A    
C9    O7    A    
C19   C20   A    
C30   H19   S    
C12   C15   A    
C5    N3    S    
C30   H20   S    
N4    C30   S    
O6    Zn1   S    
O3    Zn2   S    
C26   O10   D    
C3    C4    A    
N2    Zn2   S    
C29   H14   S    
C22   C28   S    
C21   C22   A    
C5    N2    A    
C11   C13   A    
C3    H5    S    
N3    H13   S    
C20   C26   S    
O8    Zn2   S    
C10   C18   S    
C9    C17   S    
C26   H10   S    
C17   C19   A    
C12   C14   A    
C18   C20   A    
C8    N1    A    
C25   O9    D    
C4    C24   A    
O7    Zn2   S    
C28   O12   D    
C29   H15   S    
N3    C29   S    
C7    N1    A    
N4    H17   S    
N1    Zn1   S    
C6    N2    A    
C21   C27   S    
C7    H7    S    
C1    O1    A    
C1    C24   S    
C10   O6    A    
C30   H18   S    
C21   C24   A    
C2    O2    A    
C2    C23   S    
C5    C7    A    
C11   H1    S    
C28   H12   S    
C13   H3    S    
O2    Zn1   S    
C6    C8    A    
C29   H16   S    
C13   C14   A    
C14   H4    S    
C25   H9    S    
C3    C23   A    
C9    O5    A    
C4    H6    S    
C22   C23   A    
C15   C16   A    
C12   H2    S    
C16   C17   A    
C27   O11   D    
C8    H8    S    
