data_mof_unit_53834.cif
_audit_creation_date              2012-10-26T20:21:06-0400
_audit_creation_method            fapswitch 2.2
_symmetry_space_group_name_H-M    P1
_symmetry_Int_Tables_number       1
_space_group_crystal_system       triclinic
_cell_length_a                    9.523528
_cell_length_b                    10.83134
_cell_length_c                    15.475137
_cell_angle_alpha                 89.803811
_cell_angle_beta                  73.989915
_cell_angle_gamma                 90.009376
_cell_volume                      1534.37470288

loop_
_atom_site_label
_atom_site_type_symbol
_atom_type_description
_atom_site_fract_x
_atom_site_fract_y
_atom_site_fract_z
_atom_type_partial_charge
C1    C     C_R   0.999962 0.262092 0.499992 0.541479
C2    C     C_R   0.129034 0.063940 0.496548 -0.143290
C3    C     C_R   0.000121 0.871787 0.499767 0.019793
C4    C     C_R   0.000016 0.128252 0.499905 0.018319
C5    C     C_R   0.551018 0.417928 0.551748 0.007054
C6    C     C_R   0.449203 0.581293 0.447522 0.007773
C7    C     C_R   0.402137 0.418362 0.552102 0.005522
C8    C     C_R   0.597958 0.581360 0.447628 0.007430
C9    C     C_R   0.917614 0.492911 0.672306 0.541607
C10   C     C_R   0.082271 0.500100 0.327847 0.538449
C11   C     C_R   0.871925 0.482689 0.771331 -0.002103
C12   C     C_R   0.000091 0.737918 0.499887 0.554383
C13   C     C_R   0.129106 0.511097 0.229643 0.005201
C14   C     C_R   0.931798 0.495084 0.913643 -0.148787
C15   C     C_R   0.097283 0.608348 0.095288 -0.155528
C16   C     C_R   0.975494 0.497022 0.820000 -0.153431
C17   C     C_R   0.044399 0.580607 0.186270 -0.155362
C18   C     C_R   0.723887 0.461443 0.818545 0.006494
C19   C     C_R   0.267338 0.466271 0.180689 0.003646
C20   C     C_R   0.677891 0.493725 0.910550 0.053152
C21   C     C_R   0.331991 0.517155 0.094186 0.050961
C22   C     C_R   0.783056 0.496149 0.959566 0.035270
C23   C     C_R   0.589281 0.505418 0.098423 -0.140822
C24   C     C_R   0.240293 0.576485 0.048568 0.033867
C25   C     C_R   0.530923 0.520716 0.955812 0.026087
C26   C     C_R   0.483335 0.509609 0.050380 0.025326
C27   C     C_3   0.327352 0.349164 0.213714 -0.260938
C28   C     C_3   0.354604 0.245618 0.144020 -0.445074
C29   C     C_3   0.628386 0.378888 0.777474 -0.264217
C30   C     C_3   0.554173 0.273457 0.839765 -0.450884
C31   C     C_R   0.435050 0.571335 0.910265 -0.141179
C32   C     C_R   0.737633 0.501942 0.053376 -0.144501
C33   C     C_R   0.293358 0.604105 0.957052 -0.147861
C34   C     C_R   0.871071 0.063839 0.503137 -0.141982
C35   C     C_R   0.129085 0.936213 0.496485 -0.140690
C36   C     C_R   0.871146 0.936114 0.503011 -0.141301
Cu1   Cu    Cu3+1 0.140660 0.500020 0.500000 0.923273
Cu2   Cu    Cu3+1 0.859340 0.499980 0.500000 0.923928
H1    H     H_    0.816570 0.503655 0.092031 0.114746
H2    H     H_    0.229982 0.888213 0.493782 0.125045
H3    H     H_    0.770299 0.888036 0.505622 0.125856
H4    H     H_    0.229896 0.112027 0.493888 0.124879
H5    H     H_    0.588409 0.351399 0.592589 0.095356
H6    H     H_    0.412114 0.646383 0.405421 0.107761
H7    H     H_    0.327330 0.352957 0.593891 0.105019
H8    H     H_    0.672894 0.646481 0.405617 0.101782
H9    H     H_    0.380475 0.158800 0.174791 0.137702
H10   H     H_    0.448313 0.267490 0.085319 0.160725
H11   H     H_    0.255597 0.230024 0.120780 0.154681
H12   H     H_    0.224606 0.649437 0.921272 0.107385
H13   H     H_    0.427044 0.366763 0.235038 0.143960
H14   H     H_    0.247177 0.310821 0.274113 0.159950
H15   H     H_    0.634615 0.224868 0.867831 0.158507
H16   H     H_    0.462656 0.307583 0.895520 0.160719
H17   H     H_    0.508099 0.205986 0.801029 0.129387
H18   H     H_    0.545927 0.433194 0.755402 0.138612
H19   H     H_    0.697092 0.331357 0.717181 0.159960
H20   H     H_    0.937600 0.614373 0.222987 0.120966
H21   H     H_    0.090609 0.506998 0.785803 0.130733
H22   H     H_    0.013813 0.498202 0.949882 0.117266
H23   H     H_    0.028489 0.659139 0.062344 0.108770
H24   H     H_    0.559424 0.517008 0.170437 0.110480
H25   H     H_    0.472751 0.596153 0.839958 0.117822
H26   H     H_    0.770155 0.111846 0.505892 0.124371
N1    N     N_R   0.352080 0.500030 0.499980 -0.223709
N2    N     N_R   0.647920 0.499970 0.500020 -0.220881
O1    O     O_R   0.118740 0.319660 0.500000 -0.513366
O2    O     O_R   0.881260 0.680340 0.500000 -0.506634
O3    O     O_R   0.881170 0.319630 0.500010 -0.512042
O4    O     O_R   0.118830 0.680370 0.499990 -0.505625
O5    O     O_R   0.055570 0.500030 0.629830 -0.500382
O6    O     O_R   0.944430 0.499970 0.370170 -0.500497
O7    O     O_R   0.818000 0.500000 0.629840 -0.505253
O8    O     O_R   0.182000 0.500000 0.370160 -0.505117

loop_
_geom_bond_atom_site_label_1
_geom_bond_atom_site_label_2
_ccdc_geom_bond_type
C2    C35   A    
C25   C31   A    
Cu1   O8    S    
C28   H9    S    
C8    N2    A    
C21   C26   A    
C11   C18   A    
C30   H16   S    
C29   C30   S    
C22   C32   A    
C7    H7    S    
C19   C21   A    
C23   C26   A    
C20   C25   A    
Cu2   O2    S    
C28   H11   S    
C32   H1    S    
C3    C12   S    
C23   H24   S    
Cu2   N2    S    
Cu1   N1    S    
C31   C33   A    
C19   C27   S    
C34   C36   A    
C17   H20   S    
C5    H5    S    
Cu2   O3    S    
C6    H6    S    
Cu1   O4    S    
C36   H3    S    
C9    O7    A    
C27   H13   S    
Cu2   O6    S    
C6    N1    A    
C30   H15   S    
C4    C34   A    
C13   C19   A    
C31   H25   S    
C5    C7    A    
C6    C8    A    
C25   C26   A    
C1    O3    A    
C16   H21   S    
C2    C4    A    
Cu1   Cu2   S    
C7    N1    A    
C12   O2    A    
C11   C16   A    
C3    C35   A    
C34   H26   S    
C15   H23   S    
C18   C29   S    
C9    C11   S    
C15   C24   A    
C20   C22   A    
Cu1   O5    S    
C14   C16   A    
C27   H14   S    
C15   C17   A    
C12   O4    A    
C28   H10   S    
C9    O5    A    
C29   H19   S    
C5    N2    A    
C10   C13   S    
C29   H18   S    
C14   H22   S    
C30   H17   S    
C24   C33   A    
C13   C17   A    
C1    C4    S    
C23   C32   A    
C14   C22   A    
C35   H2    S    
C33   H12   S    
C10   O8    A    
C3    C36   A    
C2    H4    S    
Cu1   O1    S    
C1    O1    A    
C18   C20   A    
C8    H8    S    
C21   C24   A    
C27   C28   S    
Cu2   O7    S    
C10   O6    A    
