data_mof_unit_59990.cif
_audit_creation_date              2013-03-05T16:05:41-0500
_audit_creation_method            fapswitch 2.2
_symmetry_space_group_name_H-M    P1
_symmetry_Int_Tables_number       1
_space_group_crystal_system       triclinic
_cell_length_a                    26.286668
_cell_length_b                    7.309184
_cell_length_c                    23.80405
_cell_angle_alpha                 89.632003
_cell_angle_beta                  101.661748
_cell_angle_gamma                 89.516519
_cell_volume                      4478.84808559

loop_
_atom_site_label
_atom_site_type_symbol
_atom_site_description
_atom_site_fract_x
_atom_site_fract_y
_atom_site_fract_z
_atom_type_partial_charge
O1    O     O_R   0.547620 0.505720 0.453310 -0.590327
O2    O     O_R   0.452380 0.005720 0.546690 -0.589172
O3    O     O_R   0.442260 0.172470 0.436770 -0.577677
O4    O     O_R   0.557740 0.672470 0.563230 -0.587887
C1    C     C_R   0.075909 0.467739 0.078236 1.003538
C2    C     C_R   0.923941 0.969878 0.921664 1.003754
C3    C     C_R   0.424335 0.344714 0.422014 0.921498
C4    C     C_R   0.575793 0.842695 0.578107 0.929431
O5    O     O_R   0.546600 0.175780 0.446490 -0.550201
O6    O     O_R   0.453400 0.675780 0.553510 -0.548693
O7    O     O_R   0.557460 0.008970 0.556480 -0.571572
O8    O     O_R   0.442540 0.508970 0.443520 -0.565409
C5    C     C_R   0.561706 0.344268 0.433832 0.980771
C6    C     C_R   0.438313 0.844447 0.566199 0.990321
O9    O     O_R   0.047630 0.803580 0.953300 -0.564197
O10   O     O_R   0.952370 0.303580 0.046700 -0.562797
O11   O     O_3   0.503440 0.340340 0.536080 -0.290604
O12   O     O_3   0.496560 0.840340 0.463920 -0.285621
V1    V     V_3+5 0.499360 0.064140 0.493310 1.217924
V2    V     V_3+5 0.500640 0.564140 0.506690 1.214973
O13   O     O_R   0.057730 0.636870 0.063240 -0.566568
O14   O     O_R   0.942270 0.136870 0.936760 -0.573418
O15   O     O_3   0.996540 0.468950 0.963950 -0.289355
O16   O     O_3   0.003460 0.968950 0.036050 -0.285947
C7    C     C_R   0.137571 0.800214 0.902495 0.379463
C8    C     C_R   0.862334 0.303169 0.097129 0.380574
C9    C     C_R   0.171281 0.787095 0.863810 -0.263776
C10   C     C_R   0.828666 0.289498 0.135830 -0.265451
H1    H     H_    0.195630 0.666250 0.865593 0.157406
H2    H     H_    0.804392 0.169972 0.133886 0.157080
C11   C     C_R   0.174831 0.928521 0.824512 0.098894
C12   C     C_R   0.825087 0.428728 0.175368 0.099478
C13   C     C_R   0.142367 0.083076 0.823600 -0.112508
C14   C     C_R   0.857474 0.581609 0.176454 -0.113480
H3    H     H_    0.144593 0.197070 0.794990 0.122702
H4    H     H_    0.855223 0.694027 0.205242 0.122848
C15   C     C_R   0.106820 0.094156 0.860085 -0.092215
C16   C     C_R   0.893002 0.593003 0.139946 -0.092407
H5    H     H_    0.081719 0.213602 0.857045 0.167551
H6    H     H_    0.918065 0.710928 0.143138 0.167807
C17   C     C_R   0.103355 0.953179 0.899616 -0.290709
C18   C     C_R   0.896526 0.454098 0.100230 -0.288179
C19   C     C_R   0.202755 0.996959 0.730854 -0.390977
C20   C     C_R   0.797210 0.493064 0.269200 -0.390601
H7    H     H_    0.165431 0.061808 0.715178 0.151663
H8    H     H_    0.834458 0.555519 0.284875 0.151918
C21   C     C_R   0.239656 0.990651 0.695031 0.663456
C22   C     C_R   0.760380 0.486263 0.305105 0.663652
C23   C     C_R   0.286360 0.891165 0.713327 0.044302
C24   C     C_R   0.713787 0.389711 0.286802 0.044774
C25   C     C_R   0.296359 0.807339 0.767623 -0.302688
C26   C     C_R   0.703835 0.309263 0.232431 -0.303300
H9    H     H_    0.332614 0.734188 0.782738 0.151654
H10   H     H_    0.667656 0.238497 0.217297 0.151109
C27   C     C_R   0.260889 0.822534 0.803816 -0.145645
C28   C     C_R   0.739212 0.325087 0.196162 -0.146845
H11   H     H_    0.271386 0.762381 0.846263 0.141349
H12   H     H_    0.728709 0.267772 0.153659 0.140162
C29   C     C_R   0.213278 0.916133 0.785918 0.104279
C30   C     C_R   0.786713 0.415795 0.214047 0.104719
C31   C     C_R   0.344112 0.709858 0.662712 -0.363795
C32   C     C_R   0.656079 0.208945 0.337342 -0.364433
H13   H     H_    0.328058 0.586784 0.677216 0.206855
H14   H     H_    0.672198 0.085688 0.322800 0.206625
C33   C     C_R   0.383231 0.695245 0.630600 0.684438
C34   C     C_R   0.616929 0.194949 0.369426 0.686466
C35   C     C_R   0.401240 0.854332 0.606491 -0.398732
C36   C     C_R   0.598822 0.353876 0.393566 -0.396113
C37   C     C_R   0.383730 0.025921 0.622150 -0.340434
C38   C     C_R   0.616266 0.525237 0.377956 -0.344332
H15   H     H_    0.397919 0.150823 0.606511 0.229416
H16   H     H_    0.602007 0.650212 0.393601 0.229712
C39   C     C_R   0.349095 0.039901 0.659780 0.724800
C40   C     C_R   0.650917 0.539106 0.340354 0.725192
C41   C     C_R   0.326423 0.880766 0.677315 -0.095399
C42   C     C_R   0.673706 0.379599 0.322804 -0.095357
C43   C     C_3   0.767453 0.735011 0.798405 0.772058
C44   C     C_3   0.240975 0.237798 0.197187 0.822942
C45   C     C_3   0.750017 0.084070 0.791821 0.253194
C46   C     C_3   0.243002 0.585499 0.210936 0.237304
C47   C     C_3   0.699744 0.030278 0.748141 0.235549
C48   C     C_3   0.290262 0.564243 0.263374 0.217367
H17   H     H_    0.685554 0.654731 0.755869 0.211591
H18   H     H_    0.326542 0.257846 0.230887 0.208300
H19   H     H_    0.764502 0.215913 0.779073 0.140655
H20   H     H_    0.218862 0.706716 0.214665 0.145283
H21   H     H_    0.676070 0.959395 0.775353 0.188310
H22   H     H_    0.325596 0.554421 0.244595 0.138295
C49   C     C_1   0.622124 0.846220 0.623400 -0.239394
C50   C     C_1   0.378082 0.353678 0.377007 -0.208093
C51   C     C_3   0.792231 0.930494 0.791321 -0.229899
C52   C     C_3   0.207446 0.412469 0.207986 -0.218375
C53   C     C_3   0.721973 0.703292 0.744304 -0.698044
C54   C     C_3   0.290848 0.232980 0.247951 -0.705883
C55   C     C_3   0.710270 0.877656 0.704901 -0.188261
C56   C     C_3   0.289451 0.378698 0.295841 -0.157850
C57   C     C_3   0.761729 0.905431 0.678276 0.417866
C58   C     C_3   0.237590 0.356367 0.321342 0.446381
C59   C     C_3   0.809281 0.936068 0.731602 -0.125561
C60   C     C_3   0.189587 0.378266 0.267291 -0.144579
C61   C     C_1   0.661545 0.853619 0.660381 0.271992
C62   C     C_1   0.338596 0.362142 0.340267 0.295803
C63   C     C_1   0.839358 0.956255 0.837996 0.253704
C64   C     C_1   0.160255 0.439695 0.161448 0.243630
C65   C     C_1   0.878001 0.965626 0.875929 -0.241945
C66   C     C_1   0.121671 0.456551 0.123755 -0.222734
H23   H     H_    0.835604 0.815337 0.733559 0.213411
H24   H     H_    0.170299 0.243605 0.260898 0.213019
H25   H     H_    0.733195 0.588064 0.719670 0.250365
H26   H     H_    0.299565 0.096164 0.266774 0.229077
V3    V     V_3+5 0.000640 0.745210 0.006690 1.249692
V4    V     V_3+5 0.999360 0.245210 0.993310 1.246391
O17   O     O_R   0.057440 0.306950 0.056520 -0.595479
O18   O     O_R   0.942560 0.806950 0.943480 -0.592700
O19   O     O_R   0.953390 0.633680 0.053510 -0.578909
O20   O     O_R   0.046610 0.133680 0.946490 -0.578538
C67   C     C_R   0.936649 0.465092 0.063956 0.955160
C68   C     C_R   0.063324 0.964718 0.935993 0.955446
N1    N     N_R   0.141097 0.662472 0.946459 0.242295
O21   O     O_R   0.147019 0.491241 0.934337 -0.396066
O22   O     O_R   0.148207 0.710554 0.000007 -0.392329
N2    N     N_R   0.858819 0.168211 0.052946 0.241685
O23   O     O_R   0.852917 0.996593 0.064788 -0.396822
O24   O     O_R   0.851798 0.219823 0.999480 -0.394734
O25   O     O_3   0.402962 0.523589 0.622968 -0.579813
C69   C     C_3   0.447537 0.494199 0.666548 -0.157530
H27   H     H_    0.438479 0.506553 0.710059 0.100082
H28   H     H_    0.479079 0.590738 0.662367 0.107427
H29   H     H_    0.462543 0.353671 0.662529 0.156211
O26   O     O_3   0.597235 0.024046 0.376958 -0.578392
C70   C     C_3   0.552629 0.999393 0.333403 -0.163378
H30   H     H_    0.561623 0.013575 0.289879 0.099313
H31   H     H_    0.521070 0.097423 0.337719 0.105776
H32   H     H_    0.537672 0.859474 0.337305 0.154794
O27   O     O_3   0.337704 0.210752 0.678823 -0.600662
C71   C     C_3   0.366523 0.232991 0.735244 -0.319907
H33   H     H_    0.408757 0.206550 0.738041 0.133611
H34   H     H_    0.351907 0.143824 0.766286 0.155190
H35   H     H_    0.361965 0.375895 0.748782 0.170084
O28   O     O_3   0.662205 0.710235 0.321350 -0.599981
C72   C     C_3   0.633425 0.736484 0.264906 -0.321096
H36   H     H_    0.591206 0.712208 0.262036 0.131764
H37   H     H_    0.648164 0.648077 0.233871 0.154803
H38   H     H_    0.637871 0.879796 0.251411 0.170120
N3    N     N_R   0.747218 0.727381 0.852861 0.225825
O29   O     O_R   0.698441 0.697827 0.852805 -0.450447
O30   O     O_R   0.777050 0.767543 0.901794 -0.359723
N4    N     N_R   0.257873 0.246773 0.141017 0.245941
O31   O     O_R   0.301594 0.172243 0.135033 -0.446097
O32   O     O_R   0.226150 0.302888 0.094690 -0.349528
O33   O     O_3   0.740774 0.101882 0.848405 -0.578234
C73   C     C_3   0.706047 0.247529 0.852573 0.039811
H39   H     H_    0.665535 0.196971 0.843989 0.141593
H40   H     H_    0.709100 0.363964 0.823243 0.129996
H41   H     H_    0.714842 0.299956 0.897076 0.170521
O34   O     O_3   0.259978 0.603331 0.158043 -0.584420
C74   C     C_3   0.292262 0.755951 0.156243 -0.020171
H42   H     H_    0.333347 0.709570 0.162631 0.122097
H43   H     H_    0.288910 0.862076 0.188460 0.152137
H44   H     H_    0.282194 0.818456 0.112821 0.194367
O35   O     O_3   0.665416 0.178397 0.727334 -0.660684
C75   C     C_3   0.679188 0.281497 0.683002 -0.081955
H45   H     H_    0.660348 0.224996 0.641140 0.197321
H46   H     H_    0.721637 0.297145 0.687654 0.172731
H47   H     H_    0.661619 0.419428 0.683495 0.143339
O36   O     O_3   0.301640 0.717189 0.299955 -0.658390
C76   C     C_3   0.257860 0.799767 0.314732 0.089172
H48   H     H_    0.222092 0.722762 0.305656 0.125904
H49   H     H_    0.247076 0.921781 0.289153 0.162150
H50   H     H_    0.266787 0.828837 0.360992 0.243771
N5    N     N_R   0.842407 0.094710 0.726148 0.276518
O37   O     O_R   0.891028 0.067608 0.724229 -0.317538
O38   O     O_R   0.824671 0.261933 0.723232 -0.346816
N6    N     N_R   0.147431 0.501934 0.276910 0.272355
O39   O     O_R   0.110978 0.434904 0.300502 -0.266909
O40   O     O_R   0.138811 0.660077 0.251134 -0.415622
N7    N     N_R   0.772785 0.737449 0.647879 0.256314
O41   O     O_R   0.734843 0.647882 0.616563 -0.358985
O42   O     O_R   0.819049 0.711664 0.637344 -0.271946
N8    N     N_R   0.236902 0.175995 0.348643 0.208796
O43   O     O_R   0.275875 0.132773 0.389884 -0.383753
O44   O     O_R   0.192417 0.101218 0.350467 -0.334566
O45   O     O_3   0.805450 0.594528 0.795358 -0.660091
C77   C     C_3   0.828636 0.506652 0.847383 -0.017365
H51   H     H_    0.799554 0.437165 0.867630 0.150956
H52   H     H_    0.852547 0.602039 0.877432 0.143282
H53   H     H_    0.855380 0.398575 0.837702 0.169939
O46   O     O_3   0.213036 0.072738 0.201851 -0.715322
C78   C     C_3   0.180350 0.011856 0.150666 -0.110830
H54   H     H_    0.203072 0.960960 0.119493 0.183693
H55   H     H_    0.151927 0.115203 0.130127 0.139482
H56   H     H_    0.157027 0.895999 0.161384 0.182856
N9    N     N_R   0.755928 0.052773 0.634258 0.235865
O47   O     O_R   0.714711 0.053014 0.593453 -0.391154
O48   O     O_R   0.797374 0.118316 0.619773 -0.233306
N10   N     N_R   0.235126 0.484463 0.368817 0.234343
O49   O     O_R   0.277341 0.520763 0.405983 -0.360916
O50   O     O_R   0.191719 0.504292 0.386517 -0.260501
O51   O     O_3   0.229250 0.066014 0.640126 -0.604948
C79   C     C_3   0.212816 0.250278 0.641142 -0.033538
H57   H     H_    0.235264 0.326762 0.678289 0.112437
H58   H     H_    0.170551 0.258433 0.640757 0.121774
H59   H     H_    0.219300 0.319528 0.601619 0.198851
O52   O     O_3   0.770750 0.558253 0.360071 -0.604559
C80   C     C_3   0.787031 0.741784 0.359210 -0.033340
H60   H     H_    0.764538 0.821289 0.322114 0.112298
H61   H     H_    0.829296 0.747883 0.359631 0.122162
H62   H     H_    0.780468 0.809286 0.398777 0.198335

loop_
_geom_bond_atom_site_label_1
_geom_bond_atom_site_label_2
_geom_bond_distance
_ccdc_geom_bond_type
O10   V4    1.988881 S    
C34   C36   1.419838 A    
N5    O37   1.301653 A    
C69   H27   1.112719 S    
C20   C30   1.408684 A    
C56   C62   1.498434 S    
C9    H1    1.081957 S    
O19   C67   1.350313 A    
V4    O20   2.000884 S    
O4    C4    1.358803 A    
C70   H32   1.108793 S    
C32   C42   1.399771 A    
C64   C66   1.215540 T    
O35   C75   1.400518 S    
O27   C71   1.413387 S    
C21   C23   1.410795 A    
C80   H60   1.115151 S    
C31   C41   1.399529 A    
O15   V4    1.769367 S    
N5    O38   1.300890 A    
O7    V1    1.951827 S    
C74   H42   1.109591 S    
C40   C42   1.410054 A    
O34   C74   1.412964 S    
N4    O32   1.302455 A    
C16   C18   1.406877 A    
C27   C29   1.407889 A    
C72   H37   1.109520 S    
N3    O29   1.301792 A    
C47   C55   1.582740 S    
C53   C55   1.568440 S    
C59   N5    1.476625 S    
C57   N9    1.482937 S    
H17   C53   1.108731 S    
O11   V2    1.770067 S    
C77   H51   1.107716 S    
C31   H13   1.080664 S    
O12   V1    1.779496 S    
C11   C29   1.499489 S    
C37   H15   1.081041 S    
O5    C5    1.347938 A    
N6    O39   1.302141 A    
C2    O18   1.344191 A    
C32   H14   1.080675 S    
C57   C59   1.609621 S    
O5    V1    2.003724 S    
C50   C62   1.215425 T    
C39   O27   1.382177 S    
C26   H10   1.083477 S    
C79   H57   1.115153 S    
C23   C25   1.401698 A    
C56   C58   1.609542 S    
C38   C40   1.403951 A    
C55   C61   1.500642 S    
C24   C26   1.401693 A    
C6    C35   1.500805 S    
C11   C13   1.407406 A    
O3    V1    1.959809 S    
C17   C68   1.493999 S    
C45   C51   1.573552 S    
C19   C29   1.408649 A    
C49   C61   1.218378 T    
C22   C24   1.410942 A    
O51   C79   1.412777 S    
C74   H43   1.109674 S    
C39   C41   1.410084 A    
C21   O51   1.389278 S    
O16   V3    1.778795 S    
C71   H35   1.107710 S    
C7    N1    1.436342 S    
V4    O17   1.972360 S    
N3    O30   1.302641 A    
N8    O44   1.303465 A    
C46   O34   1.423873 S    
C76   H50   1.100976 S    
C75   H46   1.105785 S    
C1    C66   1.448461 S    
N1    O22   1.301462 A    
C3    O8    1.360518 A    
C60   H24   1.108217 S    
C48   C56   1.559063 S    
C32   C34   1.404039 A    
C9    C11   1.406001 A    
O9    V3    1.989850 S    
C10   C12   1.405972 A    
O28   C72   1.413416 S    
C76   H49   1.079559 S    
O6    C6    1.346597 A    
C72   H38   1.107697 S    
C7    C17   1.421558 A    
C76   H48   1.084372 S    
C45   C47   1.562233 S    
N10   O49   1.302156 A    
C20   H8    1.080889 S    
C69   H29   1.108813 S    
C33   C35   1.419885 A    
C12   C14   1.407703 A    
C3    C50   1.449664 S    
C40   O28   1.382204 S    
C54   H26   1.096429 S    
C13   C15   1.400592 A    
C28   C30   1.408076 A    
O46   C78   1.418098 S    
C35   C37   1.410438 A    
C1    O13   1.341414 A    
C33   O25   1.380664 S    
C46   C52   1.572428 S    
C78   H56   1.107826 S    
O45   C77   1.412698 S    
C24   C42   1.488461 S    
C75   H47   1.106485 S    
C37   C39   1.403948 A    
O13   V3    1.959798 S    
C57   N7    1.485249 S    
C73   H41   1.109147 S    
C4    O7    1.362386 A    
O33   C73   1.413502 S    
O8    V2    1.961125 S    
N9    O48   1.301486 A    
C8    C10   1.404235 A    
C58   N10   1.483269 S    
C63   C65   1.217789 T    
H18   C54   1.111021 S    
N4    O31   1.301735 A    
C54   C56   1.570711 S    
C19   H7    1.080913 S    
C23   C41   1.487994 S    
C47   H21   1.113277 S    
O20   C68   1.349000 A    
C77   H53   1.108961 S    
C46   C48   1.578898 S    
C73   H40   1.111009 S    
N9    O47   1.300731 A    
C74   H44   1.108343 S    
C58   C60   1.615817 S    
C27   H11   1.081627 S    
C60   N6    1.478447 S    
O25   C69   1.413048 S    
O1    C5    1.346740 A    
C12   C30   1.500050 S    
C58   N8    1.467969 S    
C70   H30   1.112717 S    
C43   N3    1.498218 S    
C45   H19   1.102206 S    
N2    O24   1.301483 A    
N8    O43   1.302724 A    
C52   C60   1.594084 S    
C71   H34   1.109579 S    
C45   O33   1.422759 S    
C75   H45   1.103635 S    
C48   O36   1.417850 S    
C80   H62   1.109287 S    
C43   C51   1.597256 S    
O1    V2    1.988581 S    
C69   H28   1.112479 S    
C1    O17   1.341670 A    
O2    V1    1.989548 S    
C14   C16   1.401027 A    
C47   O35   1.423943 S    
C51   C63   1.501576 S    
C71   H33   1.113843 S    
C70   H31   1.112440 S    
V3    O19   2.003587 S    
N1    O21   1.301299 A    
C55   C57   1.619332 S    
C18   C67   1.494373 S    
C4    C49   1.454771 S    
C44   N4    1.492932 S    
C7    C9    1.404270 A    
C59   H23   1.111667 S    
C22   O52   1.389322 S    
O3    C3    1.359333 A    
C77   H52   1.106732 S    
O9    C68   1.340808 A    
C44   C52   1.596773 S    
C10   H2    1.081914 S    
O26   C70   1.413081 S    
C15   H5    1.083036 S    
C20   C22   1.415997 A    
C51   C59   1.574955 S    
C72   H36   1.113847 S    
C16   H6    1.083034 S    
C13   H3    1.082170 S    
O36   C76   1.402542 S    
O6    V2    2.001018 S    
N7    O42   1.302828 A    
C44   C54   1.593239 S    
C79   H59   1.109290 S    
C48   H22   1.111211 S    
C43   C53   1.589837 S    
C43   O45   1.438828 S    
C2    C65   1.454000 S    
C28   H12   1.081592 S    
V3    O18   1.962014 S    
C25   C27   1.395757 A    
C8    C18   1.421692 A    
C15   C17   1.406904 A    
C78   H54   1.106696 S    
O2    C6    1.345975 A    
N6    O40   1.301611 A    
N10   O50   1.301084 A    
C52   C64   1.497680 S    
C25   H9    1.083476 S    
O4    V2    1.976951 S    
C31   C33   1.403602 A    
C46   H20   1.099910 S    
C44   O46   1.432978 S    
O52   C80   1.412792 S    
C14   H4    1.082152 S    
C36   C38   1.410574 A    
N7    O41   1.302217 A    
C38   H16   1.081034 S    
C73   H39   1.109973 S    
C8    N2    1.436418 S    
C78   H55   1.098131 S    
N2    O23   1.301316 A    
O10   C67   1.341546 A    
C80   H61   1.110298 S    
C19   C21   1.415761 A    
C79   H58   1.110295 S    
C26   C28   1.395938 A    
O14   V4    1.976941 S    
C53   H25   1.101034 S    
C34   O26   1.380623 S    
C5    C36   1.501306 S    
C2    O14   1.340385 A    
