data_mof_unit_43880.cif
_audit_creation_date              2012-12-10T17:34:59-0500
_audit_creation_method            fapswitch 2.2
_symmetry_space_group_name_H-M    P1
_symmetry_Int_Tables_number       1
_space_group_crystal_system       triclinic
_cell_length_a                    12.328697
_cell_length_b                    13.205762
_cell_length_c                    13.899875
_cell_angle_alpha                 105.434324
_cell_angle_beta                  73.514742
_cell_angle_gamma                 116.686363
_cell_volume                      1913.28331785

loop_
_atom_site_label
_atom_site_type_symbol
_atom_type_description
_atom_site_fract_x
_atom_site_fract_y
_atom_site_fract_z
_atom_type_partial_charge
C1    C     C_R   0.144642 0.713660 0.508142 0.821984
C2    C     C_1   0.977960 0.511561 0.791716 -0.145072
C3    C     C_R   0.739956 0.981018 0.355094 -0.116644
C4    C     C_R   0.775769 0.163791 0.465576 -0.077458
C5    C     C_R   0.179737 0.918481 0.565155 -0.182410
C6    C     C_R   0.257542 0.034418 0.577626 -0.142786
C7    C     C_R   0.384422 0.068799 0.543445 -0.119083
C8    C     C_R   0.435732 0.987434 0.494876 0.025141
C9    C     C_R   0.354236 0.873756 0.463045 -0.065143
C10   C     C_R   0.565295 0.018970 0.467380 0.007534
C11   C     C_R   0.611723 0.944149 0.391353 0.014373
C12   C     C_R   0.984339 0.504686 0.686396 0.810470
C13   C     C_R   0.529176 0.836679 0.349811 0.052548
C14   C     C_R   0.401188 0.804726 0.380979 0.411245
C15   C     C_R   0.650908 0.122585 0.513118 0.116814
C16   C     C_R   0.820190 0.091530 0.388488 -0.221223
C17   C     C_R   0.226838 0.836506 0.509514 -0.092890
C18   C     C_R   0.663081 0.704624 0.630908 -0.014505
C19   C     C_R   0.255745 0.353281 0.360973 0.540620
C20   C     C_R   0.363304 0.328392 0.327622 0.245818
C21   C     C_R   0.468567 0.401994 0.368997 0.031807
C22   C     C_R   0.457904 0.475169 0.461300 -0.090269
C23   C     C_R   0.855892 0.286068 0.486607 0.825428
C24   C     C_R   0.349155 0.498146 0.493629 0.168079
C25   C     C_R   0.556507 0.534697 0.517282 0.017120
C26   C     C_R   0.558238 0.633953 0.587792 0.052536
C27   C     C_R   0.454194 0.659658 0.615486 -0.203450
C28   C     C_R   0.349508 0.589107 0.573930 -0.100470
C29   C     C_R   0.653094 0.499055 0.506480 -0.033404
C30   C     C_R   0.752697 0.663000 0.622105 0.599037
C31   C     C_R   0.014092 0.493193 0.313384 0.818207
C32   C     C_1   0.017338 0.483407 0.207906 -0.159468
C33   C     C_2   0.016123 0.464562 0.014441 0.115802
C34   C     C_2   0.973496 0.527071 0.985466 0.136769
C35   C     C_1   0.974789 0.518436 0.880221 0.039020
C36   C     C_1   0.017487 0.474663 0.119575 0.030141
Cu1   Cu    Cu3+1 0.899780 0.525060 0.522890 0.997633
Cu2   Cu    Cu3+1 0.100220 0.474940 0.477110 1.012635
H1    H     H_    0.449849 0.731173 0.674154 0.179515
H2    H     H_    0.651821 0.419657 0.458287 0.164642
H3    H     H_    0.272322 0.611617 0.605366 0.185505
H4    H     H_    0.916889 0.121291 0.352299 0.187387
H5    H     H_    0.779285 0.928315 0.296083 0.186205
H6    H     H_    0.082544 0.893121 0.598925 0.207091
H7    H     H_    0.441267 0.159891 0.551615 0.152930
H8    H     H_    0.219872 0.097724 0.616425 0.166853
N1    N     N_R   0.748810 0.563010 0.557590 -0.233986
N2    N     N_R   0.250540 0.437620 0.443020 -0.245625
O1    O     O_R   0.025040 0.682470 0.528790 -0.550912
O2    O     O_R   0.194310 0.640150 0.490130 -0.555979
O3    O     O_R   0.903380 0.524130 0.659910 -0.576899
O4    O     O_R   0.072660 0.481800 0.621240 -0.590573
O5    O     O_R   0.805690 0.359850 0.509870 -0.581208
O6    O     O_R   0.974960 0.317530 0.471210 -0.534766
O7    O     O_R   0.927340 0.518200 0.378760 -0.557009
O8    O     O_R   0.096620 0.475870 0.340090 -0.528141
I1    I     I_    0.904822 0.644715 0.088505 -0.368289
O9    O     O_3   0.321911 0.708974 0.326666 -0.574303
C37   C     C_3   0.316913 0.736170 0.236435 0.044738
H9    H     H_    0.289577 0.654992 0.181407 0.177838
H10   H     H_    0.408355 0.794840 0.198941 0.156200
C38   C     C_3   0.220082 0.785786 0.255644 -0.397482
H11   H     H_    0.246292 0.868939 0.307935 0.212236
H12   H     H_    0.129062 0.726096 0.291855 0.235745
C39   C     C_3   0.207644 0.805015 0.156605 -0.847187
H13   H     H_    0.296648 0.865984 0.119327 0.245519
H14   H     H_    0.137679 0.841483 0.172857 0.276446
H15   H     H_    0.178617 0.722630 0.103439 0.271141
O10   O     O_3   0.850202 0.728707 0.672736 -0.590805
C40   C     C_3   0.820068 0.698068 0.770472 0.080092
H16   H     H_    0.906982 0.707066 0.787622 0.179710
H17   H     H_    0.752631 0.607187 0.774763 0.144529
C41   C     C_3   0.771233 0.778713 0.853051 -0.412156
H18   H     H_    0.831200 0.869286 0.842662 0.269015
H19   H     H_    0.675354 0.758506 0.847468 0.233716
C42   C     C_3   0.768842 0.765190 0.959237 -0.805001
H20   H     H_    0.712558 0.674574 0.971071 0.283111
H21   H     H_    0.727484 0.820822 0.016953 0.269208
H22   H     H_    0.864495 0.791883 0.969696 0.272537
I2    I     I_    0.701312 0.882435 0.687400 -0.339915
O11   O     O_3   0.153219 0.295682 0.313948 -0.595573
C43   C     C_3   0.179601 0.274821 0.205830 0.081062
H23   H     H_    0.091224 0.246905 0.180529 0.144433
H24   H     H_    0.202890 0.198920 0.176941 0.187932
C44   C     C_3   0.273525 0.380723 0.155161 -0.326020
H25   H     H_    0.227948 0.437854 0.159439 0.215361
H26   H     H_    0.354355 0.432317 0.192805 0.249578
C45   C     C_3   0.322240 0.344211 0.043777 -0.797810
H27   H     H_    0.378792 0.296149 0.037937 0.282678
H28   H     H_    0.381128 0.421382 0.006748 0.262834
H29   H     H_    0.244482 0.288584 0.003236 0.265935
I3    I     I_    0.642245 0.445586 0.264826 -0.289204
O12   O     O_3   0.373610 0.247047 0.243075 -0.604386
C46   C     C_3   0.374917 0.151726 0.270852 0.060257
H30   H     H_    0.318474 0.073405 0.223783 0.177943
H31   H     H_    0.331335 0.140822 0.351778 0.113653
C47   C     C_3   0.507635 0.159303 0.247938 -0.294799
H32   H     H_    0.560124 0.197434 0.177754 0.272305
H33   H     H_    0.553395 0.214124 0.312961 0.210338
C48   C     C_3   0.512979 0.043203 0.231627 -0.934794
H34   H     H_    0.451679 0.997296 0.295267 0.250750
H35   H     H_    0.609079 0.055368 0.228208 0.269524
H36   H     H_    0.485055 0.991834 0.158771 0.262214
I4    I     I_    0.082918 0.346344 0.909103 -0.398730
I5    I     I_    0.590712 0.716389 0.239649 -0.350227
I6    I     I_    0.609273 0.197500 0.669358 -0.333413

loop_
_geom_bond_atom_site_label_1
_geom_bond_atom_site_label_2
_ccdc_geom_bond_type
C2    C35   T    
C20   O12   S    
O12   C46   S    
C16   H4    S    
C33   I4    S    
C41   H18   S    
C19   C20   A    
C18   C26   A    
C42   H22   S    
C2    C12   S    
C12   O3    A    
O11   C43   S    
C7    C8    A    
C44   H25   S    
C3    H5    S    
C26   C27   A    
Cu1   Cu2   S    
C29   N1    A    
C32   C36   T    
C15   I6    S    
C42   H21   S    
C10   C15   A    
C5    C6    A    
Cu1   O3    S    
C5    C17   A    
C47   H32   S    
C28   H3    S    
C33   C36   S    
C34   C35   S    
C38   H12   S    
C12   O4    A    
C27   H1    S    
C8    C9    A    
C39   H14   S    
C22   C25   A    
C34   I1    S    
C40   H16   S    
C18   C30   A    
C13   C14   A    
C31   O8    A    
Cu1   N1    S    
C1    O2    A    
Cu2   N2    S    
Cu1   O5    S    
C37   H9    S    
C21   C22   A    
C41   H19   S    
C46   H30   S    
C47   H33   S    
C23   O5    A    
C44   H26   S    
C25   C29   A    
C14   O9    S    
C37   H10   S    
C24   N2    A    
C30   N1    A    
C42   H20   S    
C13   I5    S    
C4    C23   S    
C19   N2    A    
C46   C47   S    
O9    C37   S    
C48   H36   S    
C4    C16   A    
C9    C14   A    
C38   H11   S    
Cu1   O1    S    
C31   C32   S    
Cu2   O6    S    
C45   H29   S    
C39   H15   S    
C40   C41   S    
C48   H35   S    
C33   C34   D    
C20   C21   A    
C46   H31   S    
C9    C17   A    
C5    H6    S    
C45   H28   S    
C39   H13   S    
C43   H24   S    
C41   C42   S    
C22   C24   A    
C7    H7    S    
C30   O10   S    
C23   O6    A    
C44   C45   S    
C37   C38   S    
C47   C48   S    
C6    H8    S    
C38   C39   S    
C8    C10   A    
C24   C28   A    
C6    C7    A    
Cu2   O2    S    
C43   C44   S    
C1    C17   S    
C4    C15   A    
C25   C26   A    
C11   C13   A    
C29   H2    S    
C48   H34   S    
O10   C40   S    
C3    C11   A    
C10   C11   A    
Cu1   O7    S    
Cu2   O8    S    
C45   H27   S    
C18   I2    S    
C43   H23   S    
C27   C28   A    
Cu2   O4    S    
C40   H17   S    
C31   O7    A    
C19   O11   S    
C1    O1    A    
C3    C16   A    
C21   I3    S    
