data_mof_unit_45537.cif
_audit_creation_date              2012-12-10T17:40:51-0500
_audit_creation_method            fapswitch 2.2
_symmetry_space_group_name_H-M    P1
_symmetry_Int_Tables_number       1
_space_group_crystal_system       triclinic
_cell_length_a                    14.78369
_cell_length_b                    15.509391
_cell_length_c                    9.887345
_cell_angle_alpha                 90.05135
_cell_angle_beta                  89.492662
_cell_angle_gamma                 89.994452
_cell_volume                      2266.94027206

loop_
_atom_site_label
_atom_site_type_symbol
_atom_type_description
_atom_site_fract_x
_atom_site_fract_y
_atom_site_fract_z
_atom_type_partial_charge
C1    C     C_R   0.384104 0.876032 0.501647 0.864201
C2    C     C_R   0.719151 0.217585 0.381674 -0.221217
C3    C     C_R   0.218960 0.282135 0.381487 -0.221792
C4    C     C_R   0.219147 0.717589 0.381673 -0.221217
C5    C     C_R   0.672435 0.801290 0.501140 -0.115357
C6    C     C_R   0.672776 0.198462 0.501418 -0.116403
C7    C     C_R   0.172436 0.301291 0.501139 -0.115357
C8    C     C_R   0.172774 0.698464 0.501418 -0.116401
C9    C     C_R   0.334572 0.000372 0.142158 -0.164122
C10   C     C_R   0.834572 0.500372 0.142158 -0.164117
C11   C     C_R   0.253140 0.000479 0.072652 -0.227141
C12   C     C_R   0.384039 0.123939 0.501705 0.863852
C13   C     C_R   0.753140 0.500478 0.072652 -0.227139
C14   C     C_R   0.253252 0.000480 0.932652 -0.172815
C15   C     C_R   0.753252 0.500479 0.932652 -0.172821
C16   C     C_R   0.334789 0.000440 0.861346 -0.130251
C17   C     C_R   0.834790 0.500440 0.861346 -0.130242
C18   C     C_R   0.418495 0.000416 0.928429 0.105411
C19   C     C_R   0.918495 0.500416 0.928429 0.105417
C20   C     C_R   0.418496 0.000352 0.073187 0.147773
C21   C     C_R   0.918496 0.500352 0.073187 0.147766
C22   C     C_R   0.577621 0.999098 0.072320 -0.151149
C23   C     C_R   0.884105 0.376031 0.501647 0.864203
C24   C     C_R   0.077621 0.499098 0.072320 -0.151157
C25   C     C_R   0.613618 0.125236 0.500114 0.883907
C26   C     C_R   0.613503 0.874690 0.500020 0.883910
C27   C     C_R   0.113618 0.625237 0.500114 0.883912
C28   C     C_R   0.113504 0.374690 0.500020 0.883908
C29   C     C_R   0.578600 0.998617 0.929716 0.118831
C30   C     C_R   0.078600 0.498617 0.929716 0.118839
C31   C     C_R   0.316101 0.206753 0.761682 -0.205063
C32   C     C_R   0.316966 0.793010 0.761641 -0.204643
C33   C     C_R   0.816104 0.706755 0.761681 -0.205070
C34   C     C_R   0.884038 0.623939 0.501705 0.863853
C35   C     C_R   0.816970 0.293006 0.761641 -0.204647
C36   C     C_R   0.263457 0.217052 0.878319 -0.178710
C37   C     C_R   0.264682 0.782454 0.878540 -0.171450
C38   C     C_R   0.763462 0.717055 0.878319 -0.178720
C39   C     C_R   0.764687 0.282447 0.878540 -0.171441
C40   C     C_R   0.672620 0.740582 0.868220 0.147213
C41   C     C_R   0.673935 0.258542 0.868896 0.162716
C42   C     C_R   0.172615 0.240579 0.868217 0.147213
C43   C     C_R   0.173930 0.758548 0.868896 0.162707
C44   C     C_R   0.638778 0.762932 0.741182 -0.200826
C45   C     C_R   0.290007 0.225871 0.383879 -0.226531
C46   C     C_R   0.639757 0.236451 0.741921 -0.184766
C47   C     C_R   0.138775 0.262930 0.741179 -0.200828
C48   C     C_R   0.139755 0.736452 0.741921 -0.184753
C49   C     C_R   0.694983 0.760812 0.624370 0.068416
C50   C     C_R   0.695605 0.238828 0.624744 0.067130
C51   C     C_R   0.194982 0.260811 0.624368 0.068415
C52   C     C_R   0.195603 0.738829 0.624744 0.067126
C53   C     C_R   0.278674 0.219712 0.631535 0.099138
C54   C     C_R   0.279248 0.780034 0.631630 0.097299
C55   C     C_R   0.778675 0.719713 0.631535 0.099141
C56   C     C_R   0.290116 0.773928 0.383904 -0.226085
C57   C     C_R   0.779251 0.280032 0.631630 0.097301
C58   C     C_R   0.320311 0.193915 0.507430 -0.113601
C59   C     C_R   0.320552 0.805946 0.507394 -0.112963
C60   C     C_R   0.820310 0.693914 0.507430 -0.113599
C61   C     C_R   0.820554 0.305944 0.507394 -0.112967
C62   C     C_3   0.613884 0.748631 0.993104 -0.436946
C63   C     C_3   0.536176 0.683179 0.992891 -0.336732
C64   C     C_3   0.474962 0.695443 0.116560 -0.874444
C65   C     C_3   0.615686 0.249765 0.994131 -0.425629
C66   C     C_3   0.537197 0.314402 0.994985 -0.351588
C67   C     C_R   0.790004 0.725868 0.383878 -0.226533
C68   C     C_3   0.476332 0.301032 0.118709 -0.873650
C69   C     C_3   0.113879 0.248629 0.993100 -0.436942
C70   C     C_3   0.036170 0.183177 0.992887 -0.336732
C71   C     C_3   0.974954 0.195443 0.116553 -0.874448
C72   C     C_3   0.115682 0.749774 0.994132 -0.425636
C73   C     C_3   0.037167 0.814384 0.994954 -0.351457
C74   C     C_3   0.976323 0.801027 0.118717 -0.873533
C75   C     C_R   0.790120 0.273925 0.383905 -0.226077
C76   C     C_R   0.718957 0.782133 0.381487 -0.221793
H1    H     H_    0.321832 0.208376 0.288623 0.169885
H2    H     H_    0.387478 0.808125 0.776156 0.170390
H3    H     H_    0.886618 0.691776 0.776494 0.170801
H4    H     H_    0.887482 0.308122 0.776154 0.170388
H5    H     H_    0.293403 0.205003 0.976118 0.144932
H6    H     H_    0.294861 0.794480 0.976210 0.142422
H7    H     H_    0.793410 0.705008 0.976119 0.144944
H8    H     H_    0.794867 0.294471 0.976211 0.142421
H9    H     H_    0.568557 0.782015 0.734745 0.154832
H10   H     H_    0.569512 0.217421 0.735836 0.151517
H11   H     H_    0.068554 0.282013 0.734740 0.154831
H12   H     H_    0.321761 0.791457 0.288582 0.169519
H13   H     H_    0.069511 0.717418 0.735836 0.151513
H14   H     H_    0.701686 0.811776 0.286026 0.163955
H15   H     H_    0.701794 0.187872 0.286241 0.166228
H16   H     H_    0.201690 0.311780 0.286026 0.163957
H17   H     H_    0.201788 0.687879 0.286239 0.166233
H18   H     H_    0.640701 0.998424 0.127090 0.158311
H19   H     H_    0.140701 0.498425 0.127090 0.158312
H20   H     H_    0.328959 0.000085 0.249560 0.213199
H21   H     H_    0.828959 0.500085 0.249560 0.213200
H22   H     H_    0.189564 0.000447 0.127880 0.153878
H23   H     H_    0.821826 0.708371 0.288621 0.169878
H24   H     H_    0.689564 0.500447 0.127880 0.153875
H25   H     H_    0.661566 0.001639 0.762135 0.269972
H26   H     H_    0.694911 0.936658 0.885955 0.171655
H27   H     H_    0.161566 0.501638 0.762135 0.269972
H28   H     H_    0.194913 0.436661 0.885957 0.171655
H29   H     H_    0.513853 0.685686 0.210967 0.266614
H30   H     H_    0.445631 0.761406 0.116832 0.256966
H31   H     H_    0.418815 0.647936 0.113880 0.247107
H32   H     H_    0.494660 0.691079 0.900584 0.214146
H33   H     H_    0.564215 0.616652 0.993566 0.221379
H34   H     H_    0.821765 0.291453 0.288582 0.169520
H35   H     H_    0.654855 0.738266 0.085332 0.197161
H36   H     H_    0.586086 0.815098 0.998105 0.206221
H37   H     H_    0.447631 0.234819 0.118119 0.258017
H38   H     H_    0.515299 0.310672 0.213102 0.267318
H39   H     H_    0.419715 0.348070 0.116943 0.245020
H40   H     H_    0.564464 0.381209 0.996358 0.222552
H41   H     H_    0.495589 0.306440 0.902779 0.213435
H42   H     H_    0.588747 0.182970 0.998890 0.215417
H43   H     H_    0.656842 0.260483 0.086078 0.194967
H44   H     H_    0.013843 0.185687 0.210962 0.266614
H45   H     H_    0.189808 0.000451 0.878773 0.144926
H46   H     H_    0.945624 0.261406 0.116821 0.256964
H47   H     H_    0.918807 0.147936 0.113871 0.247107
H48   H     H_    0.994656 0.191075 0.900577 0.214146
H49   H     H_    0.064210 0.116650 0.993566 0.221377
H50   H     H_    0.154849 0.238265 0.085329 0.197162
H51   H     H_    0.086080 0.315097 0.998099 0.206221
H52   H     H_    0.947674 0.734785 0.118223 0.258008
H53   H     H_    0.015291 0.810752 0.213101 0.267266
H54   H     H_    0.919667 0.848020 0.116892 0.244999
H55   H     H_    0.064411 0.881209 0.996265 0.222505
H56   H     H_    0.689808 0.500449 0.878773 0.144926
H57   H     H_    0.995547 0.806374 0.902756 0.213374
H58   H     H_    0.088767 0.682970 0.998918 0.215401
H59   H     H_    0.156832 0.760522 0.086078 0.194974
H60   H     H_    0.329528 0.000229 0.754028 0.213444
H61   H     H_    0.829528 0.500228 0.754028 0.213443
H62   H     H_    0.386615 0.191774 0.776497 0.170811
N1    N     N_R   0.498810 0.000000 0.142780 -0.134743
N2    N     N_R   0.998810 0.500000 0.142780 -0.134748
N3    N     N_R   0.498740 1.000000 0.857170 -0.144877
N4    N     N_R   0.998740 0.500000 0.857170 -0.144876
N5    N     N_3   0.665890 0.996700 0.865764 -0.461705
N6    N     N_3   0.165890 0.496701 0.865764 -0.461705
O1    O     O_R   0.408390 0.908380 0.614690 -0.654558
O2    O     O_R   0.591620 0.908390 0.614640 -0.646997
O3    O     O_R   0.091620 0.591610 0.614640 -0.640981
O4    O     O_R   0.091620 0.408390 0.614640 -0.646997
O5    O     O_R   0.591610 0.091610 0.385310 -0.614649
O6    O     O_R   0.591610 0.908390 0.385310 -0.615149
O7    O     O_R   0.091610 0.591610 0.385310 -0.614650
O8    O     O_R   0.091610 0.408390 0.385310 -0.615148
O9    O     O_R   0.408390 0.091620 0.614690 -0.654241
O10   O     O_R   0.908390 0.408380 0.614690 -0.654558
O11   O     O_R   0.908390 0.591620 0.614690 -0.654240
O12   O     O_R   0.408370 0.908380 0.385360 -0.636560
O13   O     O_R   0.408370 0.091620 0.385360 -0.636583
O14   O     O_R   0.908370 0.408380 0.385360 -0.636558
O15   O     O_R   0.908370 0.591620 0.385360 -0.636591
O16   O     O_R   0.591620 0.091610 0.614640 -0.640980
Zn1   Zn    Zn3+2 0.500010 1.000000 0.653130 0.897869
Zn2   Zn    Zn3+2 0.000010 0.500000 0.653130 0.897870
Zn3   Zn    Zn3+2 0.499980 0.000000 0.346870 0.921040
Zn4   Zn    Zn3+2 0.999980 0.500000 0.346870 0.921035

loop_
_geom_bond_atom_site_label_1
_geom_bond_atom_site_label_2
_ccdc_geom_bond_type
C44   C49   A    
C33   C55   A    
C66   C68   S    
C73   H55   S    
N3    Zn1   S    
C43   C72   S    
C22   C29   A    
C38   H7    S    
C10   H21   S    
C73   C74   S    
C71   H46   S    
C36   C42   A    
C12   O9    A    
C4    C8    A    
H27   N6    S    
C40   C62   S    
C64   H29   S    
C39   C41   A    
C34   O11   A    
C61   C75   A    
O6    Zn3   S    
C66   H40   S    
C71   H44   S    
C11   H22   S    
C20   N1    A    
C71   H47   S    
C19   C21   A    
C39   H8    S    
C3    C7    A    
C1    C59   S    
C11   C14   A    
C56   H12   S    
C6    C25   S    
C29   N5    S    
C23   O14   A    
C35   H4    S    
C30   N6    S    
C25   O5    A    
C26   O2    A    
C1    O1    A    
C74   H52   S    
C62   H35   S    
C60   C67   A    
C66   H41   S    
C41   C46   A    
H28   N6    S    
C70   C71   S    
O5    Zn3   S    
C12   O13   A    
C43   C48   A    
C8    C52   A    
C40   C44   A    
C2    H15   S    
O14   Zn4   S    
C68   H37   S    
C12   C58   S    
C34   O15   A    
O11   Zn2   S    
C14   H45   S    
C10   C13   A    
C55   C60   A    
C4    C56   A    
C34   C60   S    
C22   H18   S    
C5    C49   A    
C2    C6    A    
C32   C54   A    
C52   C54   A    
C54   C59   A    
C10   C21   A    
O2    Zn1   S    
C45   C58   A    
C28   O4    A    
C15   H56   S    
C63   C64   S    
C26   O6    A    
O12   Zn3   S    
C24   H19   S    
C33   H3    S    
C72   H59   S    
C41   C65   S    
C49   C55   A    
C22   N1    A    
C3    C45   A    
C42   C69   S    
C24   N2    A    
C7    C28   S    
C4    H17   S    
O9    Zn1   S    
C3    H16   S    
C51   C53   A    
C47   H11   S    
C63   H33   S    
C1    O12   A    
C35   C39   A    
C62   C63   S    
C9    C20   A    
C72   H58   S    
C23   C61   S    
C36   H5    S    
C65   H42   S    
C29   N3    A    
C25   O16   A    
C65   H43   S    
C32   C37   A    
C31   C53   A    
C31   H62   S    
C64   H30   S    
C9    C11   A    
C9    H20   S    
O8    Zn4   S    
C70   H49   S    
C16   C18   A    
C73   H57   S    
C69   H50   S    
C28   O8    A    
C19   N4    A    
C48   H13   S    
C13   C15   A    
C14   C16   A    
C37   C43   A    
C74   H53   S    
H26   N5    S    
C44   H9    S    
C16   H60   S    
C64   H31   S    
C15   C17   A    
O13   Zn3   S    
C75   H34   S    
C27   O7    A    
C6    C50   A    
O15   Zn4   S    
C50   C57   A    
O10   Zn2   S    
C18   N3    A    
C72   C73   S    
O3    Zn2   S    
N4    Zn2   S    
C47   C51   A    
C53   C58   A    
C57   C61   A    
C67   H23   S    
N2    Zn4   S    
C46   C50   A    
C33   C38   A    
C30   N4    A    
C56   C59   A    
C35   C57   A    
O4    Zn2   S    
O16   Zn1   S    
C5    C76   A    
C74   H54   S    
C7    C51   A    
C38   C40   A    
H25   N5    S    
O1    Zn1   S    
C13   H24   S    
N1    Zn3   S    
C17   C19   A    
C18   C20   A    
C42   C47   A    
C65   C66   S    
C69   C70   S    
C37   H6    S    
C24   C30   A    
C68   H39   S    
C32   H2    S    
C5    C26   S    
C70   H48   S    
C48   C52   A    
C62   H36   S    
C69   H51   S    
C27   O3    A    
O7    Zn4   S    
C23   O10   A    
C76   H14   S    
C8    C27   S    
C31   C36   A    
C17   H61   S    
C67   C76   A    
C21   N2    A    
C45   H1    S    
C63   H32   S    
C2    C75   A    
C68   H38   S    
C46   H10   S    
