data_mof_unit_19415.cif
_audit_creation_date              2012-12-10T17:35:36-0500
_audit_creation_method            fapswitch 2.2
_symmetry_space_group_name_H-M    P1
_symmetry_Int_Tables_number       1
_space_group_crystal_system       triclinic
_cell_length_a                    10.723256
_cell_length_b                    12.328716
_cell_length_c                    13.185579
_cell_angle_alpha                 116.667513
_cell_angle_beta                  77.434773
_cell_angle_gamma                 101.200138
_cell_volume                      1511.09343918

loop_
_atom_site_label
_atom_site_type_symbol
_atom_type_description
_atom_site_fract_x
_atom_site_fract_y
_atom_site_fract_z
_atom_type_partial_charge
C1    C     C_R   0.511528 0.854916 0.286570 0.772967
C2    C     C_3   0.121420 0.001530 0.503616 0.101029
C3    C     C_3   0.073287 0.124225 0.599496 -0.154146
C4    C     C_3   0.040392 0.891399 0.523581 -0.331070
C5    C     C_R   0.327601 0.276705 0.021669 -0.182955
C6    C     C_R   0.455120 0.228032 0.834753 -0.051958
C7    C     C_R   0.598229 0.814803 0.085249 -0.180799
C8    C     C_R   0.624746 0.735592 0.970398 -0.131057
C9    C     C_R   0.578975 0.612486 0.932695 -0.167735
C10   C     C_R   0.500593 0.566441 0.009369 0.095636
C11   C     C_R   0.461444 0.650430 0.123617 0.090434
C12   C     C_R   0.739663 0.999043 0.499355 0.758867
C13   C     C_R   0.458680 0.440053 0.976193 0.091537
C14   C     C_R   0.369491 0.401180 0.053404 0.160251
C15   C     C_R   0.320648 0.487049 0.160290 -0.221616
C16   C     C_R   0.364243 0.609938 0.194267 -0.194165
C17   C     C_R   0.503420 0.350701 0.868641 -0.251275
C18   C     C_R   0.369722 0.190416 0.912448 -0.120332
C19   C     C_R   0.519677 0.773058 0.163450 -0.099804
C20   C     C_R   0.694550 0.339956 0.319068 -0.235191
C21   C     C_R   0.324563 0.760632 0.644474 0.028601
C22   C     C_R   0.273863 0.659087 0.665643 -0.238473
C23   C     C_R   0.481324 0.145068 0.713433 0.834369
C24   C     C_R   0.328248 0.548595 0.602250 0.055918
C25   C     C_R   0.446076 0.545152 0.525914 -0.109756
C26   C     C_R   0.489052 0.650414 0.502594 0.203398
C27   C     C_R   0.521640 0.442625 0.469178 -0.121497
C28   C     C_R   0.624045 0.440993 0.379838 0.058073
C29   C     C_R   0.657804 0.541486 0.353868 0.519813
C30   C     C_R   0.594565 0.644841 0.416583 -0.261310
C31   C     C_R   0.505532 0.343886 0.500286 0.035772
C32   C     C_R   0.666680 0.242240 0.348620 0.045374
C33   C     C_R   0.260180 0.000166 0.500196 0.808180
C34   C     C_3   0.956856 0.991587 0.386282 -0.417355
C35   C     C_3   0.100105 0.988901 0.385808 -0.441303
C36   C     C_3   0.926321 0.121871 0.600877 -0.180319
C37   C     C_3   0.898567 0.888083 0.518540 -0.346869
C38   C     C_3   0.877030 0.000271 0.502517 0.101154
Cu1   Cu    Cu3+1 0.529690 0.098270 0.475420 0.931734
Cu2   Cu    Cu3+1 0.470310 0.901730 0.524580 0.949238
H1    H     H_    0.946258 0.071043 0.371237 0.177282
H2    H     H_    0.049788 0.896208 0.607790 0.225759
H3    H     H_    0.331260 0.095481 0.887175 0.166683
H4    H     H_    0.248256 0.459158 0.218065 0.147128
H5    H     H_    0.259391 0.246569 0.080191 0.135905
H6    H     H_    0.575025 0.373873 0.808217 0.142381
H7    H     H_    0.642142 0.908492 0.113362 0.155741
H8    H     H_    0.604480 0.556667 0.842499 0.130377
H9    H     H_    0.684678 0.769071 0.910656 0.154603
H10   H     H_    0.921284 0.907685 0.314262 0.181525
H11   H     H_    0.317964 0.672619 0.275573 0.168369
H12   H     H_    0.719264 0.163286 0.300868 0.123017
H13   H     H_    0.771205 0.336400 0.249244 0.197186
H14   H     H_    0.441454 0.344118 0.575462 0.133938
H15   H     H_    0.277449 0.843154 0.690057 0.157832
H16   H     H_    0.185925 0.664690 0.725817 0.184767
H17   H     H_    0.631434 0.718768 0.393799 0.223010
H18   H     H_    0.132450 0.901647 0.316206 0.175990
H19   H     H_    0.158055 0.064373 0.366263 0.179223
H20   H     H_    0.916767 0.198175 0.580546 0.109105
H21   H     H_    0.123953 0.196820 0.572772 0.116100
H22   H     H_    0.839001 0.884333 0.597375 0.221897
H23   H     H_    0.868713 0.802296 0.445255 0.184099
H24   H     H_    0.075580 0.804106 0.456512 0.161836
N1    N     N_R   0.574690 0.246280 0.438200 -0.179144
N2    N     N_R   0.426100 0.754320 0.561190 -0.189883
O1    O     O_R   0.537340 0.972510 0.318130 -0.582465
O2    O     O_R   0.487200 0.806530 0.359650 -0.600671
O3    O     O_R   0.707380 0.082980 0.479220 -0.595136
O4    O     O_R   0.657240 0.917000 0.520740 -0.596135
O5    O     O_R   0.512800 0.193470 0.640350 -0.595865
O6    O     O_R   0.462660 0.027490 0.681870 -0.566976
O7    O     O_R   0.342760 0.083000 0.479260 -0.599744
O8    O     O_R   0.292620 0.917020 0.520780 -0.582584
C39   C     C_2   0.842813 0.147760 0.716657 0.337062
H25   H     H_    0.785268 0.223780 0.755210 0.066225
O9    O     O_2   0.837668 0.084150 0.766882 -0.528825
C40   C     C_2   0.109850 0.163540 0.717286 0.419667
H26   H     H_    0.098976 0.256338 0.781486 0.115206
O10   O     O_2   0.150631 0.094114 0.742121 -0.575268
F1    F     F_    0.756859 0.542288 0.269913 -0.679869
C41   C     C_2   0.247067 0.437349 0.603498 0.296003
H27   H     H_    0.252662 0.351501 0.527409 0.059277
O11   O     O_2   0.170584 0.441094 0.688206 -0.577995

loop_
_geom_bond_atom_site_label_1
_geom_bond_atom_site_label_2
_ccdc_geom_bond_type
C2    C35   S    
C12   O3    A    
C21   N2    A    
C16   H11   S    
C37   H22   S    
C7    C8    A    
C11   C19   A    
C29   C30   A    
Cu2   O4    S    
C35   H18   S    
C28   C29   A    
C15   H4    S    
C40   O10   D    
C15   C16   A    
C30   H17   S    
C1    O2    A    
C35   H19   S    
C34   C35   S    
C24   C41   S    
C32   H12   S    
C8    C9    A    
C9    C10   A    
Cu2   N2    S    
C13   C14   A    
Cu1   N1    S    
C34   H1    S    
C37   H23   S    
C3    H21   S    
C6    C18   A    
C34   H10   S    
C1    C19   S    
C27   C31   A    
C26   N2    A    
C23   O5    A    
C24   C25   A    
Cu1   Cu2   S    
C21   H15   S    
C40   H26   S    
C22   H16   S    
C5    C18   A    
C20   C28   A    
C25   C26   A    
C5    H5    S    
C7    H7    S    
C2    C4    S    
C39   H25   S    
C29   F1    S    
C37   C38   S    
C36   C39   S    
C11   C16   A    
Cu1   O3    S    
C17   H6    S    
C39   O9    D    
C5    C14   A    
C2    C33   S    
C33   O7    A    
C26   C30   A    
C41   O11   D    
C22   C24   A    
C20   C32   A    
C31   N1    A    
C6    C17   A    
C12   O4    A    
Cu2   O6    S    
C34   C38   S    
Cu1   O1    S    
C23   O6    A    
C20   H13   S    
C36   H20   S    
C10   C13   A    
C25   C27   A    
C4    H24   S    
C7    C19   A    
C13   C17   A    
C36   C38   S    
C2    C3    S    
C18   H3    S    
C4    H2    S    
C3    C36   S    
C6    C23   S    
C1    O1    A    
Cu2   O8    S    
Cu1   O7    S    
C31   H14   S    
C12   C38   S    
C10   C11   A    
C33   O8    A    
C4    C37   S    
C9    H8    S    
C41   H27   S    
Cu2   O2    S    
C27   C28   A    
Cu1   O5    S    
C14   C15   A    
C21   C22   A    
C3    C40   S    
C8    H9    S    
C32   N1    A    
