data_mof_unit_17141.cif
_audit_creation_date              2012-12-10T20:57:48-0500
_audit_creation_method            fapswitch 2.2
_symmetry_space_group_name_H-M    P1
_symmetry_Int_Tables_number       1
_space_group_crystal_system       triclinic
_cell_length_a                    18.159053
_cell_length_b                    18.307148
_cell_length_c                    18.413112
_cell_angle_alpha                 119.858346
_cell_angle_beta                  90.130381
_cell_angle_gamma                 120.077203
_cell_volume                      4327.64884169

loop_
_atom_site_label
_atom_site_type_symbol
_atom_type_description
_atom_site_fract_x
_atom_site_fract_y
_atom_site_fract_z
_atom_type_partial_charge
C1    C     C_R   0.360268 0.220055 0.361089 0.784019
C2    C     C_3   0.804664 0.944775 0.736769 0.044608
C3    C     C_3   0.849620 0.665033 0.147636 -0.883765
C4    C     C_3   0.043908 0.892382 0.059359 -0.466952
C5    C     C_3   0.955558 0.791291 0.031139 -0.847917
C6    C     C_3   0.125644 0.144508 0.871976 -0.442321
C7    C     C_3   0.192763 0.180086 0.952425 -0.905429
C8    C     C_3   0.700923 0.896665 0.702091 0.158455
C9    C     C_R   0.641614 0.780774 0.641269 0.756441
C10   C     C_3   0.798102 0.102026 0.805919 0.161463
C11   C     C_3   0.724884 0.053812 0.844059 0.027835
C12   C     C_3   0.859150 0.063984 0.801538 -0.478202
C13   C     C_3   0.638039 0.422702 0.202757 -0.409930
C14   C     C_3   0.695318 0.409240 0.142178 0.022382
C15   C     C_3   0.758606 0.609672 0.320649 -0.476471
C16   C     C_3   0.760455 0.473736 0.321167 -0.419723
C17   C     C_3   0.272493 0.573261 0.359467 -0.397637
C18   C     C_3   0.698404 0.501606 0.302336 0.168107
C19   C     C_3   0.798019 0.499070 0.199081 0.130517
C20   C     C_3   0.812169 0.607277 0.254261 -0.007705
C21   C     C_R   0.359373 0.500595 0.640774 0.785366
C22   C     C_3   0.825952 0.483618 0.267654 -0.474853
C23   C     C_R   0.444458 0.186892 0.568948 -0.122606
C24   C     C_R   0.409175 0.137835 0.477684 -0.117853
C25   C     C_R   0.319823 0.098916 0.439387 0.153904
C26   C     C_R   0.265848 0.108195 0.493095 -0.138804
C27   C     C_R   0.301451 0.157452 0.584387 -0.139923
C28   C     C_3   0.298230 0.498546 0.302019 0.197732
C29   C     C_R   0.390737 0.196948 0.622303 -0.111019
C30   C     C_R   0.227467 0.943952 0.287648 -0.269806
C31   C     C_R   0.194555 0.892324 0.195601 -0.040265
C32   C     C_R   0.217828 0.949194 0.158188 -0.011233
C33   C     C_R   0.640899 0.500755 0.359651 0.767521
C34   C     C_R   0.272176 0.056028 0.214226 -0.279025
C35   C     C_R   0.305043 0.107629 0.306273 -0.050036
C36   C     C_R   0.283588 0.050746 0.343452 -0.011923
C37   C     C_R   0.246576 0.882105 0.015100 -0.159314
C38   C     C_R   0.222548 0.834837 0.923498 -0.139497
C39   C     C_3   0.193934 0.496408 0.200297 0.193281
C40   C     C_R   0.141893 0.806690 0.876910 -0.152409
C41   C     C_R   0.085104 0.825996 0.921768 -0.143020
C42   C     C_R   0.107747 0.872916 0.014018 0.232999
C43   C     C_R   0.189776 0.901159 0.061182 0.108956
C44   C     C_R   0.903400 0.584884 0.545321 -0.162822
C45   C     C_R   0.642099 0.499851 0.639602 0.795720
C46   C     C_R   0.850517 0.537048 0.583448 -0.156782
C47   C     C_R   0.840027 0.595020 0.663080 0.168057
C48   C     C_R   0.883431 0.701258 0.704500 -0.128852
C49   C     C_R   0.935136 0.748513 0.665445 -0.152851
C50   C     C_3   0.146623 0.385237 0.178678 0.023931
C51   C     C_R   0.945026 0.690318 0.585829 -0.106648
C52   C     C_R   0.840602 0.545170 0.763178 -0.272976
C53   C     C_R   0.799843 0.501005 0.808094 -0.048602
C54   C     C_R   0.707759 0.458140 0.798239 -0.022652
C55   C     C_R   0.658256 0.458768 0.741994 -0.267890
C56   C     C_R   0.698733 0.502076 0.696527 -0.046381
C57   C     C_R   0.357685 0.499797 0.359482 0.750489
C58   C     C_R   0.791361 0.546903 0.707788 -0.021911
C59   C     C_R   0.605237 0.308407 0.804713 -0.123707
C60   C     C_R   0.547504 0.266534 0.843831 -0.162817
C61   C     C_3   0.214908 0.575389 0.300426 -0.396058
C62   C     C_R   0.543798 0.331347 0.924768 -0.127848
C63   C     C_R   0.598516 0.438196 0.967163 -0.151505
C64   C     C_R   0.656876 0.480533 0.928644 -0.148789
C65   C     C_R   0.660000 0.415688 0.846840 0.165822
C66   C     C_R   0.401946 0.823876 0.752606 -0.160147
C67   C     C_R   0.377199 0.750163 0.770119 -0.163577
C68   C     C_R   0.303638 0.647143 0.708067 0.162789
C69   C     C_3   0.347467 0.531995 0.244509 -0.413155
C70   C     C_R   0.254535 0.618864 0.628822 -0.109326
C71   C     C_R   0.279840 0.692834 0.611410 -0.131560
C72   C     C_3   0.692427 0.939389 0.649994 -0.474475
C73   C     C_R   0.353627 0.795212 0.673166 -0.103083
C74   C     C_R   0.222738 0.567024 0.781310 -0.267383
C75   C     C_R   0.195477 0.498663 0.805722 -0.056803
C76   C     C_R   0.223196 0.431597 0.776107 -0.001389
C77   C     C_R   0.275888 0.433706 0.721824 -0.263341
C78   C     C_R   0.302963 0.501938 0.697198 -0.056662
C79   C     C_R   0.276280 0.570012 0.727883 -0.013350
C80   C     C_R   0.255072 0.392308 0.879197 -0.189814
C81   C     C_3   0.285806 0.529117 0.183777 -0.468461
C82   C     C_R   0.232854 0.324391 0.903341 -0.125826
C83   C     C_3   0.753992 0.059102 0.708924 -0.390835
C84   C     C_R   0.155118 0.221621 0.848914 0.273697
C85   C     C_R   0.101231 0.188875 0.769789 -0.227729
C86   C     C_R   0.123582 0.256845 0.745721 -0.165938
C87   C     C_R   0.200186 0.359093 0.800706 0.161781
C88   C     C_R   0.856622 0.498653 0.142486 0.768760
C89   C     C_R   0.138635 0.499662 0.861713 0.788295
C90   C     C_R   0.856310 0.218801 0.863468 0.742799
C91   C     C_R   0.138027 0.779942 0.141063 0.785918
C92   C     C_R   0.855812 0.500984 0.863357 0.795082
C93   C     C_3   0.209772 0.388280 0.239485 -0.464263
C94   C     C_3   0.666294 0.934097 0.780660 -0.385869
C95   C     C_R   0.138991 0.499322 0.142805 0.778299
C96   C     C_3   0.050214 0.335514 0.185689 -0.426105
C97   C     C_3   0.975653 0.296623 0.109222 -0.887244
C98   C     C_3   0.664642 0.093071 0.873290 -0.370291
C99   C     C_3   0.607132 0.081685 0.802233 -0.848448
C100  C     C_3   0.835142 0.900658 0.774251 -0.388200
C101  C     C_3   0.799104 0.891122 0.846061 -0.878587
C102  C     C_3   0.673019 0.299061 0.096033 -0.375573
C103  C     C_3   0.583180 0.216837 0.019238 -0.933285
C104  C     C_3   0.786963 0.639071 0.199320 -0.431783
H1    H     H_    0.366952 0.479741 0.202789 0.177373
H2    H     H_    0.826767 0.929078 0.677381 0.114631
H3    H     H_    0.113326 0.072422 0.813684 0.198123
H4    H     H_    0.915096 0.098579 0.778509 0.174924
H5    H     H_    0.891758 0.091822 0.869597 0.177417
H6    H     H_    0.663806 0.901718 0.818420 0.137577
H7    H     H_    0.763106 0.075323 0.906846 0.087296
H8    H     H_    0.602062 0.449893 0.186348 0.147871
H9    H     H_    0.584729 0.347461 0.190472 0.197846
H10   H     H_    0.676209 0.415639 0.089273 0.181644
H11   H     H_    0.715539 0.635257 0.316408 0.147280
H12   H     H_    0.320486 0.606745 0.196630 0.164204
H13   H     H_    0.151826 0.559527 0.316286 0.171046
H14   H     H_    0.800223 0.526446 0.393062 0.195123
H15   H     H_    0.718925 0.393768 0.303580 0.157085
H16   H     H_    0.826891 0.414212 0.234338 0.159630
H17   H     H_    0.895830 0.550756 0.314347 0.185640
H18   H     H_    0.807062 0.666817 0.389959 0.173941
H19   H     H_    0.885062 0.668341 0.295021 0.162367
H20   H     H_    0.418305 0.235387 0.692990 0.131616
H21   H     H_    0.513579 0.217600 0.598359 0.119577
H22   H     H_    0.451595 0.131317 0.437053 0.102795
H23   H     H_    0.274567 0.474042 0.113097 0.174481
H24   H     H_    0.175870 0.363122 0.280898 0.149267
H25   H     H_    0.196881 0.078671 0.464476 0.116479
H26   H     H_    0.259969 0.165423 0.625805 0.128822
H27   H     H_    0.211181 0.901114 0.316755 0.172262
H28   H     H_    0.288886 0.098855 0.185068 0.174146
H29   H     H_    0.309297 0.903134 0.050271 0.124267
H30   H     H_    0.266558 0.820000 0.888577 0.135715
H31   H     H_    0.123419 0.770132 0.805890 0.141276
H32   H     H_    0.023184 0.804352 0.884405 0.130147
H33   H     H_    0.985500 0.727030 0.555891 0.115544
H34   H     H_    0.225958 0.332809 0.196908 0.169698
H35   H     H_    0.621162 0.911422 0.626410 0.186480
H36   H     H_    0.912288 0.540241 0.484436 0.121198
H37   H     H_    0.819080 0.455498 0.551913 0.113901
H38   H     H_    0.877720 0.747280 0.767189 0.117004
H39   H     H_    0.968274 0.830393 0.697340 0.110765
H40   H     H_    0.911463 0.578155 0.770443 0.177955
H41   H     H_    0.587558 0.426544 0.735174 0.175254
H42   H     H_    0.605290 0.257289 0.740499 0.108914
H43   H     H_    0.504167 0.183718 0.810477 0.125346
H44   H     H_    0.498057 0.298752 0.954346 0.126479
H45   H     H_    0.593964 0.487878 0.028756 0.113625
H46   H     H_    0.711469 0.910091 0.589555 0.149905
H47   H     H_    0.139781 0.332884 0.108873 0.158102
H48   H     H_    0.696924 0.563205 0.960663 0.121473
H49   H     H_    0.373040 0.852443 0.659729 0.115894
H50   H     H_    0.458287 0.903259 0.800826 0.132970
H51   H     H_    0.415009 0.773245 0.831960 0.115041
H52   H     H_    0.197082 0.539823 0.580774 0.103938
H53   H     H_    0.241990 0.671000 0.550331 0.111695
H54   H     H_    0.202584 0.619269 0.804131 0.173806
H55   H     H_    0.296312 0.381711 0.699318 0.174603
H56   H     H_    0.314683 0.471128 0.922050 0.122785
H57   H     H_    0.808097 0.085958 0.681060 0.151747
H58   H     H_    0.276651 0.353293 0.964677 0.128396
H59   H     H_    0.233846 0.547937 0.398697 0.167728
H60   H     H_    0.041618 0.110150 0.726414 0.113242
H61   H     H_    0.080873 0.230081 0.684637 0.122804
H62   H     H_    0.334429 0.652894 0.407381 0.178616
H63   H     H_    0.252525 0.654743 0.316530 0.177016
H64   H     H_    0.974627 0.360940 0.119117 0.250218
H65   H     H_    0.983883 0.256018 0.044210 0.261966
H66   H     H_    0.908839 0.241219 0.107357 0.227541
H67   H     H_    0.031560 0.266498 0.183737 0.209626
H68   H     H_    0.715553 0.089474 0.705596 0.182084
H69   H     H_    0.048931 0.388776 0.250121 0.208168
H70   H     H_    0.647075 0.147678 0.797148 0.272635
H71   H     H_    0.578219 0.008004 0.736396 0.247150
H72   H     H_    0.549444 0.082043 0.821443 0.225835
H73   H     H_    0.618182 0.049351 0.897624 0.178458
H74   H     H_    0.706410 0.174540 0.931501 0.227644
H75   H     H_    0.807659 0.963333 0.898780 0.252727
H76   H     H_    0.727243 0.824090 0.816079 0.247336
H77   H     H_    0.837459 0.876431 0.877496 0.239268
H78   H     H_    0.818673 0.824538 0.719971 0.239079
H79   H     H_    0.594604 0.902521 0.753491 0.194447
H80   H     H_    0.910171 0.951321 0.802299 0.183338
H81   H     H_    0.527893 0.222439 0.039971 0.257801
H82   H     H_    0.590113 0.226371 0.964290 0.284041
H83   H     H_    0.564146 0.138811 0.995023 0.247057
H84   H     H_    0.726748 0.295030 0.070220 0.203240
H85   H     H_    0.669188 0.278644 0.144161 0.207361
H86   H     H_    0.921451 0.710648 0.187694 0.259601
H87   H     H_    0.831408 0.594095 0.083791 0.268594
H88   H     H_    0.841438 0.711711 0.131101 0.236552
H89   H     H_    0.716204 0.579546 0.153848 0.204621
H90   H     H_    0.410670 0.611531 0.288174 0.157546
H91   H     H_    0.791164 0.710488 0.246419 0.210039
H92   H     H_    0.920252 0.741770 0.958358 0.258506
H93   H     H_    0.968889 0.748611 0.049397 0.266230
H94   H     H_    0.910475 0.808494 0.065472 0.234077
H95   H     H_    0.074170 0.941605 0.132834 0.215175
H96   H     H_    0.029078 0.934656 0.041728 0.197721
H97   H     H_    0.258643 0.199805 0.942105 0.258784
H98   H     H_    0.202544 0.247839 0.013866 0.248216
H99   H     H_    0.165904 0.116645 0.961239 0.255173
H100  H     H_    0.060601 0.125148 0.884348 0.203623
O1    O     O_3   0.500000 0.500000 0.500000 -0.472709
O2    O     O_R   0.113800 0.731630 0.056520 -0.631286
O3    O     O_R   0.819390 0.439310 0.886160 -0.641471
O4    O     O_R   0.383400 0.268380 0.323710 -0.650983
O5    O     O_R   0.115110 0.560720 0.179280 -0.655473
O6    O     O_R   0.941380 0.560750 0.885620 -0.643316
O7    O     O_R   0.115110 0.439270 0.057830 -0.644417
O8    O     O_R   0.942690 0.268390 0.886930 -0.644064
O9    O     O_R   0.114340 0.731630 0.178520 -0.653080
O10   O     O_R   0.820160 0.439310 0.057830 -0.653561
O11   O     O_R   0.113800 0.560730 0.885620 -0.643627
O12   O     O_R   0.383400 0.560740 0.616060 -0.634244
O13   O     O_R   0.555060 0.731630 0.615290 -0.642440
O14   O     O_R   0.383950 0.439280 0.616600 -0.644757
O15   O     O_R   0.677590 0.560710 0.444390 -0.642857
O16   O     O_R   0.556370 0.439260 0.616600 -0.644811
O17   O     O_R   0.382640 0.439290 0.322940 -0.648689
O18   O     O_R   0.678360 0.560700 0.616060 -0.640173
O19   O     O_R   0.382640 0.560750 0.444390 -0.647797
O20   O     O_R   0.555060 0.439270 0.322940 -0.656013
O21   O     O_R   0.383950 0.268380 0.445700 -0.631882
O22   O     O_R   0.677590 0.731610 0.615290 -0.656569
O23   O     O_3   0.997750 0.500010 0.002220 -0.471248
O24   O     O_R   0.942690 0.560750 0.179280 -0.648973
O25   O     O_R   0.114340 0.439270 0.886160 -0.631503
O26   O     O_R   0.820160 0.268410 0.886930 -0.643846
Zn1   Zn    Zn3+2 0.456040 0.586770 0.543190 0.959621
Zn2   Zn    Zn3+2 0.456820 0.413240 0.543960 0.967948
Zn3   Zn    Zn3+2 0.631110 0.586750 0.543190 0.952499
Zn4   Zn    Zn3+2 0.456040 0.413240 0.369660 0.940557
Zn5   Zn    Zn3+2 0.041710 0.413240 0.959030 0.955518
Zn6   Zn    Zn3+2 0.866640 0.413270 0.959030 0.944395
Zn7   Zn    Zn3+2 0.040930 0.586780 0.958260 0.965874
Zn8   Zn    Zn3+2 0.041710 0.586770 0.132560 0.932319

loop_
_geom_bond_atom_site_label_1
_geom_bond_atom_site_label_2
_ccdc_geom_bond_type
C3    C104  S    
C15   C18   S    
C90   O8    A    
C55   C56   A    
O18   Zn3   S    
O25   Zn5   S    
C80   H56   S    
C85   H60   S    
C15   H18   S    
O17   Zn4   S    
C27   C29   A    
C41   C42   A    
O15   Zn3   S    
C92   O6    A    
C19   C20   S    
C103  H81   S    
C6    C7    S    
C2    C12   S    
C102  H85   S    
C54   C65   S    
C57   O17   A    
C77   C78   A    
C52   C53   A    
C22   H16   S    
O23   Zn6   S    
C86   H61   S    
C26   C27   A    
C52   H40   S    
O22   Zn3   S    
C88   O10   A    
C13   C18   S    
C64   H48   S    
C11   C98   S    
C70   H52   S    
C45   O18   A    
C23   C29   A    
C67   H51   S    
O1    Zn4   S    
C37   C38   A    
C7    H98   S    
C3    H87   S    
C17   H62   S    
C30   C31   A    
C98   C99   S    
C14   C102  S    
C1    O21   A    
C30   H27   S    
O23   Zn7   S    
C29   H20   S    
C10   C83   S    
O12   Zn1   S    
C97   H65   S    
C60   C62   A    
C34   C35   A    
C1    O4    A    
O20   Zn4   S    
C63   H45   S    
C20   H19   S    
C7    H99   S    
C93   H34   S    
C17   H59   S    
C17   C61   S    
C54   C55   A    
C50   H47   S    
C32   C43   S    
C72   H35   S    
C99   H72   S    
C28   C69   S    
C45   C56   S    
C44   C46   A    
C8    C9    S    
C49   C51   A    
C96   H67   S    
C21   C78   S    
C104  H89   S    
O26   Zn6   S    
C70   C71   A    
O11   Zn7   S    
C60   H43   S    
C98   H74   S    
C100  H78   S    
C23   H21   S    
C68   C79   S    
C66   C67   A    
C83   H57   S    
C2    C100  S    
C59   C60   A    
C44   H36   S    
C62   H44   S    
C13   C14   S    
C81   H23   S    
C24   H22   S    
C98   H73   S    
C103  H82   S    
C39   C61   S    
C12   H5    S    
O19   Zn1   S    
O3    Zn6   S    
C46   H37   S    
C33   O15   A    
C84   C85   A    
C15   C20   S    
C71   H53   S    
C40   H31   S    
O10   Zn6   S    
C8    C72   S    
O21   Zn2   S    
C6    C84   S    
C96   H69   S    
O16   Zn2   S    
C11   H7    S    
C67   C68   A    
C95   O5    A    
O6    Zn7   S    
C19   C22   S    
C69   C81   S    
C24   C25   A    
C39   C81   S    
C80   C82   A    
C19   C88   S    
C74   C75   A    
C3    H86   S    
C12   H4    S    
C69   H1    S    
C86   C87   A    
C103  H83   S    
C5    H93   S    
C82   H58   S    
C25   C26   A    
C85   C86   A    
O23   Zn8   S    
C61   H13   S    
C94   H6    S    
C102  H84   S    
C97   H66   S    
C28   C93   S    
C61   H63   S    
C35   C36   A    
C32   C34   A    
C37   C43   A    
C28   C57   S    
C75   C76   A    
C59   H42   S    
C96   C97   S    
O24   Zn8   S    
C62   C63   A    
C101  H75   S    
C16   H14   S    
C47   C48   A    
C4    H96   S    
C6    H3    S    
C39   C95   S    
C83   H68   S    
C4    H95   S    
C53   C92   S    
C21   O12   A    
C8    C94   S    
C76   C77   A    
C74   H54   S    
C76   C87   S    
O14   Zn2   S    
C9    O22   A    
C26   H25   S    
C10   C12   S    
C80   C87   A    
C77   H55   S    
C5    H92   S    
C51   H33   S    
C44   C51   A    
C68   C70   A    
C40   C41   A    
O9    Zn8   S    
C82   C84   A    
C74   C79   A    
C52   C58   A    
C37   H29   S    
O1    Zn1   S    
C94   H79   S    
C66   H50   S    
O4    Zn4   S    
O8    Zn5   S    
C101  H77   S    
C91   O2    A    
C1    C35   S    
C22   H17   S    
C71   C73   A    
C57   O19   A    
C9    O13   A    
C27   H26   S    
C46   C47   A    
C48   C49   A    
C6    H100  S    
C16   C22   S    
C25   C36   S    
C78   C79   A    
C17   C28   S    
C14   C19   S    
O7    Zn5   S    
C31   C32   A    
C2    C8    S    
C31   C91   S    
C11   C94   S    
C4    C5    S    
C50   C93   S    
C53   C54   A    
C5    H94   S    
C20   C104  S    
C30   C36   A    
C13   H8    S    
C97   H64   S    
O23   Zn5   S    
O13   Zn1   S    
C72   H46   S    
C89   O11   A    
C21   O14   A    
C95   O7    A    
C64   C65   A    
O1    Zn3   S    
C93   H24   S    
C91   O9    A    
C101  H76   S    
C14   H10   S    
C3    H88   S    
C7    H97   S    
C47   C58   S    
C38   C40   A    
C66   C73   A    
C50   C96   S    
C88   O24   A    
C99   H70   S    
C4    C42   S    
C49   H39   S    
C81   H12   S    
C69   H90   S    
C104  H91   S    
C56   C58   A    
O2    Zn7   S    
C15   H11   S    
C38   H30   S    
C102  C103  S    
C100  H80   S    
C18   C33   S    
C13   H9    S    
C72   C83   S    
C55   H41   S    
C10   C11   S    
C75   C89   S    
C23   C24   A    
C2    H2    S    
C63   C64   A    
C34   H28   S    
C33   O20   A    
C48   H38   S    
C39   C50   S    
C99   H71   S    
C10   C90   S    
C16   C18   S    
O5    Zn8   S    
C42   C43   A    
C73   H49   S    
C92   O3    A    
C45   O16   A    
C90   O26   A    
O1    Zn2   S    
C100  C101  S    
C89   O25   A    
C41   H32   S    
C59   C65   A    
C16   H15   S    
