data_mof_unit_50818.cif
_audit_creation_date              2012-12-11T14:17:27-0500
_audit_creation_method            fapswitch 2.2
_symmetry_space_group_name_H-M    P1
_symmetry_Int_Tables_number       1
_space_group_crystal_system       triclinic
_cell_length_a                    6.943028
_cell_length_b                    13.653173
_cell_length_c                    20.492086
_cell_angle_alpha                 102.229168
_cell_angle_beta                  90.019929
_cell_angle_gamma                 90.61094
_cell_volume                      1898.33992773

loop_
_atom_site_label
_atom_site_type_symbol
_atom_type_description
_atom_site_fract_x
_atom_site_fract_y
_atom_site_fract_z
_atom_type_partial_charge
O1    O     O_R   0.506860 0.599390 0.449240 -0.538866
O2    O     O_R   0.180220 0.594600 0.586780 -0.539956
O3    O     O_R   0.004500 0.400610 0.550760 -0.542662
C1    C     C_R   0.349314 0.614778 0.613850 0.762599
O4    O     O_R   0.177490 0.611290 0.451970 -0.540977
O5    O     O_R   0.001750 0.417420 0.414990 -0.542592
C2    C     C_R   0.346653 0.637112 0.434483 0.715967
O6    O     O_R   0.509610 0.582580 0.585010 -0.544328
O7    O     O_3   0.337420 0.436370 0.488020 -0.369798
V1    V     V_3+5 0.064680 0.511800 0.502220 1.515770
O8    O     O_R   0.671710 0.405400 0.413220 -0.524083
C3    C     C_R   0.840577 0.382492 0.387185 0.772727
O9    O     O_R   0.674440 0.388710 0.548030 -0.545343
C4    C     C_R   0.842621 0.362197 0.564640 0.699730
V2    V     V_3+5 0.564010 0.488200 0.497780 1.523199
O10   O     O_3   0.841140 0.563630 0.511980 -0.374397
C5    C     C_R   0.794797 0.108887 0.607418 -0.109793
H1    H     H_    0.767651 0.032816 0.580534 0.177256
C6    C     C_R   0.847243 0.282276 0.602539 -0.116665
C7    C     C_R   0.845536 0.308413 0.922926 -0.157658
C8    C     C_R   0.813153 0.381455 0.886798 -0.089535
C9    C     C_R   0.806111 0.356019 0.817638 -0.092146
C10   C     C_R   0.841025 0.256970 0.782231 0.026166
C11   C     C_R   0.852771 0.179223 0.819006 -0.072088
C12   C     C_R   0.848834 0.233030 0.710972 -0.021298
C13   C     C_R   0.820288 0.131835 0.677227 -0.024681
C14   C     C_R   0.821534 0.054884 0.713243 0.358282
C15   C     C_R   0.849156 0.077406 0.782767 0.268651
C16   C     C_R   0.885223 0.305803 0.671605 -0.075638
C17   C     C_R   0.800879 0.183581 0.570694 -0.074298
C18   C     C_R   0.860958 0.207867 0.890495 -0.055384
H2    H     H_    0.849019 0.329804 0.976992 0.117484
H3    H     H_    0.763629 0.414535 0.792712 0.124265
H4    H     H_    0.789454 0.458155 0.912612 0.131019
C19   C     C_2   0.005264 0.281412 0.285019 -0.034685
C20   C     C_2   0.846300 0.307727 0.323023 -0.287759
H5    H     H_    0.710993 0.269702 0.307221 0.180708
C21   C     C_2   0.998221 0.203418 0.222104 -0.196758
C22   C     C_2   0.859200 0.194433 0.174982 -0.187910
H6    H     H_    0.120951 0.153584 0.212497 0.140133
C23   C     C_2   0.208428 0.760771 0.791121 -0.020429
C24   C     C_2   0.358490 0.820110 0.818138 -0.296295
H7    H     H_    0.485707 0.824994 0.788277 0.190478
C25   C     C_2   0.204991 0.704754 0.720110 -0.080704
C26   C     C_2   0.362405 0.678013 0.682159 -0.280928
H8    H     H_    0.064376 0.679541 0.699430 0.165656
H9    H     H_    0.505414 0.697207 0.702479 0.154108
C27   C     C_R   0.436733 0.883087 0.385464 -0.138278
H10   H     H_    0.465423 0.827526 0.475146 0.136498
H11   H     H_    0.479385 0.957917 0.410958 0.151216
C28   C     C_R   0.358611 0.713324 0.393559 -0.080640
C29   C     C_R   0.354479 0.684795 0.071407 -0.211503
C30   C     C_R   0.362164 0.608806 0.107126 0.007291
C31   C     C_R   0.365487 0.632645 0.176860 -0.168240
C32   C     C_R   0.353300 0.733204 0.212683 0.056954
C33   C     C_R   0.359827 0.810363 0.175711 0.062767
C34   C     C_R   0.352723 0.759431 0.284165 0.031929
C35   C     C_R   0.397753 0.860174 0.316349 0.083828
C36   C     C_R   0.401931 0.935721 0.278832 -0.055183
C37   C     C_R   0.376796 0.910806 0.209865 -0.235747
C38   C     C_R   0.308130 0.690148 0.325328 -0.101337
C39   C     C_R   0.427302 0.808969 0.422645 -0.167586
C40   C     C_R   0.356410 0.785193 0.104948 -0.068743
H12   H     H_    0.353795 0.665970 0.017239 0.111001
H13   H     H_    0.388639 0.571852 0.202050 0.145332
H14   H     H_    0.378845 0.970874 0.182708 0.113995
O11   O     O_R   0.203230 0.917310 0.915020 -0.516179
O12   O     O_R   0.535500 0.888690 0.048040 -0.546100
O13   O     O_R   0.711080 0.082610 0.085000 -0.549454
C41   C     C_R   0.366255 0.862251 0.064886 0.668896
O14   O     O_R   0.532630 0.905370 0.913230 -0.514026
O15   O     O_R   0.708190 0.099410 0.949230 -0.529637
C42   C     C_R   0.363562 0.883261 0.886796 0.775258
O16   O     O_R   0.206120 0.900510 0.050790 -0.547696
O17   O     O_3   0.375360 0.063570 0.011990 -0.378609
V3    V     V_3+5 0.648170 0.988200 0.997780 1.543043
O18   O     O_R   0.038240 0.111390 0.951940 -0.532729
C43   C     C_R   0.869927 0.136203 0.934021 0.791238
O19   O     O_R   0.041120 0.094710 0.086750 -0.546442
C44   C     C_R   0.872186 0.117560 0.112566 0.680622
V4    V     V_3+5 0.148810 0.011930 0.002180 1.525789
O20   O     O_3   0.871750 0.936430 0.988010 -0.351417
C45   C     C_1   0.772452 0.156050 0.499257 0.285509
N1    N     N_1   0.750898 0.134036 0.442019 -0.344581
C46   C     C_1   0.701546 0.264422 0.180293 0.338890
N2    N     N_1   0.575762 0.320281 0.184063 -0.331030
C47   C     C_1   0.040896 0.747750 0.830592 0.418970
N3    N     N_1   0.906839 0.736909 0.861983 -0.341948
C48   C     C_1   0.424724 0.040632 0.309850 0.303777
N4    N     N_1   0.441881 0.124713 0.334463 -0.340981
Cl1   Cl    Cl    0.795797 0.927366 0.671029 -0.632914
C49   C     C_1   0.183387 0.604159 0.301618 0.295216
N5    N     N_1   0.081879 0.536304 0.282703 -0.354849
C50   C     C_1   0.372410 0.505717 0.072012 0.321479
N6    N     N_1   0.380692 0.422927 0.043814 -0.346131
C51   C     C_1   0.986361 0.399169 0.698665 0.282481
N7    N     N_1   0.067856 0.473403 0.720087 -0.382169
Cl2   Cl    Cl    0.872943 0.972925 0.820421 -0.606165
C52   C     C_1   0.193478 0.323335 0.304895 0.427295
N8    N     N_1   0.344077 0.357209 0.320619 -0.325504

loop_
_geom_bond_atom_site_label_1
_geom_bond_atom_site_label_2
_ccdc_geom_bond_type
C47   N3    T    
C23   C24   D    
C19   C20   D    
C28   C38   A    
O15   V3    S    
V4    O20   S    
C31   H13   S    
O18   C43   A    
C25   C26   D    
C13   C14   A    
C5    C13   A    
C20   H5    S    
O5    C3    A    
O14   V3    S    
V2    O10   S    
O13   V3    S    
C36   C48   S    
C17   C45   S    
O15   C43   A    
O8    V2    S    
C45   N1    T    
C30   C31   A    
C41   O16   A    
C10   C11   A    
C14   Cl1   S    
O11   C42   A    
C3    C20   S    
O7    V1    S    
C38   C49   S    
C1    O6    A    
C27   H11   S    
C37   H14   S    
C36   C37   A    
O9    C4    A    
C5    C17   A    
C28   C39   A    
C19   C52   S    
C25   H8    S    
O4    C2    A    
C1    C26   S    
C26   H9    S    
C12   C16   A    
C23   C47   S    
C19   C21   S    
C29   H12   S    
V3    O20   S    
O14   C42   A    
O17   V4    S    
C8    H4    S    
C12   C13   A    
C46   N2    T    
C33   C37   A    
O2    C1    A    
O17   V3    S    
C27   C39   A    
C52   N8    T    
C40   C41   S    
O18   V4    S    
C51   N7    T    
C32   C33   A    
C5    H1    S    
C33   C40   A    
C34   C38   A    
O3    C4    A    
O1    V2    S    
O11   V4    S    
O6    V2    S    
O9    V2    S    
C23   C25   S    
C24   H7    S    
C22   C46   S    
O16   V4    S    
O2    V1    S    
C29   C30   A    
C18   C43   S    
O19   V4    S    
C7    H2    S    
C15   Cl2   S    
C9    H3    S    
C31   C32   A    
C24   C42   S    
H10   C39   S    
C30   C50   S    
O1    C2    A    
C4    C6    S    
C11   C15   A    
C29   C40   A    
O5    V1    S    
C16   C51   S    
O8    C3    A    
C27   C35   A    
O12   V3    S    
C22   C44   S    
C32   C34   A    
C35   C36   A    
C11   C18   A    
C2    C28   S    
O4    V1    S    
O3    V1    S    
V1    O10   S    
C21   H6    S    
C34   C35   A    
C21   C22   D    
C49   N5    T    
C10   C12   A    
O7    V2    S    
C50   N6    T    
O19   C44   A    
C7    C8    A    
O12   C41   A    
C14   C15   A    
C9    C10   A    
O13   C44   A    
C48   N4    T    
C8    C9    A    
C6    C17   A    
C7    C18   A    
C6    C16   A    
