data_mof_unit_36670.cif
_audit_creation_date              2012-10-26T19:57:51-0400
_audit_creation_method            fapswitch 2.2
_symmetry_space_group_name_H-M    P1
_symmetry_Int_Tables_number       1
_space_group_crystal_system       triclinic
_cell_length_a                    7.439006
_cell_length_b                    8.730101
_cell_length_c                    13.036732
_cell_angle_alpha                 87.878359
_cell_angle_beta                  79.505236
_cell_angle_gamma                 102.401891
_cell_volume                      810.499514055

loop_
_atom_site_label
_atom_site_type_symbol
_atom_type_description
_atom_site_fract_x
_atom_site_fract_y
_atom_site_fract_z
_atom_type_partial_charge
C1    C     C_R   0.453338 0.200091 0.506972 0.570700
C2    C     C_R   0.725581 0.565120 0.122264 -0.173649
C3    C     C_R   0.601100 0.565634 0.859558 0.247573
C4    C     C_R   0.390680 0.456233 0.140850 0.235868
C5    C     C_R   0.587514 0.537901 0.967732 0.036151
C6    C     C_R   0.410353 0.463299 0.031223 -0.011874
C7    C     C_2   0.429677 0.032523 0.522001 0.235165
C8    C     C_2   0.570335 0.967475 0.478119 0.233100
C9    C     C_R   0.546657 0.799909 0.493097 0.555077
C10   C     C_R   0.467626 0.499732 0.700812 0.535408
C11   C     C_R   0.532361 0.502138 0.298819 0.578064
C12   C     C_R   0.549348 0.505821 0.185497 -0.008877
C13   C     C_R   0.449276 0.496537 0.813693 -0.045730
C14   C     C_R   0.258111 0.396550 0.983771 0.232036
C15   C     C_R   0.746684 0.584339 0.013883 0.265312
C16   C     C_R   0.280694 0.413377 0.875384 -0.138973
Cu1   Cu    Cu3+1 0.686350 0.517570 0.488220 1.032175
Cu2   Cu    Cu3+1 0.313650 0.482430 0.511780 1.058001
H1    H     H_    0.847452 0.601843 0.157537 0.129394
H2    H     H_    0.811636 0.988518 0.382458 0.344015
H3    H     H_    0.166320 0.357859 0.838740 0.149534
H4    H     H_    0.934060 0.377215 0.582626 0.246627
H5    H     H_    0.065936 0.622727 0.417333 0.242149
H6    H     H_    0.134275 0.468227 0.184474 0.345437
H7    H     H_    0.722325 0.726938 0.747346 0.334265
H8    H     H_    0.001181 0.272349 0.997401 0.334497
H9    H     H_    0.017402 0.667075 0.997266 0.318860
H10   H     H_    0.188378 0.011490 0.617658 0.338704
N1    N     N_2   0.033570 0.455950 0.529530 -0.222311
N2    N     N_2   0.966430 0.544050 0.470470 -0.227786
O1    O     O_R   0.621060 0.286250 0.492350 -0.459538
O2    O     O_3   0.760523 0.663825 0.800889 -0.591048
O3    O     O_3   0.092726 0.307372 0.043089 -0.652069
O4    O     O_3   0.922263 0.643727 0.952310 -0.608267
O5    O     O_3   0.268243 0.942014 0.585201 -0.690894
O6    O     O_3   0.731783 0.057988 0.414935 -0.684827
O7    O     O_R   0.378940 0.713750 0.507650 -0.461548
O8    O     O_R   0.306310 0.256580 0.512240 -0.517192
O9    O     O_R   0.693690 0.743420 0.487760 -0.529572
O10   O     O_R   0.631800 0.512400 0.642670 -0.498775
O11   O     O_R   0.368200 0.487600 0.357330 -0.462317
O12   O     O_R   0.317060 0.482730 0.662570 -0.498399
O13   O     O_R   0.682940 0.517270 0.337430 -0.516338
O14   O     O_3   0.217796 0.403310 0.205554 -0.598130

loop_
_geom_bond_atom_site_label_1
_geom_bond_atom_site_label_2
_ccdc_geom_bond_type
C11   C12   S    
Cu1   O13   S    
C11   O13   A    
N1    N2    D    
Cu1   N2    S    
H4    N1    S    
C10   O12   A    
C4    C12   A    
C15   O4    S    
C3    C13   A    
C9    O9    A    
C2    C12   A    
C14   O3    S    
C9    O7    A    
Cu1   Cu2   S    
Cu2   O8    S    
C7    C8    D    
Cu2   N1    S    
C2    C15   A    
C16   H3    S    
C1    O8    A    
H7    O2    S    
Cu1   O1    S    
C5    C6    A    
C10   O10   A    
Cu2   O7    S    
C11   O11   A    
Cu2   O12   S    
H9    O4    S    
C8    O6    S    
C3    O2    S    
H6    O14   S    
C14   C16   A    
C5    C15   A    
C6    C14   A    
H2    O6    S    
H5    N2    S    
C1    O1    A    
H10   O5    S    
C4    C6    A    
Cu1   O9    S    
C13   C16   A    
C4    O14   S    
C2    H1    S    
C1    C7    S    
C7    O5    S    
C10   C13   S    
Cu2   O11   S    
H8    O3    S    
C8    C9    S    
C3    C5    A    
Cu1   O10   S    
