data_mof_unit_64391.cif
_audit_creation_date              2012-12-10T18:12:06-0500
_audit_creation_method            fapswitch 2.2
_symmetry_space_group_name_H-M    P1
_symmetry_Int_Tables_number       1
_space_group_crystal_system       triclinic
_cell_length_a                    28.57449
_cell_length_b                    18.369157
_cell_length_c                    18.366306
_cell_angle_alpha                 90.000587
_cell_angle_beta                  130.402629
_cell_angle_gamma                 89.997144
_cell_volume                      7341.15380352

loop_
_atom_site_label
_atom_site_type_symbol
_atom_type_description
_atom_site_fract_x
_atom_site_fract_y
_atom_site_fract_z
_atom_type_partial_charge
C1    C     C_R   0.500134 0.999990 0.360242 0.859114
C2    C     C_R   0.499874 0.999990 0.639767 0.859065
C3    C     C_R   0.000134 0.499990 0.360242 0.859099
C4    C     C_R   0.999876 0.499990 0.639768 0.859042
C5    C     C_R   0.813814 0.004176 0.812323 -0.091062
C6    C     C_R   0.186182 0.004156 0.187685 -0.091011
C7    C     C_R   0.313815 0.504159 0.812324 -0.091052
C8    C     C_R   0.686181 0.504145 0.187683 -0.090997
C9    C     C_R   0.780636 0.037444 0.721439 -0.038297
C10   C     C_R   0.219353 0.037505 0.278515 -0.038358
C11   C     C_R   0.280640 0.537474 0.721473 -0.038354
C12   C     C_R   0.719349 0.537528 0.278491 -0.038403
C13   C     C_R   0.716112 0.035359 0.657421 -0.076516
C14   C     C_R   0.283876 0.035435 0.342537 -0.076497
C15   C     C_R   0.216118 0.535384 0.657443 -0.076485
C16   C     C_R   0.783871 0.535459 0.342518 -0.076483
C17   C     C_R   0.685505 0.000343 0.684407 -0.109813
C18   C     C_R   0.314492 0.000362 0.315598 -0.109865
C19   C     C_R   0.185506 0.500341 0.684405 -0.109853
C20   C     C_R   0.814491 0.500363 0.315599 -0.109894
C21   C     C_R   0.718887 0.967472 0.774853 -0.011458
C22   C     C_R   0.281115 0.967401 0.225212 -0.011515
C23   C     C_R   0.218885 0.467439 0.774834 -0.011422
C24   C     C_R   0.781116 0.467379 0.225225 -0.011490
C25   C     C_R   0.816136 0.042341 0.627860 -0.098951
C26   C     C_R   0.183600 0.042436 0.371737 -0.098646
C27   C     C_R   0.316460 0.542433 0.628343 -0.098569
C28   C     C_R   0.683395 0.542468 0.371428 -0.098407
C29   C     C_R   0.845655 0.077930 0.600221 -0.155370
C30   C     C_R   0.154026 0.078079 0.399250 -0.155460
C31   C     C_R   0.346034 0.578110 0.600853 -0.155476
C32   C     C_R   0.653778 0.578147 0.398843 -0.155536
C33   C     C_R   0.871344 0.146817 0.636817 -0.147797
C34   C     C_R   0.128524 0.147062 0.362819 -0.147556
C35   C     C_R   0.371459 0.647126 0.637224 -0.147527
C36   C     C_R   0.628435 0.647207 0.362563 -0.147397
C37   C     C_R   0.867707 0.180349 0.701513 0.053586
C38   C     C_R   0.132408 0.180635 0.298419 0.053624
C39   C     C_R   0.367500 0.680698 0.701544 0.053624
C40   C     C_R   0.632524 0.680822 0.298413 0.053660
C41   C     C_R   0.838581 0.144476 0.730046 -0.174272
C42   C     C_R   0.161584 0.144707 0.270006 -0.174774
C43   C     C_R   0.338326 0.644736 0.729936 -0.174890
C44   C     C_R   0.661741 0.644859 0.270093 -0.175156
C45   C     C_R   0.618755 0.000002 0.619080 0.808160
C46   C     C_R   0.381243 0.000007 0.380930 0.808115
C47   C     C_R   0.118756 0.500002 0.619075 0.808137
C48   C     C_R   0.881243 0.500007 0.380934 0.808099
C49   C     C_R   0.812535 0.075344 0.693025 0.117073
C50   C     C_R   0.187436 0.075479 0.306854 0.117015
C51   C     C_R   0.312551 0.575476 0.693148 0.117012
C52   C     C_R   0.687427 0.575552 0.306783 0.116976
C53   C     C_1   0.500493 0.999975 0.283069 -0.150686
C54   C     C_1   0.499521 0.999974 0.716945 -0.150632
C55   C     C_1   0.000492 0.499975 0.283068 -0.150683
C56   C     C_1   0.999524 0.499973 0.716948 -0.150613
C57   C     C_1   0.500555 0.999937 0.217827 -0.160634
C58   C     C_1   0.499455 0.999935 0.782182 -0.160342
C59   C     C_1   0.000554 0.499936 0.217827 -0.160620
C60   C     C_1   0.999457 0.499933 0.782184 -0.160300
C61   C     C_R   0.000003 0.139929 0.000004 0.829514
C62   C     C_R   0.500002 0.639929 0.000003 0.829745
C63   C     C_R   0.880930 0.002067 0.880541 0.800670
C64   C     C_R   0.119068 0.002060 0.119459 0.800742
C65   C     C_R   0.380931 0.502061 0.880542 0.800780
C66   C     C_R   0.619068 0.502055 0.119458 0.800805
C67   C     C_R   0.999999 0.860128 0.999999 0.845358
C68   C     C_R   0.499999 0.360128 0.999999 0.845331
C69   C     C_R   0.499999 0.139703 0.999998 0.834027
C70   C     C_R   0.999999 0.639703 0.999998 0.834056
C71   C     C_R   0.500174 0.999901 0.139898 0.849681
C72   C     C_R   0.499827 0.999900 0.860104 0.849773
C73   C     C_R   0.000174 0.499901 0.139898 0.849706
C74   C     C_R   0.999828 0.499899 0.860104 0.849796
C75   C     C_R   0.500001 0.860287 0.000007 0.894008
C76   C     C_R   0.000001 0.360287 0.000009 0.894055
C77   C     C_1   0.000005 0.217441 0.000010 -0.160014
C78   C     C_1   0.500004 0.717441 0.000008 -0.160037
C79   C     C_R   0.637942 0.825802 0.807601 -0.170531
C80   C     C_R   0.361551 0.825410 0.191839 -0.170767
C81   C     C_R   0.137956 0.325769 0.807618 -0.170537
C82   C     C_R   0.861555 0.325377 0.191867 -0.170764
C83   C     C_1   0.500003 0.782732 0.000011 -0.088285
C84   C     C_1   0.000004 0.282731 0.000014 -0.087993
C85   C     C_1   0.999997 0.782572 0.999996 -0.174872
C86   C     C_1   0.499997 0.282572 0.999996 -0.174883
C87   C     C_1   0.499996 0.217262 0.999996 -0.164887
C88   C     C_1   0.999996 0.717262 0.999996 -0.164881
C89   C     C_R   0.667832 0.859361 0.779326 -0.115541
C90   C     C_R   0.331686 0.859043 0.220122 -0.115968
C91   C     C_R   0.167821 0.359334 0.779303 -0.115531
C92   C     C_R   0.831692 0.359016 0.220151 -0.115962
C93   C     C_R   0.688158 0.931573 0.805924 0.101463
C94   C     C_R   0.311847 0.931449 0.194178 0.102028
C95   C     C_R   0.188156 0.431541 0.805907 0.101481
C96   C     C_R   0.811850 0.431422 0.194196 0.102053
C97   C     C_R   0.679320 0.969506 0.862439 -0.187377
C98   C     C_R   0.321163 0.969523 0.138338 -0.187342
C99   C     C_R   0.179343 0.469468 0.862457 -0.187361
C100  C     C_R   0.821164 0.469492 0.138350 -0.187333
C101  C     C_R   0.649866 0.935712 0.891346 -0.182658
C102  C     C_R   0.350576 0.935655 0.109401 -0.182793
C103  C     C_R   0.149912 0.435669 0.891401 -0.182632
C104  C     C_R   0.850575 0.435619 0.109413 -0.182794
C105  C     C_R   0.628783 0.863946 0.863503 0.064797
C106  C     C_R   0.371177 0.863685 0.136593 0.065101
C107  C     C_R   0.128830 0.363903 0.863566 0.064723
C108  C     C_R   0.871176 0.363647 0.136610 0.065081
C109  C     C_R   0.782636 0.970311 0.838231 -0.225322
C110  C     C_R   0.217366 0.970206 0.161840 -0.225371
C111  C     C_R   0.282635 0.470261 0.838209 -0.225364
C112  C     C_R   0.717366 0.470172 0.161855 -0.225405
Cu1   Cu    Cu3+1 0.500000 0.927480 0.500000 0.956269
Cu2   Cu    Cu3+1 1.000000 0.427480 0.500000 0.956305
Cu3   Cu    Cu3+1 0.500000 0.072500 0.500000 0.988544
Cu4   Cu    Cu3+1 0.000000 0.572500 0.500000 0.988546
Cu5   Cu    Cu3+1 0.999980 0.000040 0.072510 0.969806
Cu6   Cu    Cu3+1 0.000020 0.000040 0.927490 0.969872
Cu7   Cu    Cu3+1 0.499980 0.500040 0.072510 0.969766
Cu8   Cu    Cu3+1 0.500020 0.500040 0.927490 0.969809
Cu9   Cu    Cu3+1 0.561800 0.999990 0.061810 0.979483
Cu10  Cu    Cu3+1 0.438200 0.999990 0.938190 0.979550
Cu11  Cu    Cu3+1 0.061800 0.499990 0.061810 0.979442
Cu12  Cu    Cu3+1 0.938200 0.499990 0.938190 0.979419
H1    H     H_    0.893759 0.174074 0.614345 0.130703
H2    H     H_    0.106062 0.174359 0.385190 0.130715
H3    H     H_    0.393918 0.674449 0.614868 0.130693
H4    H     H_    0.605936 0.674527 0.384854 0.130702
H5    H     H_    0.835692 0.170282 0.780117 0.121667
H6    H     H_    0.164659 0.170541 0.220157 0.121901
H7    H     H_    0.335191 0.670569 0.779721 0.121965
H8    H     H_    0.664970 0.670723 0.220432 0.122077
H9    H     H_    0.621969 0.770220 0.785869 0.128679
H10   H     H_    0.377141 0.769668 0.213055 0.128716
H11   H     H_    0.121981 0.270188 0.785890 0.128696
H12   H     H_    0.877147 0.269634 0.213088 0.128717
H13   H     H_    0.674698 0.829408 0.736100 0.134975
H14   H     H_    0.324453 0.828987 0.262834 0.134748
H15   H     H_    0.174667 0.329385 0.736050 0.134974
H16   H     H_    0.824463 0.328965 0.262871 0.134740
H17   H     H_    0.695021 0.025201 0.883709 0.143984
H18   H     H_    0.305847 0.025374 0.117589 0.143881
H19   H     H_    0.195053 0.525158 0.883734 0.143981
H20   H     H_    0.805845 0.525343 0.117594 0.143874
H21   H     H_    0.643275 0.965627 0.934908 0.157680
H22   H     H_    0.357515 0.965671 0.066330 0.157849
H23   H     H_    0.143346 0.465576 0.934998 0.157648
H24   H     H_    0.857511 0.465631 0.066336 0.157838
H25   H     H_    0.808083 0.944602 0.907693 0.164167
H26   H     H_    0.191923 0.944431 0.092420 0.164122
H27   H     H_    0.308082 0.444527 0.907656 0.164147
H28   H     H_    0.691923 0.444379 0.092446 0.164105
H29   H     H_    0.796187 0.989066 0.598776 0.127945
H30   H     H_    0.203396 0.989083 0.400680 0.127887
H31   H     H_    0.296723 0.489056 0.599447 0.127869
H32   H     H_    0.703059 0.489052 0.400240 0.127829
H33   H     H_    0.848405 0.052217 0.550068 0.136964
H34   H     H_    0.151081 0.052332 0.449168 0.136904
H35   H     H_    0.349037 0.552363 0.550997 0.136868
H36   H     H_    0.650670 0.552363 0.448563 0.136837
O1    O     O_R   0.500010 0.938760 0.394210 -0.582898
O2    O     O_R   0.499990 0.938760 0.605790 -0.582988
O3    O     O_R   0.000010 0.438760 0.394210 -0.582880
O4    O     O_R   0.999990 0.438760 0.605790 -0.582959
O5    O     O_R   0.552180 0.999990 0.157990 -0.567547
O6    O     O_R   0.447820 0.999990 0.842010 -0.567620
O7    O     O_R   0.052180 0.499990 0.157990 -0.567601
O8    O     O_R   0.947820 0.499990 0.842010 -0.567742
O9    O     O_R   0.447790 0.000000 0.053610 -0.602955
O10   O     O_R   0.552210 0.000000 0.946390 -0.602850
O11   O     O_R   0.947790 0.500000 0.053610 -0.602939
O12   O     O_R   0.052210 0.500000 0.946390 -0.602815
O13   O     O_R   0.552190 0.894190 0.052180 -0.573283
O14   O     O_R   0.447810 0.894190 0.947820 -0.573353
O15   O     O_R   0.052190 0.394190 0.052180 -0.573343
O16   O     O_R   0.947810 0.394190 0.947820 -0.573509
O17   O     O_R   0.499990 0.061230 0.394210 -0.577311
O18   O     O_R   0.500010 0.061230 0.605790 -0.577275
O19   O     O_R   0.999990 0.561230 0.394210 -0.577317
O20   O     O_R   0.000010 0.561230 0.605790 -0.577279
O21   O     O_R   0.590180 0.938760 0.590180 -0.591019
O22   O     O_R   0.409820 0.938760 0.409820 -0.590677
O23   O     O_R   0.090180 0.438760 0.590180 -0.591016
O24   O     O_R   0.909820 0.438760 0.409820 -0.590669
O25   O     O_R   0.590160 0.061230 0.590180 -0.581290
O26   O     O_R   0.409840 0.061230 0.409820 -0.581382
O27   O     O_R   0.090160 0.561230 0.590180 -0.581298
O28   O     O_R   0.909840 0.561230 0.409820 -0.581386
O29   O     O_R   0.999970 0.105830 0.061210 -0.576381
O30   O     O_R   0.000030 0.105830 0.938790 -0.576466
O31   O     O_R   0.499970 0.605830 0.061210 -0.576366
O32   O     O_R   0.500030 0.605830 0.938790 -0.576427
O33   O     O_R   0.909810 0.000030 0.971060 -0.591346
O34   O     O_R   0.090190 0.000030 0.028940 -0.591306
O35   O     O_R   0.409810 0.500030 0.971060 -0.591351
O36   O     O_R   0.590190 0.500030 0.028940 -0.591315
O37   O     O_R   0.909820 1.000000 0.848600 -0.578186
O38   O     O_R   0.090180 0.000000 0.151400 -0.578236
O39   O     O_R   0.409820 0.500000 0.848600 -0.578233
O40   O     O_R   0.590180 0.500000 0.151400 -0.578266
O41   O     O_R   0.000000 0.894230 0.061260 -0.582139
O42   O     O_R   0.000000 0.894230 0.938740 -0.582118
O43   O     O_R   0.500000 0.394230 0.061260 -0.582159
O44   O     O_R   0.500000 0.394230 0.938740 -0.582147
O45   O     O_R   0.552180 0.105790 0.052210 -0.585560
O46   O     O_R   0.447820 0.105790 0.947790 -0.585511
O47   O     O_R   0.052180 0.605790 0.052210 -0.585548
O48   O     O_R   0.947820 0.605790 0.947790 -0.585498
C113  C     C_1   0.597702 0.829430 0.892078 0.217570
N1    N     N_1   0.572687 0.801554 0.914933 -0.282547
C114  C     C_1   0.402249 0.829100 0.108035 0.217432
N2    N     N_1   0.427257 0.801174 0.085194 -0.282602
C115  C     C_1   0.097800 0.329369 0.892222 0.217696
N3    N     N_1   0.072831 0.301478 0.915149 -0.282268
C116  C     C_1   0.902237 0.329054 0.108039 0.217496
N4    N     N_1   0.927236 0.301120 0.085185 -0.282468
C117  C     C_1   0.892941 0.252077 0.737023 0.216604
N5    N     N_1   0.913109 0.309858 0.765023 -0.268454
C118  C     C_1   0.107369 0.252455 0.263083 0.216518
N6    N     N_1   0.087361 0.310310 0.235221 -0.268315
C119  C     C_1   0.392447 0.752553 0.736808 0.216396
N7    N     N_1   0.412377 0.810438 0.764609 -0.268191
C120  C     C_1   0.607643 0.752711 0.263222 0.216383
N8    N     N_1   0.587763 0.810621 0.235475 -0.268193
C121  C     C_1   0.681309 0.068405 0.563467 0.244657
N9    N     N_1   0.653604 0.094694 0.488597 -0.272503
C122  C     C_1   0.318665 0.068521 0.436458 0.244774
N10   N     N_1   0.346359 0.094838 0.511305 -0.272511
C123  C     C_1   0.181326 0.568446 0.563501 0.244757
N11   N     N_1   0.153630 0.594747 0.488640 -0.272500
C124  C     C_1   0.818653 0.568566 0.436426 0.244831
N12   N     N_1   0.846341 0.594899 0.511264 -0.272510

loop_
_geom_bond_atom_site_label_1
_geom_bond_atom_site_label_2
_ccdc_geom_bond_type
C99   C103  A    
C81   C107  A    
C8    C66   S    
Cu10  O6    S    
C55   C59   T    
C68   O44   A    
C6    C110  A    
Cu10  O46   S    
C82   C92   A    
C35   C39   A    
C120  N8    T    
C24   C112  A    
C37   C117  S    
C73   O7    A    
C70   C88   S    
C76   C84   S    
C74   O8    A    
C45   O21   A    
Cu11  Cu12  S    
C36   H4    S    
C115  N3    T    
C15   C19   A    
Cu4   O28   S    
C101  H21   S    
C69   O46   A    
C123  N11   T    
C5    C109  A    
C31   H35   S    
C37   C41   A    
C32   C36   A    
C99   H19   S    
Cu7   O31   S    
C38   C42   A    
C64   O38   A    
Cu8   O32   S    
C13   C121  S    
Cu3   O25   S    
C19   C47   S    
C75   O13   A    
C4    O4    A    
C94   C98   A    
C70   O48   A    
Cu2   O23   S    
C80   C106  A    
C92   C96   A    
Cu8   O39   S    
C80   H10   S    
C79   C105  A    
C6    C64   S    
C122  N10   T    
C104  H24   S    
C36   C40   A    
C9    C13   A    
Cu12  O48   S    
C12   C52   S    
Cu1   O2    S    
Cu12  O8    S    
C3    C55   S    
C78   C83   T    
C75   C83   S    
C100  C104  A    
Cu1   O21   S    
C12   C16   A    
C29   C33   A    
C61   C77   S    
Cu11  O15   S    
C22   C110  A    
C64   O34   A    
C63   O33   A    
C9    C49   S    
C90   C94   A    
C7    C11   A    
C82   C108  A    
C8    C12   A    
C73   O11   A    
C59   C73   S    
C98   H18   S    
C74   O12   A    
Cu11  O12   S    
C69   C87   S    
C3    O3    A    
Cu11  O7    S    
C34   H2    S    
C44   C52   A    
Cu9   O10   S    
C65   O35   A    
C1    O1    A    
C65   O39   A    
C4    C56   S    
C68   O43   A    
C61   O29   A    
C22   C94   S    
C2    O2    A    
Cu6   O42   S    
C11   C15   A    
C4    O20   A    
Cu5   O41   S    
C108  C116  S    
C18   C46   S    
C41   C49   A    
C90   H14   S    
C27   C51   A    
Cu3   O17   S    
C81   H11   S    
C25   C29   A    
C79   H9    S    
Cu4   O27   S    
Cu9   O13   S    
C67   C85   S    
C101  C105  A    
C30   C34   A    
C40   C120  S    
C25   H29   S    
Cu7   O40   S    
C7    C111  A    
C20   C24   A    
C28   C32   A    
Cu7   O43   S    
C47   O23   A    
C2    C54   S    
C118  N6    T    
C48   O24   A    
Cu3   O26   S    
C53   C57   T    
C86   C87   T    
C34   C38   A    
C62   O32   A    
C77   C84   T    
C117  N5    T    
C98   C102  A    
C27   C31   A    
C89   C93   A    
C17   C21   A    
C3    O19   A    
Cu2   Cu4   S    
C72   O10   A    
C19   C23   A    
C116  N4    T    
C75   O14   A    
C119  N7    T    
C67   O41   A    
C7    C65   S    
C5    C63   S    
C58   C72   S    
Cu2   O4    S    
C114  N2    T    
C107  C115  S    
C82   H12   S    
C76   O16   A    
C109  H25   S    
C16   C20   A    
Cu10  O9    S    
C1    C53   S    
C24   C96   S    
C33   H1    S    
C113  N1    T    
Cu11  O47   S    
C42   H6    S    
Cu8   O36   S    
C57   C71   S    
C35   H3    S    
C97   H17   S    
Cu9   Cu10  S    
C20   C48   S    
Cu5   O29   S    
C43   H7    S    
C42   C50   A    
C91   H15   S    
C68   C86   S    
C71   O9    A    
C26   C30   A    
C89   H13   S    
Cu4   O20   S    
C100  H20   S    
C61   O30   A    
Cu8   O44   S    
C31   C35   A    
C26   H30   S    
C105  C113  S    
C47   O27   A    
C10   C50   S    
Cu1   O22   S    
C93   C97   A    
C104  C108  A    
Cu9   O5    S    
C33   C37   A    
C54   C58   T    
C85   C88   T    
C30   H34   S    
C2    O18   A    
C121  N9    T    
C18   C22   A    
C72   O6    A    
C14   C18   A    
C62   C78   S    
C76   O15   A    
C29   H33   S    
C15   C123  S    
C17   C45   S    
C110  H26   S    
C111  H27   S    
C112  H28   S    
C6    C10   A    
C66   O36   A    
Cu7   Cu8   S    
C48   O28   A    
C62   O31   A    
Cu12  O16   S    
C103  H23   S    
C44   H8    S    
C23   C111  A    
C16   C124  S    
C69   O45   A    
C13   C17   A    
C46   O22   A    
C26   C50   A    
C70   O47   A    
C14   C122  S    
C67   O42   A    
Cu10  O14   S    
Cu5   Cu6   S    
C102  H22   S    
C41   H5    S    
Cu6   O30   S    
Cu7   O35   S    
C45   O25   A    
Cu2   O3    S    
Cu12  O11   S    
C21   C93   S    
C43   C51   A    
Cu2   O24   S    
C106  C114  S    
C96   C100  A    
C60   C74   S    
C8    C112  A    
C23   C95   S    
C102  C106  A    
C95   C99   A    
C66   O40   A    
C11   C51   S    
C80   C90   A    
Cu6   O34   S    
C25   C49   A    
C79   C89   A    
Cu3   O18   S    
Cu5   O33   S    
Cu1   O1    S    
C81   C91   A    
C63   O37   A    
Cu9   O45   S    
C40   C44   A    
C56   C60   T    
C46   O26   A    
C91   C95   A    
C71   O5    A    
Cu4   O19   S    
C124  N12   T    
C28   H32   S    
C39   C119  S    
C103  C107  A    
C5    C9    A    
C28   C52   A    
Cu1   Cu3   S    
Cu6   O37   S    
C1    O17   A    
C39   C43   A    
C97   C101  A    
Cu5   O38   S    
C38   C118  S    
C10   C14   A    
C21   C109  A    
C32   H36   S    
C27   H31   S    
C92   H16   S    
