data_mof_unit_33047.cif
_audit_creation_date              2012-12-11T14:50:32-0500
_audit_creation_method            fapswitch 2.2
_symmetry_space_group_name_H-M    P1
_symmetry_Int_Tables_number       1
_space_group_crystal_system       triclinic
_cell_length_a                    10.935898
_cell_length_b                    10.844875
_cell_length_c                    18.764063
_cell_angle_alpha                 90.1946
_cell_angle_beta                  89.95715
_cell_angle_gamma                 60.256212
_cell_volume                      1932.18083924

loop_
_atom_site_label
_atom_site_type_symbol
_atom_type_description
_atom_site_fract_x
_atom_site_fract_y
_atom_site_fract_z
_atom_type_partial_charge
C1    C     C_R   0.230876 0.649363 0.607958 0.544347
C2    C     C_3   0.786376 0.501047 0.795098 -0.224537
C3    C     C_3   0.686783 0.658816 0.816842 0.074691
C4    C     C_3   0.645521 0.614607 0.684185 0.037695
C5    C     C_3   0.702655 0.719757 0.687886 -0.227342
C6    C     C_3   0.751234 0.473235 0.720448 -0.244805
C7    C     C_R   0.784659 0.138173 0.709418 -0.168154
C8    C     C_R   0.799379 0.126877 0.783254 -0.187028
C9    C     C_R   0.681185 0.170443 0.827226 0.035924
C10   C     C_R   0.545147 0.243007 0.797554 0.111843
C11   C     C_R   0.531095 0.258706 0.724365 -0.129575
C12   C     C_R   0.627191 0.585961 0.608848 0.556609
C13   C     C_R   0.649921 0.200637 0.679780 -0.006271
C14   C     C_R   0.138025 0.581327 0.713036 -0.160296
C15   C     C_R   0.101427 0.601744 0.784941 -0.165279
C16   C     C_R   0.093904 0.718346 0.821890 0.014552
C17   C     C_R   0.117891 0.816451 0.785811 -0.157856
C18   C     C_R   0.146395 0.800811 0.714058 -0.145820
C19   C     C_R   0.163501 0.679782 0.677687 0.027299
C20   C     C_R   0.689961 0.530462 0.270416 -0.141670
C21   C     C_R   0.697257 0.546771 0.198004 -0.134642
C22   C     C_R   0.658920 0.680487 0.170899 0.039228
C23   C     C_R   0.625236 0.232937 0.604393 0.541173
C24   C     C_R   0.608355 0.799216 0.216546 -0.140345
C25   C     C_R   0.602163 0.782392 0.289660 -0.156013
C26   C     C_R   0.647976 0.646737 0.316658 0.023893
C27   C     C_R   0.516861 0.230826 0.279677 -0.170886
C28   C     C_R   0.527185 0.217576 0.207072 -0.165199
C29   C     C_R   0.659356 0.156435 0.175891 -0.003342
C30   C     C_R   0.781625 0.111870 0.217524 -0.128827
C31   C     C_R   0.771931 0.125915 0.290835 0.100803
C32   C     C_R   0.638178 0.186768 0.321731 0.054625
C33   C     C_R   0.298036 0.697135 0.270947 -0.143067
C34   C     C_R   0.289727 0.619390 0.392684 0.567940
C35   C     C_R   0.266052 0.703933 0.198818 0.110083
C36   C     C_R   0.181836 0.646586 0.175528 0.044909
C37   C     C_R   0.159112 0.554461 0.219842 0.091149
C38   C     C_R   0.193904 0.548292 0.291594 -0.125024
C39   C     C_R   0.256942 0.624495 0.317567 -0.035270
C40   C     C_R   0.699807 0.106660 0.897506 0.559184
C41   C     C_R   0.719963 0.684214 0.889984 0.532892
C42   C     C_R   0.055208 0.742930 0.896939 0.558650
C43   C     C_R   0.676049 0.107040 0.103842 0.545442
C44   C     C_R   0.697282 0.691971 0.098528 0.539679
C45   C     C_R   0.641317 0.622175 0.391761 0.543787
C46   C     C_R   0.096414 0.706184 0.112000 0.569573
C47   C     C_R   0.616242 0.229535 0.394977 0.570516
C48   C     C_3   0.529856 0.697556 0.806933 -0.115721
C49   C     C_3   0.504719 0.677469 0.726830 -0.216836
C50   C     C_3   0.715326 0.754689 0.765968 -0.247141
Cr1   Cr    Cr6+3 0.392930 0.397900 0.502230 0.998623
Cr2   Cr    Cr6+3 0.398240 0.708600 0.501260 1.002945
Cr3   Cr    Cr6+3 0.708800 0.393470 0.496460 1.006753
Cr4   Cr    Cr6+3 0.937620 0.938540 0.007640 1.002601
Cr5   Cr    Cr6+3 0.625150 0.937450 0.994520 0.997899
Cr6   Cr    Cr6+3 0.937990 0.625080 0.001190 1.002438
H1    H     H_    0.460851 0.811705 0.820921 0.133282
H2    H     H_    0.851189 0.413412 0.689863 0.142549
H3    H     H_    0.821700 0.740525 0.775047 0.126681
H4    H     H_    0.807901 0.672172 0.661743 0.145727
H5    H     H_    0.877032 0.101127 0.675863 0.131521
H6    H     H_    0.902817 0.078772 0.806115 0.127113
H7    H     H_    0.425993 0.318259 0.702469 0.143008
H8    H     H_    0.150620 0.487343 0.685979 0.118619
H9    H     H_    0.082246 0.525116 0.811980 0.130274
H10   H     H_    0.119069 0.903593 0.813377 0.121820
H11   H     H_    0.165200 0.879349 0.688563 0.128667
H12   H     H_    0.717691 0.426417 0.290401 0.133557
H13   H     H_    0.736389 0.454645 0.163358 0.116049
H14   H     H_    0.580313 0.903209 0.196098 0.144762
H15   H     H_    0.565513 0.873314 0.324916 0.123414
H16   H     H_    0.412612 0.277855 0.302747 0.143461
H17   H     H_    0.433012 0.249343 0.175752 0.136772
H18   H     H_    0.885934 0.057254 0.194012 0.156886
H19   H     H_    0.353971 0.749048 0.290848 0.131860
H20   H     H_    0.458725 0.606567 0.720956 0.119589
H21   H     H_    0.171009 0.485159 0.327793 0.144117
H22   H     H_    0.427446 0.782219 0.704156 0.125135
H23   H     H_    0.638803 0.868721 0.776645 0.129510
H24   H     H_    0.631322 0.819727 0.659221 0.138573
H25   H     H_    0.897727 0.477013 0.795278 0.123382
H26   H     H_    0.779545 0.426835 0.833543 0.129430
H27   H     H_    0.702029 0.405974 0.724372 0.132099
O1    O     O_R   0.507430 0.255570 0.581420 -0.522648
O2    O     O_R   0.524460 0.695920 0.424060 -0.516644
O3    O     O_R   0.736530 0.504260 0.414810 -0.525506
O4    O     O_R   0.691460 0.277160 0.422180 -0.479295
O5    O     O_3   0.499990 0.499990 0.499980 -0.290306
O6    O     O_R   0.089490 0.825610 0.930610 -0.534727
O7    O     O_R   0.818370 0.054540 0.929880 -0.531895
O8    O     O_R   0.605870 0.077310 0.915530 -0.486322
O9    O     O_R   0.646440 0.806700 0.917570 -0.516002
O10   O     O_R   0.837200 0.593290 0.915250 -0.541286
O11   O     O_R   0.065330 0.635370 0.931590 -0.513177
O12   O     O_R   0.280190 0.527390 0.578910 -0.505433
O13   O     O_R   0.068300 0.828790 0.091860 -0.492606
O14   O     O_R   0.798730 0.057480 0.079370 -0.512816
O15   O     O_R   0.584680 0.080480 0.076790 -0.521325
O16   O     O_R   0.626790 0.809640 0.067050 -0.517006
O17   O     O_R   0.816010 0.596460 0.076500 -0.502577
O18   O     O_R   0.045680 0.638310 0.081070 -0.492376
O19   O     O_3   0.833590 0.833690 0.001120 -0.262770
O20   O     O_R   0.260310 0.739740 0.584580 -0.532188
O21   O     O_R   0.532250 0.695150 0.573830 -0.504463
O22   O     O_R   0.744930 0.503430 0.576380 -0.520798
O23   O     O_R   0.699250 0.276390 0.571950 -0.513262
O24   O     O_R   0.499020 0.256400 0.419850 -0.544912
O25   O     O_R   0.272400 0.528160 0.429140 -0.507215
O26   O     O_R   0.251910 0.740570 0.423020 -0.508989
N1    N     N_2   0.422634 0.300369 0.841482 -0.493588
H28   H     H_    0.366834 0.409727 0.840804 0.249672
C51   C     C_3   0.332996 0.238526 0.831060 -0.278362
H29   H     H_    0.250969 0.277708 0.873320 0.140834
H30   H     H_    0.280046 0.269090 0.778431 0.105855
H31   H     H_    0.395255 0.120833 0.834302 0.169505
C52   C     C_3   0.486801 0.612481 0.856379 -0.419482
H32   H     H_    0.372699 0.651284 0.851207 0.153269
H33   H     H_    0.544068 0.497951 0.842678 0.142392
H34   H     H_    0.507655 0.625928 0.912946 0.135067
N2    N     N_2   0.895790 0.064207 0.333496 -0.496776
H35   H     H_    0.954171 0.955489 0.326996 0.263059
C53   C     C_3   0.982486 0.130084 0.327700 -0.292191
H36   H     H_    0.024134 0.119305 0.272638 0.117823
H37   H     H_    0.073025 0.077181 0.364753 0.153291
H38   H     H_    0.921325 0.243925 0.342711 0.173976
N3    N     N_2   0.310611 0.776117 0.150860 -0.494561
H39   H     H_    0.352297 0.832788 0.174653 0.249380
C54   C     C_3   0.388902 0.695797 0.088544 -0.270099
H40   H     H_    0.418263 0.761821 0.055628 0.153189
H41   H     H_    0.325735 0.665805 0.054070 0.164056
H42   H     H_    0.484808 0.596956 0.104668 0.123752
N4    N     N_2   0.100773 0.471723 0.191533 -0.480124
H43   H     H_    0.151111 0.415552 0.146101 0.258249
C55   C     C_3   0.059228 0.393526 0.238738 -0.308872
H44   H     H_    0.153273 0.305870 0.264808 0.115662
H45   H     H_    0.006496 0.346313 0.207384 0.145087
H46   H     H_    0.983346 0.465749 0.279360 0.171824

loop_
_geom_bond_atom_site_label_1
_geom_bond_atom_site_label_2
_ccdc_geom_bond_type
Cr2   O20   S    
N3    H39   S    
C11   C13   A    
C6    H2    S    
C10   N1    S    
C35   C36   A    
C43   O15   A    
C50   H23   S    
C55   H46   S    
C51   H30   S    
C24   H14   S    
C7    C8    A    
C49   H22   S    
Cr6   O11   S    
Cr5   O19   S    
C17   H10   S    
C33   C39   A    
C50   H3    S    
C28   C29   A    
C37   C38   A    
Cr6   O18   S    
Cr4   O7    S    
C11   H7    S    
C30   C31   A    
C30   H18   S    
C44   O16   A    
C16   C17   A    
C15   C16   A    
C15   H9    S    
C3    C48   S    
C52   H32   S    
C13   C23   S    
C18   C19   A    
C54   H40   S    
N1    H28   S    
C7    H5    S    
Cr5   O8    S    
C26   C45   S    
Cr3   O23   S    
C33   H19   S    
C22   C44   S    
C52   H33   S    
C8    C9    A    
Cr1   O12   S    
C36   C37   A    
Cr4   O14   S    
C36   C46   S    
Cr3   O3    S    
C25   H15   S    
C4    C12   S    
C9    C10   A    
C1    O20   A    
Cr4   O13   S    
C48   C52   S    
Cr4   O19   S    
C21   C22   A    
C29   C43   S    
C2    C6    S    
C28   H17   S    
C51   H29   S    
C3    C50   S    
N2    C53   S    
Cr6   O10   S    
C46   O18   A    
C41   O10   A    
C1    C19   S    
C23   O1    A    
C34   C39   S    
Cr2   O5    S    
C38   C39   A    
C24   C25   A    
Cr4   O6    S    
C4    C6    S    
N4    H43   S    
C55   H45   S    
C18   H11   S    
C23   O23   A    
C9    C40   S    
C21   H13   S    
C47   O4    A    
C35   N3    S    
C45   O2    A    
C29   C30   A    
C31   C32   A    
C1    O12   A    
C14   H8    S    
C17   C18   A    
C49   H20   S    
Cr3   O4    S    
C5    H24   S    
Cr1   O24   S    
C48   C49   S    
Cr5   O9    S    
Cr1   O25   S    
C47   O24   A    
C32   C47   S    
C22   C24   A    
C5    C50   S    
C2    H26   S    
C48   H1    S    
Cr6   O17   S    
C53   H37   S    
C54   H42   S    
C16   C42   S    
N2    H35   S    
Cr2   O2    S    
N3    C54   S    
C6    H27   S    
C5    H4    S    
C27   C32   A    
C42   O11   A    
C14   C19   A    
C20   H12   S    
C43   O14   A    
C4    C5    S    
C54   H41   S    
Cr1   O5    S    
C37   N4    S    
C12   O21   A    
C55   H44   S    
C38   H21   S    
C52   H34   S    
C4    C49   S    
C42   O6    A    
C34   O25   A    
C53   H38   S    
C45   O3    A    
C25   C26   A    
Cr6   O19   S    
C44   O17   A    
C12   O22   A    
C20   C26   A    
Cr2   O26   S    
Cr5   O15   S    
C33   C35   A    
Cr2   O21   S    
C2    C3    S    
Cr3   O5    S    
C40   O8    A    
N1    C51   S    
C31   N2    S    
C3    C41   S    
C10   C11   A    
Cr3   O22   S    
C7    C13   A    
C41   O9    A    
C46   O13   A    
C20   C21   A    
N4    C55   S    
Cr5   O16   S    
C27   C28   A    
C34   O26   A    
C14   C15   A    
C2    H25   S    
C40   O7    A    
C53   H36   S    
Cr1   O1    S    
C51   H31   S    
C27   H16   S    
C8    H6    S    
