data_mof_unit_38031.cif
_audit_creation_date              2013-03-05T16:19:06-0500
_audit_creation_method            fapswitch 2.2
_symmetry_space_group_name_H-M    P1
_symmetry_Int_Tables_number       1
_space_group_crystal_system       triclinic
_cell_length_a                    10.634829
_cell_length_b                    9.676701
_cell_length_c                    18.980071
_cell_angle_alpha                 90.029204
_cell_angle_beta                  89.914608
_cell_angle_gamma                 89.886619
_cell_volume                      1953.23400305

loop_
_atom_site_label
_atom_site_type_symbol
_atom_site_description
_atom_site_fract_x
_atom_site_fract_y
_atom_site_fract_z
_atom_type_partial_charge
O1    O     O_R   0.314910 0.616040 0.499990 -0.609804
O2    O     O_R   0.314910 0.383960 0.499990 -0.635764
C1    C     C_R   0.257607 0.500056 0.501586 0.960875
O3    O     O_R   0.500100 0.616080 0.398110 -0.627456
O4    O     O_R   0.500100 0.383920 0.398110 -0.627568
C2    C     C_R   0.496159 0.499990 0.364958 0.885855
Zn1   Zn    Zn3+2 0.500150 0.654960 0.499970 0.948139
Zn2   Zn    Zn3+2 0.500150 0.345040 0.499970 0.942257
O5    O     O_R   0.685320 0.616040 0.499960 -0.620432
O6    O     O_R   0.685320 0.383960 0.499960 -0.620004
O7    O     O_R   0.500130 0.616000 0.601840 -0.616154
O8    O     O_R   0.500130 0.384000 0.601840 -0.620514
C3    C     C_R   0.741744 0.499721 0.506479 0.994282
C4    C     C_R   0.497170 0.500025 0.635059 0.941931
C5    C     C_R   0.452704 0.625522 0.254022 -0.207351
C6    C     C_R   0.452253 0.374753 0.253967 -0.194917
H1    H     H_    0.464516 0.723642 0.280671 0.146976
H2    H     H_    0.463726 0.276545 0.280573 0.145018
C7    C     C_R   0.417683 0.625686 0.183642 -0.175073
C8    C     C_R   0.417256 0.374891 0.183577 -0.176781
H3    H     H_    0.406044 0.724038 0.157235 0.152301
H4    H     H_    0.405279 0.276643 0.157115 0.151830
C9    C     C_R   0.400944 0.500361 0.147671 0.084360
C10   C     C_R   0.470838 0.500058 0.289515 -0.021887
N1    N     N_R   0.378630 0.379771 0.035266 -0.174329
N2    N     N_R   0.379036 0.621192 0.035344 -0.174467
N3    N     N_R   0.381032 0.379781 0.965369 -0.169794
N4    N     N_R   0.381439 0.621206 0.965448 -0.169897
C11   C     C_R   0.385223 0.500487 0.929251 0.306387
C12   C     C_R   0.380202 0.500466 0.071529 0.288993
C13   C     C_R   0.425992 0.625747 0.817458 -0.140011
C14   C     C_R   0.425520 0.374928 0.817385 -0.135343
H5    H     H_    0.414780 0.724089 0.844004 0.155531
H6    H     H_    0.413932 0.276678 0.843870 0.155349
C15   C     C_R   0.459266 0.625597 0.746745 -0.151550
C16   C     C_R   0.458800 0.374802 0.746675 -0.153998
H7    H     H_    0.470530 0.723708 0.720038 0.154832
H8    H     H_    0.469678 0.276592 0.719916 0.153744
C17   C     C_R   0.475495 0.500130 0.710886 -0.021708
C18   C     C_R   0.409022 0.500405 0.853354 0.079824
C19   C     C_3   0.075133 0.605040 0.559574 -0.511490
C20   C     C_3   0.072785 0.353585 0.523546 -0.534114
H9    H     H_    0.117001 0.709217 0.551570 0.194282
H10   H     H_    0.094370 0.278938 0.480485 0.192400
H11   H     H_    0.109196 0.568137 0.611561 0.236717
H12   H     H_    0.124660 0.314123 0.570131 0.227882
C21   C     C_3   0.930542 0.618999 0.556397 0.174822
C22   C     C_3   0.929861 0.356105 0.535603 0.157107
H13   H     H_    0.909664 0.718675 0.529570 0.108927
H14   H     H_    0.890694 0.271413 0.502508 0.098503
H15   H     H_    0.868606 0.605552 0.406720 0.167702
H16   H     H_    0.898135 0.428338 0.400936 0.185219
C23   C     C_3   0.070054 0.542430 0.428074 1.025003
C24   C     C_3   0.120816 0.500495 0.502623 -0.046712
C25   C     C_3   0.878154 0.499078 0.509297 -0.149598
C26   C     C_3   0.923575 0.521997 0.431920 -0.671760
C27   C     C_3   0.399004 0.081575 0.452665 -0.239381
C28   C     C_3   0.398850 0.918718 0.452766 -0.227254
H17   H     H_    0.411290 0.119877 0.397859 0.150002
H18   H     H_    0.410728 0.879931 0.397991 0.152332
H19   H     H_    0.305729 0.119873 0.470720 0.157493
H20   H     H_    0.305610 0.881113 0.471044 0.182615
H21   H     H_    0.640140 0.120101 0.418348 0.137807
H22   H     H_    0.639670 0.879410 0.418111 0.136584
C29   C     C_3   0.620913 0.081018 0.472405 -0.235323
C30   C     C_3   0.620854 0.918342 0.472281 -0.238389
C31   C     C_3   0.479107 0.081370 0.570232 -0.230686
C32   C     C_3   0.479313 0.918843 0.570249 -0.235264
N5    N     N_3   0.499750 0.138610 0.498490 -0.037383
N6    N     N_3   0.499750 0.861390 0.498490 -0.040428
H23   H     H_    0.553737 0.119190 0.606376 0.190636
H24   H     H_    0.554222 0.881004 0.606279 0.191112
H25   H     H_    0.388250 0.120224 0.591698 0.145008
H26   H     H_    0.388660 0.880167 0.591860 0.143247
H27   H     H_    0.699265 0.118040 0.506128 0.175587
H28   H     H_    0.699484 0.880585 0.505740 0.171705
N7    N     N_R   0.871494 0.626460 0.626835 0.238894
O9    O     O_R   0.760205 0.680993 0.633107 -0.408264
O10   O     O_R   0.935683 0.604963 0.684148 -0.322564
N8    N     N_R   0.894201 0.327063 0.609422 0.243834
O11   O     O_R   0.778685 0.294233 0.624399 -0.392563
O12   O     O_R   0.977097 0.322499 0.659788 -0.348570
O13   O     O_3   0.116697 0.679761 0.414875 -0.625215
C33   C     C_3   0.034081 0.773938 0.381932 -0.428972
H29   H     H_    0.962767 0.812659 0.419847 0.169181
H30   H     H_    0.989536 0.730915 0.333957 0.166750
H31   H     H_    0.089671 0.864843 0.364854 0.200466
O14   O     O_3   0.123569 0.446922 0.378992 -0.656081
C34   C     C_3   0.106984 0.487141 0.308185 -0.289794
H32   H     H_    0.164566 0.579515 0.295496 0.211423
H33   H     H_    0.006331 0.503955 0.295173 0.143507
H34   H     H_    0.141294 0.402169 0.273899 0.189377

loop_
_geom_bond_atom_site_label_1
_geom_bond_atom_site_label_2
_geom_bond_distance
_ccdc_geom_bond_type
C28   H20   1.112004 S    
C22   C25   1.569804 S    
C25   C26   1.561431 S    
H21   C29   1.112472 S    
N3    C11   1.355430 A    
C7    C9    1.403176 A    
C33   H31   1.109124 S    
Zn1   N6    1.997770 S    
C21   H13   1.113053 S    
N7    O9    1.300178 A    
C5    C7    1.387307 A    
Zn2   N5    1.997759 S    
C14   C16   1.387439 A    
C6    C8    1.387405 A    
C7    H3    1.082825 S    
C33   H30   1.108401 S    
O4    C2    1.288337 A    
O7    C4    1.287931 A    
C27   H17   1.112074 S    
C28   H18   1.112060 S    
C13   C18   1.403298 A    
Zn1   O5    2.004208 S    
H15   C26   1.106159 S    
C20   H12   1.110377 S    
O5    C3    1.280626 A    
C4    C17   1.457211 S    
C13   H5    1.082842 S    
C31   H25   1.112749 S    
C34   H33   1.110595 S    
C32   H24   1.112242 S    
C22   H14   1.114152 S    
C30   H28   1.112044 S    
C6    C10   1.401800 A    
C19   H9    1.113248 S    
C20   H10   1.113832 S    
O3    Zn1   1.969391 S    
Zn1   O7    1.970102 S    
N7    O10   1.301724 A    
C31   C32   1.572724 S    
C9    C12   1.462234 S    
C33   H29   1.109242 S    
N8    O12   1.302072 A    
C28   N6    1.487697 S    
C23   C24   1.568483 S    
C31   N5    1.486437 S    
H22   C30   1.112548 S    
C15   C17   1.401799 A    
O13   C33   1.411545 S    
C8    C9    1.403225 A    
Zn2   O8    1.969725 S    
C2    C10   1.457415 S    
C19   C21   1.544616 S    
C6    H2    1.083174 S    
C20   C22   1.536903 S    
C34   H34   1.109169 S    
O3    C2    1.288096 A    
C5    C10   1.401882 A    
O8    C4    1.287690 A    
N2    C12   1.355511 A    
C13   C15   1.387494 A    
C21   N7    1.477869 S    
C21   C25   1.568179 S    
C23   C26   1.572252 S    
N1    C12   1.355491 A    
C5    H1    1.083186 S    
N4    C11   1.355410 A    
C15   H7    1.083230 S    
O1    Zn1   2.006405 S    
C16   C17   1.401811 A    
O2    Zn2   2.004941 S    
C8    H4    1.082822 S    
N8    O11   1.300577 A    
O6    C3    1.277866 A    
O4    Zn2   1.969767 S    
C27   H19   1.111827 S    
N1    N3    1.326843 A    
N2    N4    1.326841 A    
C29   H27   1.111258 S    
C23   O13   1.441324 S    
C27   N5    1.487834 S    
C22   N8    1.478207 S    
C16   H8    1.083228 S    
O2    C1    1.277329 A    
C20   C24   1.562825 S    
C27   C28   1.575929 S    
C30   N6    1.486978 S    
C29   N5    1.486962 S    
C11   C18   1.462212 S    
C1    C24   1.454856 S    
C23   O14   1.428765 S    
C31   H23   1.112193 S    
C14   C18   1.403259 A    
C19   C24   1.556692 S    
O14   C34   1.410557 S    
Zn2   O6    2.005672 S    
C29   C30   1.574163 S    
C32   N6    1.486348 S    
C19   H11   1.110518 S    
O1    C1    1.278529 A    
C34   H32   1.110835 S    
C32   H26   1.112732 S    
H16   C26   1.114140 S    
C14   H6    1.082844 S    
C3    C25   1.451763 S    
