data_mof_unit_34986.cif
_audit_creation_date              2012-12-10T17:14:45-0500
_audit_creation_method            fapswitch 2.2
_symmetry_space_group_name_H-M    P1
_symmetry_Int_Tables_number       1
_space_group_crystal_system       triclinic
_cell_length_a                    10.649794
_cell_length_b                    13.015192
_cell_length_c                    11.683523
_cell_angle_alpha                 99.915885
_cell_angle_beta                  93.408939
_cell_angle_gamma                 89.847874
_cell_volume                      1592.38085435

loop_
_atom_site_label
_atom_site_type_symbol
_atom_type_description
_atom_site_fract_x
_atom_site_fract_y
_atom_site_fract_z
_atom_type_partial_charge
C1    C     C_R   0.502288 0.299605 0.478713 0.860050
C2    C     C_R   0.499847 0.700864 0.521527 0.856812
C3    C     C_R   0.443266 0.132948 0.533644 -0.075182
C4    C     C_R   0.568392 0.866187 0.463035 -0.047322
C5    C     C_R   0.477711 0.031297 0.549690 0.110342
C6    C     C_R   0.566485 0.976414 0.477010 0.086257
C7    C     C_R   0.373496 0.407490 0.024142 -0.103817
C8    C     C_R   0.627290 0.591550 0.975680 -0.108964
C9    C     C_R   0.389732 0.414898 0.145870 0.010888
C10   C     C_R   0.610390 0.584937 0.854135 0.004279
C11   C     C_R   0.552877 0.539538 0.156784 0.098111
C12   C     C_R   0.447844 0.459663 0.842975 0.101249
C13   C     C_R   0.546511 0.532838 0.033679 0.013177
C14   C     C_R   0.454128 0.466313 0.966097 0.012888
C15   C     C_R   0.259601 0.500385 0.500670 0.917253
C16   C     C_R   0.740366 0.502124 0.499631 0.935976
C17   C     C_3   0.047850 0.501286 0.610886 -0.347218
C18   C     C_3   0.952054 0.503568 0.389721 -0.347233
C19   C     C_3   0.960263 0.418249 0.536366 0.477803
C20   C     C_3   0.039909 0.586392 0.464211 0.466353
C21   C     C_3   0.876443 0.503540 0.498817 -0.114031
C22   C     C_3   0.123526 0.500902 0.501650 -0.117446
C23   C     C_3   0.963439 0.587502 0.571426 -0.106531
C24   C     C_3   0.036264 0.417205 0.428912 -0.092179
C25   C     C_R   0.497429 0.815097 0.535391 -0.129555
C26   C     C_R   0.518953 0.187236 0.469027 -0.141195
C27   C     C_R   0.648609 0.033454 0.418997 -0.071154
C28   C     C_R   0.425380 0.982661 0.635871 -0.025316
C29   C     C_R   0.620622 0.137483 0.409763 -0.079387
C30   C     C_R   0.428196 0.873428 0.624024 -0.095331
Cu1   Cu    Cu3+1 0.509400 0.507730 0.615930 1.009325
Cu2   Cu    Cu3+1 0.490600 0.492270 0.384070 1.009232
H1    H     H_    0.087783 0.499037 0.700392 0.208720
H2    H     H_    0.912000 0.505943 0.300280 0.208115
H3    H     H_    0.384242 0.406170 0.787354 0.174479
H4    H     H_    0.617292 0.592356 0.212139 0.176397
H5    H     H_    0.670255 0.630113 0.809381 0.125070
H6    H     H_    0.329761 0.369865 0.190687 0.128703
N1    N     N_R   0.523540 0.519360 0.790140 -0.197914
N2    N     N_R   0.476460 0.480640 0.209860 -0.199694
O1    O     O_R   0.506670 0.354460 0.582000 -0.594730
O2    O     O_R   0.493330 0.645540 0.418000 -0.602461
O3    O     O_R   0.490800 0.341410 0.386200 -0.565136
O4    O     O_R   0.509200 0.658590 0.613800 -0.571244
O5    O     O_R   0.324790 0.506500 0.597880 -0.584312
O6    O     O_R   0.675210 0.493500 0.402120 -0.578595
O7    O     O_R   0.308910 0.493440 0.402080 -0.580607
O8    O     O_R   0.691090 0.506560 0.597920 -0.581048
O9    O     O_3   0.914906 0.329832 0.574104 -0.656099
H7    H     H_    0.990738 0.290638 0.593946 0.362301
O10   O     O_3   0.086308 0.674930 0.427469 -0.656807
H8    H     H_    0.010901 0.713224 0.404659 0.363076
C31   C     C_2   0.921113 0.683293 0.649166 0.430230
H9    H     H_    0.952233 0.697841 0.740620 0.082535
O11   O     O_2   0.851743 0.745236 0.610014 -0.548678
C32   C     C_2   0.075666 0.322342 0.347963 0.411923
H10   H     H_    0.041586 0.309704 0.257271 0.081376
O12   O     O_2   0.145560 0.258888 0.383367 -0.556484
C33   C     C_2   0.634131 0.802969 0.366142 0.450510
H11   H     H_    0.693619 0.738523 0.382409 0.097905
O13   O     O_2   0.619140 0.820933 0.267047 -0.565352
C34   C     C_2   0.318163 0.177091 0.567283 0.498968
H12   H     H_    0.304723 0.260448 0.590823 0.075116
O14   O     O_2   0.226439 0.120175 0.563463 -0.497130
C35   C     C_2   0.353510 0.821249 0.701657 0.410353
H13   H     H_    0.361017 0.847539 0.795112 0.042905
O15   O     O_2   0.279902 0.750720 0.661148 -0.503314
C36   C     C_2   0.699307 0.192398 0.337783 0.398842
H14   H     H_    0.724875 0.152845 0.252981 0.049152
O16   O     O_2   0.739835 0.280135 0.373571 -0.514984
C37   C     C_2   0.775776 0.993191 0.388053 0.468464
H15   H     H_    0.817357 0.009091 0.310418 0.061521
O17   O     O_2   0.837421 0.944871 0.452325 -0.487488
C38   C     C_2   0.376929 0.045543 0.743183 0.393695
H16   H     H_    0.298835 0.017568 0.785109 0.081540
O18   O     O_2   0.426472 0.128612 0.787368 -0.552485
C39   C     C_2   0.269635 0.338849 0.964669 0.387658
H17   H     H_    0.241837 0.271727 0.001275 0.084771
O19   O     O_2   0.208840 0.359332 0.879722 -0.553206
C40   C     C_2   0.732244 0.658952 0.035014 0.396672
H18   H     H_    0.760261 0.726468 0.999228 0.080477
O20   O     O_2   0.793731 0.636874 0.118797 -0.551840

loop_
_geom_bond_atom_site_label_1
_geom_bond_atom_site_label_2
_ccdc_geom_bond_type
C2    O4    A    
C16   C21   S    
C27   C29   A    
C18   C21   S    
C15   O7    A    
C28   C38   S    
C16   O8    A    
C4    C25   A    
C15   C22   S    
C31   H9    S    
C17   C23   S    
C38   O18   D    
C10   H5    S    
C18   C24   S    
C11   H4    S    
C19   C21   S    
C20   O10   S    
C5    C6    A    
C8    C10   A    
C5    C28   A    
C32   H10   S    
C34   O14   D    
C1    O3    A    
C7    C14   A    
C6    C27   A    
C32   O12   D    
C36   H14   S    
C35   O15   D    
C7    C39   S    
C39   O19   D    
C33   H11   S    
C13   C14   A    
C17   H1    S    
C23   C31   S    
C31   O11   D    
C33   O13   D    
Cu1   O4    S    
O10   H8    S    
C40   O20   D    
C38   H16   S    
C16   O6    A    
C37   O17   D    
C39   H17   S    
C9    N2    A    
C10   N1    A    
C34   H12   S    
C29   C36   S    
C19   O9    S    
Cu1   Cu2   S    
C20   C23   S    
C12   H3    S    
C18   H2    S    
C1    O1    A    
C12   C14   A    
C35   H13   S    
Cu1   O8    S    
C21   C23   S    
C1    C26   S    
Cu2   O7    S    
C22   C24   S    
C4    C6    A    
C15   O5    A    
C27   C37   S    
C3    C34   S    
C25   C30   A    
C7    C9    A    
Cu1   O1    S    
Cu2   O6    S    
C3    C26   A    
C20   C22   S    
C40   H18   S    
C3    C5    A    
C24   C32   S    
C17   C22   S    
C12   N1    A    
C28   C30   A    
C19   C24   S    
C37   H15   S    
C11   C13   A    
C2    O2    A    
C4    C33   S    
C9    H6    S    
C17   C19   S    
Cu2   O3    S    
Cu1   N1    S    
C2    C25   S    
C18   C20   S    
Cu2   N2    S    
C11   N2    A    
C30   C35   S    
C8    C13   A    
C26   C29   A    
C36   O16   D    
O9    H7    S    
Cu1   O5    S    
C8    C40   S    
Cu2   O2    S    
