data_mof_unit_12729.cif
_audit_creation_date              2012-12-11T14:46:15-0500
_audit_creation_method            fapswitch 2.2
_symmetry_space_group_name_H-M    P1
_symmetry_Int_Tables_number       1
_space_group_crystal_system       triclinic
_cell_length_a                    10.942265
_cell_length_b                    10.891039
_cell_length_c                    18.828596
_cell_angle_alpha                 89.752268
_cell_angle_beta                  90.188259
_cell_angle_gamma                 119.769308
_cell_volume                      1947.71564979

loop_
_atom_site_label
_atom_site_type_symbol
_atom_type_description
_atom_site_fract_x
_atom_site_fract_y
_atom_site_fract_z
_atom_type_partial_charge
C1    C     C_R   0.865049 0.637350 0.603639 0.556550
C2    C     C_R   0.961310 0.168043 0.710699 -0.000469
C3    C     C_R   0.960728 0.180096 0.785759 -0.007887
C4    C     C_R   0.269245 0.631908 0.604089 0.564595
C5    C     C_R   0.714233 0.106587 0.706238 0.031465
C6    C     C_R   0.722919 0.145539 0.777901 0.002259
C7    C     C_R   0.582412 0.050167 0.670187 0.061219
C8    C     C_R   0.475163 0.067864 0.699779 -0.145828
C9    C     C_R   0.494062 0.131658 0.765623 -0.151267
C10   C     C_R   0.616118 0.170166 0.804447 -0.082113
C11   C     C_R   0.841218 0.145910 0.670531 0.010065
C12   C     C_R   0.424229 0.627467 0.777604 -0.118147
C13   C     C_R   0.727495 0.534551 0.713700 -0.140921
C14   C     C_R   0.718148 0.545804 0.786817 -0.159208
C15   C     C_R   0.803040 0.675955 0.819609 0.026880
C16   C     C_R   0.861300 0.221811 0.601758 0.579499
C17   C     C_R   0.887839 0.796698 0.778384 -0.128229
C18   C     C_R   0.895281 0.786163 0.706029 -0.128135
C19   C     C_R   0.820873 0.654257 0.673666 0.035522
C20   C     C_R   0.402391 0.600540 0.302190 -0.118971
C21   C     C_R   0.419859 0.599308 0.229667 0.040727
C22   C     C_R   0.427319 0.713335 0.188038 -0.007125
C23   C     C_R   0.401353 0.617325 0.705450 -0.105013
C24   C     C_R   0.404276 0.815601 0.221596 -0.155330
C25   C     C_R   0.364282 0.800045 0.292867 -0.142582
C26   C     C_R   0.358199 0.688334 0.332530 0.004582
C27   C     C_R   0.722550 0.146277 0.288363 -0.142626
C28   C     C_R   0.866199 0.637948 0.397162 0.554155
C29   C     C_R   0.718325 0.139220 0.215888 -0.137958
C30   C     C_R   0.831691 0.146786 0.177440 0.023329
C31   C     C_R   0.952839 0.167882 0.213176 -0.133747
C32   C     C_R   0.960357 0.183216 0.286786 -0.126609
C33   C     C_R   0.845315 0.174496 0.324364 0.020633
C34   C     C_R   0.319771 0.669790 0.675899 0.042389
C35   C     C_R   0.870717 0.782743 0.296448 -0.139337
C36   C     C_R   0.860633 0.795208 0.224113 -0.131411
C37   C     C_R   0.807262 0.675359 0.180312 0.047127
C38   C     C_R   0.757854 0.541334 0.209381 -0.105926
C39   C     C_R   0.765412 0.528144 0.282272 -0.126308
C40   C     C_R   0.277879 0.638103 0.398473 0.561820
C41   C     C_R   0.825776 0.649607 0.325586 0.026670
C42   C     C_R   0.806920 0.104968 0.894690 0.535559
C43   C     C_R   0.399326 0.702367 0.895433 0.550786
C44   C     C_R   0.794065 0.696381 0.894986 0.545537
C45   C     C_R   0.837704 0.159254 0.820236 -0.033556
C46   C     C_R   0.805619 0.104041 0.103496 0.538195
C47   C     C_R   0.457928 0.726052 0.111366 0.561998
C48   C     C_R   0.796604 0.696471 0.105488 0.545843
C49   C     C_R   0.862196 0.228525 0.396043 0.557577
C50   C     C_R   0.265640 0.737584 0.718680 -0.137927
C51   C     C_R   0.291477 0.750580 0.791185 -0.132968
C52   C     C_R   0.367125 0.691416 0.820786 0.038153
C53   C     C_2   0.552391 0.970517 0.602576 0.241121
C54   C     C_2   0.404410 0.463234 0.202928 0.578743
C55   C     C_R   0.086176 0.221463 0.824163 -0.087672
C56   C     C_R   0.207525 0.242476 0.789805 -0.123970
C57   C     C_R   0.204822 0.217742 0.717269 -0.133109
C58   C     C_R   0.082701 0.179104 0.678111 -0.082425
Cr1   Cr    Cr6+3 0.791660 0.390250 0.499930 1.019534
Cr2   Cr    Cr6+3 0.098520 0.708290 0.500540 1.008060
Cr3   Cr    Cr6+3 0.109770 0.401430 0.499480 1.024609
Cr4   Cr    Cr6+3 0.874790 0.925890 0.000070 1.011306
Cr5   Cr    Cr6+3 0.574120 0.948670 0.999300 1.017445
Cr6   Cr    Cr6+3 0.551420 0.625320 0.000920 1.052148
H1    H     H_    0.199086 0.775782 0.696610 0.135712
H2    H     H_    0.249482 0.802311 0.824062 0.123315
H3    H     H_    0.331920 0.870515 0.315691 0.132674
H4    H     H_    0.631974 0.138835 0.315585 0.134767
H5    H     H_    0.622545 0.122827 0.190457 0.137355
H6    H     H_    0.039726 0.170786 0.184423 0.155373
H7    H     H_    0.056816 0.206114 0.313860 0.170695
H8    H     H_    0.917913 0.876909 0.329134 0.129865
H9    H     H_    0.895969 0.899078 0.201983 0.138897
H10   H     H_    0.715957 0.448417 0.175928 0.145037
H11   H     H_    0.732140 0.424129 0.304096 0.142845
H12   H     H_    0.376610 0.032312 0.671821 0.087670
H13   H     H_    0.486442 0.584542 0.799853 0.138901
H14   H     H_    0.442623 0.563920 0.673277 0.136033
H15   H     H_    0.303655 0.277642 0.819808 0.105756
H16   H     H_    0.298033 0.229823 0.691031 0.103699
H17   H     H_    0.093121 0.243783 0.880428 0.133902
H18   H     H_    0.083592 0.154839 0.622573 0.133447
H19   H     H_    0.627414 0.223160 0.854480 0.138165
H20   H     H_    0.462791 0.953195 0.570402 0.105214
H21   H     H_    0.305017 0.250550 0.213827 0.324356
H22   H     H_    0.412107 0.147365 0.787790 0.107225
H23   H     H_    0.668332 0.431243 0.689409 0.142649
H24   H     H_    0.647527 0.453624 0.817704 0.109962
H25   H     H_    0.949454 0.900352 0.801983 0.154297
H26   H     H_    0.966320 0.879734 0.676082 0.134936
H27   H     H_    0.403887 0.517646 0.333743 0.167982
H28   H     H_    0.406672 0.901693 0.191569 0.135252
O1    O     O_R   0.766500 0.250040 0.579790 -0.513180
O2    O     O_R   0.413330 0.603360 0.920440 -0.527796
O3    O     O_R   0.676110 0.626250 0.926750 -0.512018
O4    O     O_R   0.798570 0.516780 0.574780 -0.507062
O5    O     O_R   0.895350 0.809870 0.080950 -0.526196
O6    O     O_R   0.872490 0.049760 0.073800 -0.509961
O7    O     O_R   0.691680 0.088070 0.079070 -0.532527
O8    O     O_R   0.451720 0.825250 0.074050 -0.508337
O9    O     O_R   0.413580 0.606370 0.080960 -0.465620
O10   O     O_R   0.676340 0.629040 0.075550 -0.463225
O11   O     O_3   0.666780 0.833290 0.000090 -0.275851
O12   O     O_R   0.218690 0.701900 0.425960 -0.500880
O13   O     O_R   0.984000 0.732950 0.581090 -0.531988
O14   O     O_R   0.218600 0.700890 0.574760 -0.525766
O15   O     O_R   0.249390 0.515350 0.579940 -0.516090
O16   O     O_R   0.982790 0.280900 0.573700 -0.512948
O17   O     O_R   0.766600 0.251130 0.419260 -0.526575
O18   O     O_R   0.798660 0.517790 0.425980 -0.508354
O19   O     O_R   0.984100 0.734040 0.420570 -0.515110
O20   O     O_2   0.624598 0.920255 0.583132 -0.526081
O21   O     O_2   0.479701 0.459879 0.156585 -0.503476
O22   O     O_R   0.304891 0.336202 0.234655 -0.741824
O23   O     O_R   0.249490 0.516440 0.419420 -0.518698
O24   O     O_R   0.982880 0.281910 0.424890 -0.503190
O25   O     O_3   0.999980 0.499990 0.499980 -0.246938
O26   O     O_R   0.895110 0.806860 0.920430 -0.521605
O27   O     O_R   0.872260 0.046970 0.925000 -0.503366
O28   O     O_R   0.691430 0.085060 0.918550 -0.519648
O29   O     O_R   0.451490 0.822460 0.925250 -0.490999

loop_
_geom_bond_atom_site_label_1
_geom_bond_atom_site_label_2
_ccdc_geom_bond_type
Cr6   O11   S    
C46   O7    A    
C47   O9    A    
C6    C45   A    
C27   C29   A    
C28   C41   S    
C35   C36   A    
C25   H3    S    
C55   C56   A    
C26   C40   S    
Cr1   O18   S    
C7    C8    A    
C39   C41   A    
C27   C33   A    
Cr6   O10   S    
C48   O5    A    
C12   C23   A    
C16   O1    A    
C29   C30   A    
C56   H15   S    
C53   H20   S    
H21   O22   S    
C37   C38   A    
C15   C44   S    
C5    C11   A    
C58   H18   S    
C30   C31   A    
C42   O27   A    
C40   O23   A    
C33   C49   S    
C54   O21   D    
C10   H19   S    
C8    H12   S    
C43   O2    A    
C56   C57   A    
C18   C19   A    
Cr3   O16   S    
Cr5   O7    S    
C27   H4    S    
C13   C14   A    
C12   C52   A    
Cr4   O6    S    
C3    C55   A    
C31   H6    S    
C4    O15   A    
C8    C9    A    
Cr3   O23   S    
C39   H11   S    
C55   H17   S    
C9    C10   A    
C43   O29   A    
C22   C47   S    
C46   O6    A    
Cr1   O25   S    
C21   C22   A    
C57   H16   S    
C35   C41   A    
C2    C11   A    
C24   H28   S    
Cr5   O29   S    
C50   C51   A    
C32   H7    S    
C29   H5    S    
C28   O19   A    
Cr6   O9    S    
C20   H27   S    
C4    C34   S    
C34   C50   A    
C1    C19   S    
C13   C19   A    
Cr3   O25   S    
C51   C52   A    
C18   H26   S    
C17   H25   S    
C24   C25   A    
Cr5   O11   S    
C5    C7    A    
C28   O18   A    
C25   C26   A    
C4    O14   A    
C3    C45   A    
C47   O8    A    
C42   C45   S    
C38   C39   A    
Cr5   O8    S    
C9    H22   S    
C40   O12   A    
Cr4   O5    S    
C11   C16   S    
C31   C32   A    
C44   O26   A    
C23   C34   A    
C48   O10   A    
C12   H13   S    
C13   H23   S    
Cr3   O24   S    
C17   C18   A    
Cr2   O25   S    
C37   C48   S    
Cr4   O27   S    
C53   O20   D    
C35   H8    S    
C22   C24   A    
Cr1   O4    S    
C7    C53   S    
Cr2   O14   S    
C49   O17   A    
Cr4   O11   S    
C38   H10   S    
C15   C17   A    
C36   C37   A    
C30   C46   S    
Cr6   O3    S    
C43   C52   S    
C6    C10   A    
C2    C58   A    
C21   C54   S    
C32   C33   A    
C2    C3    A    
C14   H24   S    
Cr2   O19   S    
Cr5   O28   S    
C42   O28   A    
C57   C58   A    
C5    C6    A    
C20   C26   A    
C1    O4    A    
C54   O22   S    
Cr1   O17   S    
C23   H14   S    
Cr3   O15   S    
C50   H1    S    
Cr4   O26   S    
C36   H9    S    
C16   O16   A    
Cr6   O2    S    
C49   O24   A    
C20   C21   A    
C44   O3    A    
C14   C15   A    
Cr1   O1    S    
Cr2   O12   S    
C51   H2    S    
Cr2   O13   S    
C1    O13   A    
