data_mof_unit_40845.cif
_audit_creation_date              2012-12-11T16:53:22-0500
_audit_creation_method            fapswitch 2.2
_symmetry_space_group_name_H-M    P1
_symmetry_Int_Tables_number       1
_space_group_crystal_system       triclinic
_cell_length_a                    14.900952
_cell_length_b                    14.736336
_cell_length_c                    17.234879
_cell_angle_alpha                 109.059334
_cell_angle_beta                  106.641136
_cell_angle_gamma                 108.025387
_cell_volume                      3069.27115819

loop_
_atom_site_label
_atom_site_type_symbol
_atom_type_description
_atom_site_fract_x
_atom_site_fract_y
_atom_site_fract_z
_atom_type_partial_charge
C1    C     C_R   0.093488 0.276067 0.029399 -0.138365
C2    C     C_R   0.065327 0.487333 0.254631 -0.103164
C3    C     C_R   0.226511 0.799892 0.188563 -0.122493
C4    C     C_R   0.937726 0.511247 0.744824 0.046868
C5    C     C_R   0.728828 0.456204 0.039892 0.188416
C6    C     C_R   0.242608 0.805685 0.274583 0.073100
C7    C     C_R   0.706111 0.537359 0.029100 0.029940
C8    C     C_R   0.974096 0.436648 0.258336 0.091629
C9    C     C_R   0.998164 0.818714 0.970481 0.058645
C10   C     C_R   0.523418 0.658778 0.041523 0.125121
C11   C     C_R   0.473774 0.606061 0.083280 0.005038
C12   C     C_R   0.030281 0.564261 0.742608 0.007664
C13   C     C_R   0.531812 0.575658 0.141125 -0.178841
C14   C     C_R   0.620445 0.567575 0.133893 -0.141773
C15   C     C_R   0.646817 0.585747 0.066469 0.052011
C16   C     C_R   0.718940 0.215944 0.824524 -0.133904
C17   C     C_R   0.607279 0.645131 0.031042 0.139699
C18   C     C_3   0.574223 0.638488 0.938213 -0.530172
C19   C     C_3   0.483997 0.657442 0.949975 -0.184285
C20   C     C_R   0.967940 0.440257 0.339519 0.018575
C21   C     C_R   0.039332 0.566061 0.663854 0.121270
C22   C     C_R   0.047284 0.651644 0.568294 -0.120859
C23   C     C_R   0.662651 0.218346 0.746306 0.089169
C24   C     C_R   0.060031 0.658625 0.653054 -0.186913
C25   C     C_R   0.011676 0.468080 0.594256 -0.245713
C26   C     C_R   0.997134 0.459398 0.509419 0.147271
C27   C     C_R   0.013114 0.551556 0.495007 0.094398
C28   C     C_R   0.299397 0.594787 0.001840 -0.149925
C29   C     C_R   0.994868 0.540736 0.408104 0.108244
C30   C     C_R   0.950569 0.349123 0.353154 0.016100
C31   C     C_R   0.964215 0.358977 0.438783 -0.273747
C32   C     C_R   0.553176 0.142945 0.680266 0.074176
C33   C     C_R   0.282305 0.900553 0.362868 0.103818
C34   C     C_R   0.361017 0.564931 0.053598 0.083708
C35   C     C_R   0.364654 0.092911 0.457831 -0.253045
C36   C     C_R   0.302277 0.004347 0.371804 0.045835
C37   C     C_R   0.309175 0.887444 0.442180 -0.209751
C38   C     C_R   0.377028 0.974530 0.526743 0.074083
C39   C     C_R   0.410517 0.078924 0.533971 0.099640
C40   C     C_R   0.727035 0.309564 0.746865 -0.120705
C41   C     C_R   0.494622 0.165235 0.614706 -0.046311
C42   C     C_R   0.510353 0.041760 0.676779 -0.246238
C43   C     C_R   0.420288 0.958574 0.602296 0.189514
C44   C     C_R   0.111741 0.072918 0.932064 0.128107
C45   C     C_R   0.218744 0.702217 0.263676 -0.104614
C46   C     C_R   0.015570 0.074171 0.923415 0.043049
C47   C     C_R   0.924345 0.975918 0.865337 -0.193062
C48   C     C_R   0.929739 0.885660 0.808853 -0.169208
C49   C     C_R   0.025876 0.891663 0.809909 -0.001150
C50   C     C_R   0.116450 0.983264 0.876912 0.143213
C51   C     C_3   0.208470 0.048495 0.868496 -0.445217
C52   C     C_R   0.297869 0.500947 0.079553 -0.130196
C53   C     C_3   0.203619 0.147096 0.928458 -0.486463
C54   C     C_R   0.111384 0.593723 0.822129 -0.149507
C55   C     C_R   0.919278 0.190804 0.951329 -0.116594
C56   C     C_R   0.748344 0.563986 0.973444 -0.162861
C57   C     C_R   0.009479 0.175391 0.968440 0.055749
C58   C     C_R   0.891775 0.405106 0.179117 -0.077014
C59   C     C_R   0.083882 0.804436 0.011458 -0.127393
C60   C     C_R   0.912672 0.720318 0.934140 -0.127396
H1    H     H_    0.175452 0.295035 0.057259 0.106805
H2    H     H_    0.631847 0.705270 0.935505 0.196050
H3    H     H_    0.548427 0.557059 0.883984 0.192604
H4    H     H_    0.406083 0.590441 0.898460 0.150267
H5    H     H_    0.062568 0.724337 0.561185 0.174528
H6    H     H_    0.951454 0.288974 0.450450 0.138001
H7    H     H_    0.081576 0.734390 0.708754 0.133558
H8    H     H_    0.996247 0.397513 0.605521 0.129048
H9    H     H_    0.688305 0.164816 0.852804 0.115028
H10   H     H_    0.549868 0.024289 0.729119 0.156658
H11   H     H_    0.382785 0.172002 0.462414 0.124075
H12   H     H_    0.744554 0.622583 0.950376 0.118411
H13   H     H_    0.286986 0.808964 0.438004 0.166361
H14   H     H_    0.848181 0.969982 0.858998 0.128633
H15   H     H_    0.858667 0.813141 0.760536 0.130463
H16   H     H_    0.279474 0.040577 0.901879 0.202483
H17   H     H_    0.190341 0.037330 0.797819 0.203786
H18   H     H_    0.272381 0.196085 0.995979 0.199518
H19   H     H_    0.324113 0.658396 0.983908 0.091165
H20   H     H_    0.182642 0.193194 0.892554 0.205744
H21   H     H_    0.707551 0.343291 0.701656 0.121311
H22   H     H_    0.323831 0.475723 0.130548 0.090912
H23   H     H_    0.811867 0.352718 0.158397 0.143565
H24   H     H_    0.193818 0.641700 0.844590 0.108086
H25   H     H_    0.839777 0.131002 0.905898 0.098333
H26   H     H_    0.222717 0.674208 0.314077 0.113452
H27   H     H_    0.836876 0.555296 0.679965 0.105021
H28   H     H_    0.819266 0.430183 0.619362 0.105670
H29   H     H_    0.462574 0.754820 0.892644 0.137913
H30   H     H_    0.454240 0.788621 0.992364 0.101919
H31   H     H_    0.979549 0.222792 0.301452 0.112928
H32   H     H_    0.851589 0.192297 0.271201 0.118209
H33   H     H_    0.543377 0.284104 0.579327 0.095719
H34   H     H_    0.164428 0.860459 0.036305 0.091286
H35   H     H_    0.456578 0.288037 0.625075 0.119424
H36   H     H_    0.215254 0.060654 0.306644 0.117097
H37   H     H_    0.323570 0.071716 0.289600 0.098007
H38   H     H_    0.834790 0.698434 0.887037 0.091528
H39   H     H_    0.143732 0.512126 0.302739 0.106072
H40   H     H_    0.240968 0.865073 0.171287 0.109368
H41   H     H_    0.502403 0.545015 0.182450 0.133326
H42   H     H_    0.659082 0.534674 0.172325 0.167472
I1    I     I_    0.622320 0.324062 0.042986 -0.504457
I2    I     I_    0.006395 0.674047 0.378111 -0.453651
I3    I     I_    0.364644 0.808942 0.606053 -0.468529
N1    N     N_R   0.055640 0.348550 0.045600 -0.044547
N2    N     N_R   0.811290 0.303400 0.871650 -0.043368
N3    N     N_R   0.205180 0.552990 0.997660 -0.039282
N4    N     N_R   0.814810 0.361830 0.823710 -0.044438
N5    N     N_R   0.201660 0.494570 0.045600 -0.042567
N6    N     N_R   0.068420 0.560530 0.871650 -0.047656
N7    N     N_R   0.948050 0.295860 0.997660 -0.042824
N8    N     N_R   0.185190 0.638170 0.176290 -0.044640
N9    N     N_3   0.835386 0.485547 0.683833 -0.228624
N10   N     N_3   0.496223 0.763119 0.958290 -0.190895
N11   N     N_3   0.922565 0.247962 0.280791 -0.210706
N12   N     N_R   0.798340 0.505430 0.954400 -0.048415
N13   N     N_3   0.521976 0.273792 0.629697 -0.220199
N14   N     N_3   0.260938 0.021097 0.294673 -0.223811
N15   N     N_R   0.931580 0.439470 0.128350 -0.042454
N16   N     N_R   0.051950 0.704140 0.002340 -0.038816
N17   N     N_R   0.944360 0.651450 0.954400 -0.038407
N18   N     N_R   0.039170 0.492150 0.176290 -0.041022
N19   N     N_R   0.188710 0.696600 0.128350 -0.044264
N20   N     N_R   0.794820 0.447010 0.002340 -0.056161
N21   N     N_R   0.960830 0.507850 0.823710 -0.046915
Ni1   Ni    Ni4+2 0.119330 0.493420 0.109950 0.213853
Ni2   Ni    Ni4+2 0.880670 0.506580 0.890050 0.218682
Ni3   Ni    Ni4+2 0.872590 0.372590 0.000000 0.239676
Ni4   Ni    Ni4+2 0.127410 0.627410 0.000000 0.207465

loop_
_geom_bond_atom_site_label_1
_geom_bond_atom_site_label_2
_ccdc_geom_bond_type
C59   N16   A    
C31   H6    S    
H29   N10   S    
C55   H25   S    
C6    C45   A    
C55   N7    A    
C27   C29   A    
C56   N12   A    
H36   N14   S    
C35   C36   A    
N16   Ni4   S    
N2    Ni3   S    
C3    C6    A    
C54   H24   S    
C39   C41   A    
N1    N7    A    
C2    N18   A    
C26   C27   A    
C8    C20   S    
C4    N9    S    
C60   H38   S    
C30   C31   A    
C18   H3    S    
C14   H42   S    
C10   C17   A    
C23   C40   A    
C42   H10   S    
C33   C36   A    
H31   N11   S    
C18   C19   S    
C43   I3    S    
C28   H19   S    
C36   N14   S    
H27   N9    S    
C37   H13   S    
N6    Ni4   S    
C24   H7    S    
C8    C58   A    
C3    H40   S    
C56   H12   S    
C32   C41   A    
C52   H22   S    
C59   H34   S    
C19   N10   S    
N7    Ni3   S    
C4    C12   A    
C19   H4    S    
N3    Ni4   S    
C16   N2    A    
N15   N18   A    
C1    N1    A    
C7    C15   S    
C35   H11   S    
C26   C31   A    
C13   C14   A    
H28   N9    S    
C5    I1    S    
N2    N4    A    
C48   H15   S    
C25   H8    S    
C7    C56   A    
C44   C53   S    
C44   C46   A    
C50   C51   S    
C20   C29   A    
H35   N13   S    
N15   Ni3   S    
C53   H20   S    
C51   H16   S    
C5    C7    A    
C18   H2    S    
C30   N11   S    
N20   Ni3   S    
C25   C26   A    
N1    Ni1   S    
C33   C37   A    
C29   I2    S    
C9    C59   A    
H37   N14   S    
C35   C39   A    
C51   H17   S    
C22   H5    S    
C37   C38   A    
C1    C57   A    
N4    Ni2   S    
N18   Ni1   S    
C47   C48   A    
C52   N5    A    
C10   C19   S    
N6    N21   A    
C58   N15   A    
C17   C18   S    
N19   Ni4   S    
H30   N10   S    
C60   N17   A    
H32   N11   S    
N16   N17   A    
C48   C49   A    
C2    H39   S    
C16   C23   A    
C22   C27   A    
C55   C57   A    
C46   C57   S    
C41   N13   S    
C22   C24   A    
C42   C43   A    
C13   H41   S    
C3    N19   A    
C44   C50   A    
C15   C17   A    
C21   C25   A    
C46   C47   A    
N21   Ni2   S    
C40   H21   S    
C11   C34   S    
C2    C8    A    
C16   H9    S    
C47   H14   S    
C1    H1    S    
C40   N4    A    
N8    Ni1   S    
N5    Ni1   S    
C34   C52   A    
C6    C33   S    
C4    N21   A    
C9    C60   A    
C23   C32   S    
C53   H18   S    
C38   C43   A    
C58   H23   S    
C20   C30   A    
C11   C13   A    
C38   C39   A    
N8    N19   A    
C28   N3    A    
C12   C21   S    
N3    N5    A    
C54   N6    A    
C45   H26   S    
N17   Ni2   S    
N12   Ni2   S    
C10   C11   A    
C28   C34   A    
C45   N8    A    
C49   C50   A    
H33   N13   S    
C21   C24   A    
C5    N20   A    
C32   C42   A    
C14   C15   A    
C51   C53   S    
N12   N20   A    
C12   C54   A    
