data_mof_unit_32429.cif
_audit_creation_date              2012-12-10T16:39:37-0500
_audit_creation_method            fapswitch 2.2
_symmetry_space_group_name_H-M    P1
_symmetry_Int_Tables_number       1
_space_group_crystal_system       triclinic
_cell_length_a                    16.705933
_cell_length_b                    16.876757
_cell_length_c                    16.831256
_cell_angle_alpha                 65.65338
_cell_angle_beta                  65.753693
_cell_angle_gamma                 65.246341
_cell_volume                      3760.15430597

loop_
_atom_site_label
_atom_site_type_symbol
_atom_type_description
_atom_site_fract_x
_atom_site_fract_y
_atom_site_fract_z
_atom_type_partial_charge
C1    C     C_R   0.326595 0.953095 0.458031 -0.035615
C2    C     C_R   0.331941 0.462958 0.927101 -0.050607
C3    C     C_R   0.569001 0.430088 0.924574 0.023727
C4    C     C_R   0.028357 0.450387 0.578836 0.005392
C5    C     C_R   0.954903 0.553277 0.428441 0.001717
C6    C     C_3   0.311958 0.804592 0.323467 -0.190806
C7    C     C_3   0.753239 0.095547 0.752847 -0.082118
C8    C     C_3   0.796843 0.320861 0.326678 -0.192582
C9    C     C_3   0.196645 0.673334 0.691134 -0.205878
C10   C     C_3   0.325994 0.289303 0.800469 -0.159797
C11   C     C_3   0.805217 0.802416 0.858671 -0.236398
C12   C     C_2   0.278961 0.999900 0.823562 0.346284
C13   C     C_R   0.995414 0.686628 0.568920 -0.054317
C14   C     C_2   0.676739 0.089999 0.153613 0.308349
C15   C     C_2   0.861202 0.847461 0.354585 0.307266
C16   C     C_2   0.094801 0.157198 0.668497 0.342688
C17   C     C_2   0.858671 0.310664 0.902345 0.393240
C18   C     C_2   0.183793 0.719452 0.983433 0.363346
C19   C     C_2   0.220900 0.915448 0.749308 0.397160
C20   C     C_2   0.779255 0.103665 0.244220 0.417185
C21   C     C_2   0.759331 0.209344 0.895647 0.332362
C22   C     C_2   0.277500 0.803749 0.020828 0.339273
C23   C     C_2   0.834285 0.756611 0.261570 0.370840
C24   C     C_R   0.997719 0.316212 0.432914 -0.045808
C25   C     C_2   0.101964 0.246340 0.774905 0.419449
C26   C     C_R   0.448290 0.003132 0.451298 -0.000352
C27   C     C_R   0.535332 0.042081 0.537312 0.001631
C28   C     C_R   0.982882 0.457134 0.454214 0.001631
C29   C     C_R   0.003763 0.546531 0.550876 0.000841
C30   C     C_R   0.474612 0.470202 0.929358 0.004329
C31   C     C_R   0.570793 0.566999 0.941478 0.000053
C32   C     C_R   0.977240 0.177260 0.431100 0.919767
C33   C     C_R   0.669116 0.067904 0.537378 -0.038076
C34   C     C_R   0.021259 0.823314 0.569251 0.907704
C35   C     C_R   0.179820 0.438363 0.959927 0.906918
C36   C     C_R   0.840269 0.575697 0.990625 0.922247
C37   C     C_R   0.431299 0.977521 0.177082 0.959076
C38   C     C_R   0.561618 0.039462 0.820344 0.839430
C39   C     C_R   0.575453 0.836285 0.995096 0.947412
C40   C     C_R   0.439029 0.179651 0.959063 0.903602
C41   C     C_R   0.038584 0.561450 0.820565 0.834849
C42   C     C_R   0.959698 0.439390 0.179368 0.943039
C43   C     C_R   0.820082 0.041436 0.560766 0.875489
C44   C     C_R   0.941909 0.460968 0.327895 -0.028689
C45   C     C_R   0.179953 0.961291 0.438642 0.903324
C46   C     C_R   0.404564 0.983835 0.407935 0.073938
C47   C     C_R   0.581199 0.056458 0.582442 0.066997
C48   C     C_R   0.972751 0.411779 0.405961 0.072232
C49   C     C_R   0.017619 0.591345 0.596992 0.071804
C50   C     C_R   0.424974 0.421132 0.926336 0.073107
C51   C     C_R   0.618070 0.615430 0.949480 0.069976
C52   C     C_R   0.279908 0.941948 0.410165 -0.250565
C53   C     C_R   0.719060 0.069226 0.588562 -0.206378
C54   C     C_R   0.938192 0.411208 0.278731 -0.249958
C55   C     C_R   0.049946 0.541744 0.674056 -0.037669
C56   C     C_R   0.057972 0.590298 0.721520 -0.230626
C57   C     C_R   0.413118 0.279994 0.929120 -0.243506
C58   C     C_R   0.620594 0.750472 0.970501 -0.243059
C59   C     C_R   0.589378 0.065014 0.720687 -0.192035
C60   C     C_R   0.395785 0.972237 0.272186 -0.227715
C61   C     C_R   0.755444 0.622105 0.962982 -0.242331
C62   C     C_R   0.281013 0.411023 0.929926 -0.242972
C63   C     C_R   0.025783 0.728240 0.606115 -0.242139
C64   C     C_R   0.970880 0.273089 0.394425 -0.228119
C65   C     C_R   0.446905 0.056640 0.712128 -0.186569
C66   C     C_R   0.467707 0.330184 0.923533 -0.000666
C67   C     C_R   0.502489 0.047299 0.263150 -0.126049
C68   C     C_R   0.944570 0.736353 0.504879 -0.149132
C69   C     C_R   0.045482 0.267612 0.499159 -0.136093
C70   C     C_R   0.758818 0.492628 0.924106 -0.147059
C71   C     C_R   0.293454 0.555987 0.922821 -0.177529
C72   C     C_R   0.296526 0.936977 0.553099 -0.161015
C73   C     C_R   0.702109 0.082223 0.442028 -0.161219
C74   C     C_R   0.563869 0.294527 0.910403 -0.189553
C75   C     C_R   0.480433 0.743947 0.954532 -0.117821
C76   C     C_R   0.913143 0.556893 0.303578 -0.153543
C77   C     C_R   0.572148 0.704167 0.959232 -0.040999
C78   C     C_R   0.073533 0.446220 0.701203 -0.183559
C79   C     C_R   0.325263 0.933107 0.323889 0.419859
C80   C     C_R   0.673713 0.082527 0.674356 0.405955
C81   C     C_R   0.931885 0.324222 0.323311 0.426068
C82   C     C_R   0.065761 0.676674 0.676577 0.418077
C83   C     C_R   0.327127 0.326288 0.914963 0.420485
C84   C     C_R   0.714397 0.713317 0.959358 0.428764
C85   C     C_R   0.654994 0.073713 0.394158 0.055898
C86   C     C_R   0.335252 0.961205 0.596965 0.075123
C87   C     C_R   0.062866 0.399100 0.655379 0.057726
C88   C     C_R   0.539190 0.058371 0.673103 -0.044239
C89   C     C_R   0.915667 0.604085 0.355094 0.069228
C90   C     C_R   0.429318 0.692814 0.960591 0.076432
C91   C     C_R   0.614977 0.342071 0.913024 0.001693
C92   C     C_R   0.557020 0.052087 0.305030 0.075996
C93   C     C_R   0.407397 0.025680 0.675846 0.073929
C94   C     C_R   0.335910 0.601020 0.939753 0.067280
C95   C     C_R   0.712528 0.441373 0.920227 0.035534
C96   C     C_R   0.046896 0.309954 0.554728 0.077308
C97   C     C_R   0.934762 0.694185 0.453741 0.071685
C98   C     C_R   0.688868 0.086633 0.298498 -0.119423
C99   C     C_R   0.434512 0.001673 0.313145 -0.046396
C100  C     C_R   0.296399 0.957269 0.690435 -0.123452
C101  C     C_R   0.082818 0.302487 0.685614 -0.138512
C102  C     C_R   0.881592 0.700756 0.333993 -0.100356
C103  C     C_R   0.332274 0.727731 0.978051 -0.114685
C104  C     C_R   0.711093 0.303942 0.903092 -0.064216
C105  C     C_R   0.639187 0.077005 0.253772 -0.074434
C106  C     C_R   0.327087 0.997228 0.727655 -0.106254
C107  C     C_R   0.286023 0.684458 0.962259 -0.054957
C108  C     C_R   0.759677 0.353653 0.906774 -0.029790
C109  C     C_R   0.075435 0.258128 0.634644 -0.065628
C110  C     C_R   0.711486 0.575662 0.946594 -0.029748
C111  C     C_R   0.893208 0.745857 0.381668 -0.062834
C112  C     C_R   0.526979 0.033652 0.400150 -0.008633
C113  C     C_R   0.451964 0.019673 0.586434 0.001678
C114  C     C_R   0.018573 0.405885 0.529909 -0.003874
C115  C     C_R   0.965278 0.598062 0.476940 -0.006033
C116  C     C_R   0.428821 0.558813 0.939524 -0.001519
C117  C     C_R   0.617423 0.479131 0.929231 0.004673
C118  C     C_R   0.573174 0.048782 0.443911 0.000448
C119  C     C_R   0.411944 0.994309 0.545068 -0.000539
C120  C     C_R   0.476204 0.605899 0.947709 -0.005700
H1    H     H_    0.404262 0.082489 0.769021 0.227777
H2    H     H_    0.448159 0.816432 0.939251 0.191003
H3    H     H_    0.885476 0.594327 0.246305 0.210339
H4    H     H_    0.105212 0.409327 0.755224 0.227643
H5    H     H_    0.387357 0.771255 0.313124 0.145602
H6    H     H_    0.274002 0.785957 0.397146 0.119299
H7    H     H_    0.289598 0.777716 0.288616 0.214444
H8    H     H_    0.718708 0.116065 0.816287 0.161934
H9    H     H_    0.774341 0.019702 0.771547 0.132411
H10   H     H_    0.815735 0.118447 0.718423 0.218656
H11   H     H_    0.773926 0.297480 0.402488 0.132741
H12   H     H_    0.511837 0.082526 0.191736 0.196642
H13   H     H_    0.771515 0.396598 0.301439 0.138049
H14   H     H_    0.764293 0.293934 0.302061 0.237184
H15   H     H_    0.213961 0.599644 0.729635 0.118257
H16   H     H_    0.230666 0.682716 0.616827 0.119770
H17   H     H_    0.225039 0.706336 0.713794 0.242188
H18   H     H_    0.294336 0.357146 0.757652 0.140148
H19   H     H_    0.402270 0.274389 0.777941 0.097886
H20   H     H_    0.313674 0.236317 0.788413 0.242899
H21   H     H_    0.846232 0.843290 0.852230 0.201242
H22   H     H_    0.852908 0.748310 0.824805 0.141919
H23   H     H_    0.909361 0.807815 0.497159 0.203789
H24   H     H_    0.751632 0.848967 0.823097 0.115193
H25   H     H_    0.255913 0.942899 0.873772 0.047075
H26   H     H_    0.707915 0.144147 0.109717 0.078407
H27   H     H_    0.794374 0.884282 0.342309 0.076205
H28   H     H_    0.151449 0.115420 0.697549 0.054605
H29   H     H_    0.907430 0.286991 0.844408 0.103764
H30   H     H_    0.142408 0.730587 0.049359 0.050512
H31   H     H_    0.160220 0.950251 0.793978 0.087160
H32   H     H_    0.830103 0.060607 0.201536 0.098112
H33   H     H_    0.727868 0.155545 0.939906 0.091014
H34   H     H_    0.084014 0.196717 0.506535 0.194974
H35   H     H_    0.209170 0.844898 0.014176 0.067801
H36   H     H_    0.851913 0.817352 0.212145 0.087037
H37   H     H_    0.069166 0.193447 0.819110 0.100995
H38   H     H_    0.832958 0.469549 0.905401 0.188204
H39   H     H_    0.232014 0.595500 0.902169 0.228136
H40   H     H_    0.242392 0.905674 0.592826 0.216150
H41   H     H_    0.762054 0.105049 0.404170 0.219331
H42   H     H_    0.600388 0.231977 0.892106 0.163686
O1    O     O_R   0.982940 0.138950 0.510160 -0.613044
O2    O     O_R   0.982940 0.510160 0.138950 -0.648481
O3    O     O_R   0.861050 0.017060 0.489840 -0.625810
O4    O     O_R   0.138950 0.982940 0.510160 -0.642418
O5    O     O_R   0.867700 0.025880 0.612340 -0.639263
O6    O     O_R   0.132300 0.974120 0.387660 -0.556792
O7    O     O_R   0.025880 0.612340 0.867700 -0.578087
O8    O     O_R   0.974120 0.387660 0.132300 -0.540491
O9    O     O_R   0.612340 0.867700 0.025880 -0.534548
O10   O     O_R   0.387660 0.132300 0.974120 -0.557929
O11   O     O_R   0.387660 0.974120 0.132300 -0.538471
O12   O     O_R   0.017060 0.861050 0.489840 -0.620343
O13   O     O_R   0.612340 0.025880 0.867700 -0.657140
O14   O     O_R   0.132300 0.387660 0.974120 -0.545414
O15   O     O_R   0.867700 0.612340 0.025880 -0.557658
O16   O     O_R   0.974120 0.132300 0.387660 -0.558244
O17   O     O_R   0.025880 0.867700 0.612340 -0.567821
O18   O     O_3   0.291466 0.899982 0.285062 -0.556257
O19   O     O_3   0.693979 0.141588 0.696599 -0.626397
O20   O     O_3   0.893447 0.287525 0.292998 -0.547197
O21   O     O_3   0.100588 0.714893 0.709267 -0.551347
O22   O     O_3   0.285141 0.285341 0.893603 -0.546644
O23   O     O_R   0.138950 0.510160 0.982940 -0.644888
O24   O     O_3   0.765070 0.764661 0.951991 -0.560578
O25   O     O_2   0.259079 0.067308 0.846165 -0.542163
O26   O     O_2   0.677437 0.037779 0.120093 -0.561042
O27   O     O_2   0.910972 0.890625 0.341218 -0.566024
O28   O     O_2   0.044827 0.120821 0.669098 -0.546223
O29   O     O_2   0.885723 0.300037 0.964362 -0.550075
O30   O     O_2   0.145300 0.739261 0.926969 -0.526818
O31   O     O_2   0.228323 0.839533 0.751693 -0.547902
O32   O     O_2   0.795404 0.168611 0.242215 -0.556655
O33   O     O_2   0.833238 0.191113 0.838758 -0.581739
O34   O     O_R   0.861050 0.489840 0.017060 -0.614201
O35   O     O_2   0.305939 0.818427 0.068092 -0.530781
O36   O     O_2   0.771914 0.738134 0.259711 -0.538523
O37   O     O_2   0.157482 0.254422 0.798134 -0.545887
O38   O     O_R   0.510160 0.982940 0.138950 -0.606302
O39   O     O_R   0.489840 0.017060 0.861050 -0.665404
O40   O     O_R   0.489840 0.861050 0.017060 -0.612507
O41   O     O_R   0.510160 0.138950 0.982940 -0.661412
O42   O     O_R   0.017060 0.489840 0.861050 -0.668737
Zn1   Zn    Zn3+2 0.004880 0.004880 0.583590 1.047885
Zn2   Zn    Zn3+2 0.995120 0.995120 0.416410 1.109053
Zn3   Zn    Zn3+2 0.004880 0.583590 0.004880 1.051120
Zn4   Zn    Zn3+2 0.995120 0.416410 0.995120 1.118586
Zn5   Zn    Zn3+2 0.583590 0.004880 0.004880 1.039834
Zn6   Zn    Zn3+2 0.416410 0.995120 0.995120 1.099627

loop_
_geom_bond_atom_site_label_1
_geom_bond_atom_site_label_2
_ccdc_geom_bond_type
C78   C87   A    
C12   H25   S    
C12   C106  S    
C62   C83   A    
O17   Zn1   S    
C60   C79   A    
C26   C112  A    
C89   C102  A    
C11   O24   S    
C10   O22   S    
O23   Zn3   S    
C22   O35   D    
C84   O24   S    
O11   Zn6   S    
C40   O10   A    
C91   C104  A    
C46   C99   A    
C69   C96   A    
C32   O16   A    
C36   O34   A    
C34   O17   A    
C71   C94   A    
C30   C116  A    
C95   C117  A    
C23   O36   D    
C18   O30   D    
C98   C105  A    
C25   O37   D    
C35   O14   A    
O5    Zn1   S    
C4    C114  A    
C6    H7    S    
O10   Zn6   S    
O9    Zn5   S    
C42   O2    A    
C1    C46   A    
C23   C102  S    
C27   C47   A    
C66   C74   A    
C32   O1    A    
C68   H23   S    
C3    C91   A    
C37   O38   A    
C44   C76   A    
C59   C88   A    
C31   C117  A    
C7    H10   S    
C73   H41   S    
C85   C98   A    
C70   C110  A    
C58   C77   A    
C18   C107  S    
C21   C104  S    
C9    H17   S    
C43   C53   S    
C14   C105  S    
O42   Zn4   S    
C38   O39   A    
C24   C69   A    
C19   H31   S    
C57   C83   A    
C86   C119  A    
O4    Zn1   S    
C65   H1    S    
C7    H8    S    
C97   C115  A    
C52   C79   A    
C2    C50   A    
C11   H24   S    
C57   C66   A    
O2    Zn3   S    
C4    C29   A    
C75   C90   A    
C67   C99   A    
C76   C89   A    
C60   C99   A    
C65   C93   A    
C29   C115  A    
C24   C64   A    
C113  C119  A    
C23   H36   S    
C5    C115  A    
C96   C114  A    
C102  C111  A    
C10   H20   S    
C81   O20   S    
O40   Zn6   S    
C61   C110  A    
C20   O32   D    
C37   O11   A    
C45   O6    A    
C16   C109  S    
C22   H35   S    
C43   O3    A    
C33   C53   A    
C90   C103  A    
C94   C107  A    
C1    C72   A    
C7    O19   S    
C63   C82   A    
C8    H14   S    
C24   C48   A    
C15   C111  S    
C53   C80   A    
C26   C119  A    
C6    H6    S    
C17   C108  S    
C74   H42   S    
C55   C78   A    
C94   C116  A    
C92   C112  A    
C29   C49   A    
C45   C52   S    
C30   C50   A    
C49   C55   A    
C12   O25   D    
C41   O7    A    
C82   O21   S    
O1    Zn1   S    
C17   O29   D    
C22   C103  S    
O15   Zn3   S    
C4    C87   A    
C70   H38   S    
C90   C120  A    
C74   C91   A    
O34   Zn4   S    
C3    C30   A    
C51   C77   A    
C41   C56   S    
O8    Zn4   S    
C34   O12   A    
C58   C84   A    
C93   C106  A    
C112  C118  A    
C5    C28   A    
C14   O26   D    
C13   C63   A    
C40   O41   A    
C87   C101  A    
C9    H16   S    
C35   O23   A    
C73   C85   A    
C8    H11   S    
C68   C97   A    
C93   C113  A    
C80   O19   S    
C21   O33   D    
C42   O8    A    
C75   C77   A    
C32   C64   S    
C28   C114  A    
C13   C49   A    
C9    H15   S    
C33   C73   A    
C9    O21   S    
C19   O31   D    
C51   C110  A    
C25   H37   S    
C33   C47   A    
O6    Zn2   S    
C11   H22   S    
C10   H19   S    
C39   O9    A    
C2    C71   A    
C27   C113  A    
O39   Zn6   S    
C104  C108  A    
C78   H4    S    
C65   C88   A    
C45   O4    A    
C27   C118  A    
C8    O20   S    
C28   C48   A    
C40   C57   S    
C6    O18   S    
C8    H13   S    
C76   H3    S    
C17   H29   S    
C36   O15   A    
C69   H34   S    
C6    H5    S    
C31   C51   A    
C61   C84   A    
C59   C80   A    
O7    Zn3   S    
C41   O42   A    
C72   C86   A    
C19   C100  S    
C50   C66   A    
C20   H32   S    
C56   C82   A    
C75   H2    S    
C43   O5    A    
C11   H21   S    
C71   H39   S    
C96   C109  A    
C14   H26   S    
C100  C106  A    
O38   Zn5   S    
C72   H40   S    
C16   H28   S    
C47   C88   A    
O14   Zn4   S    
C70   C95   A    
C44   C48   A    
C42   C54   S    
C15   H27   S    
C86   C100  A    
C39   C58   S    
C25   C101  S    
C38   O13   A    
C97   C111  A    
O16   Zn2   S    
C34   C63   S    
C67   H12   S    
C83   O22   S    
C35   C62   S    
O13   Zn5   S    
C15   O27   D    
C85   C118  A    
C116  C120  A    
C1    C52   A    
C31   C120  A    
C7    H9    S    
C37   C60   S    
C95   C108  A    
C26   C46   A    
C55   C56   A    
C16   O28   D    
C38   C59   S    
C64   C81   A    
C44   C54   A    
C92   C105  A    
O3    Zn2   S    
C20   C98   S    
C39   O40   A    
O12   Zn2   S    
C21   H33   S    
C79   O18   S    
O41   Zn5   S    
C103  C107  A    
C10   H18   S    
C3    C117  A    
C67   C92   A    
C18   H30   S    
C101  C109  A    
C54   C81   A    
C5    C89   A    
C36   C61   S    
C2    C62   A    
C13   C68   A    
