data_mof_unit_34510.cif
_audit_creation_date              2012-12-11T15:29:24-0500
_audit_creation_method            fapswitch 2.2
_symmetry_space_group_name_H-M    P1
_symmetry_Int_Tables_number       1
_space_group_crystal_system       triclinic
_cell_length_a                    13.488151
_cell_length_b                    13.499351
_cell_length_c                    27.597008
_cell_angle_alpha                 90.477481
_cell_angle_beta                  90.000855
_cell_angle_gamma                 60.087193
_cell_volume                      4355.30737193

loop_
_atom_site_label
_atom_site_type_symbol
_atom_type_description
_atom_site_fract_x
_atom_site_fract_y
_atom_site_fract_z
_atom_type_partial_charge
C1    C     C_R   0.620323 0.101071 0.569886 0.546115
C2    C     C_1   0.634382 0.725807 0.614469 -0.002859
C3    C     C_3   0.717950 0.544806 0.765830 -0.108918
C4    C     C_3   0.685892 0.643042 0.803253 0.032471
C5    C     C_3   0.607365 0.624430 0.737966 0.112964
C6    C     C_3   0.671243 0.669298 0.707469 0.076718
C7    C     C_3   0.576097 0.719513 0.775297 0.154445
C8    C     C_3   0.640371 0.764161 0.745443 0.135912
C9    C     C_1   0.692239 0.626047 0.855637 -0.039510
C10   C     C_1   0.655254 0.694072 0.655698 -0.017897
C11   C     C_3   0.099615 0.124612 0.738003 0.129557
C12   C     C_R   0.600264 0.778227 0.568066 0.542927
C13   C     C_3   0.192737 0.059558 0.775953 -0.069184
C14   C     C_1   0.096053 0.201487 0.900056 -0.008294
C15   C     C_1   0.228700 0.138333 0.616802 -0.006997
C16   C     C_3   0.048439 0.235671 0.768091 -0.104201
C17   C     C_3   0.144041 0.171471 0.805591 0.033016
C18   C     C_3   0.128138 0.269178 0.740831 -0.123063
C19   C     C_3   0.176851 0.157659 0.710869 0.072797
C20   C     C_3   0.222857 0.205679 0.779181 -0.113029
C21   C     C_3   0.271722 0.093907 0.748643 -0.118943
C22   C     C_1   0.122577 0.183600 0.857886 -0.048687
C23   C     C_R   0.277595 0.121699 0.569296 0.545901
C24   C     C_1   0.200012 0.148444 0.658702 -0.030610
C25   C     C_3   0.640457 0.274881 0.737636 -0.109704
C26   C     C_3   0.562054 0.264742 0.775302 0.133616
C27   C     C_1   0.692079 0.207844 0.901225 -0.009645
C28   C     C_1   0.635732 0.133208 0.617721 -0.006866
C29   C     C_3   0.745018 0.195429 0.769453 -0.131171
C30   C     C_3   0.664064 0.187535 0.806779 0.078403
C31   C     C_3   0.755564 0.088822 0.742869 -0.118154
C32   C     C_3   0.650969 0.168219 0.712002 0.031407
C33   C     C_3   0.674640 0.081414 0.780792 -0.120666
C34   C     C_R   0.622044 0.100216 0.431547 0.544720
C35   C     C_3   0.569540 0.160320 0.749127 -0.071151
C36   C     C_1   0.675318 0.197891 0.859078 -0.037397
C37   C     C_1   0.644090 0.152498 0.659774 -0.050106
C38   C     C_R   0.643644 0.715160 0.384277 0.045685
C39   C     C_R   0.738595 0.710991 0.360288 0.100586
C40   C     C_R   0.750041 0.691819 0.310430 -0.098328
C41   C     C_R   0.673276 0.669797 0.284929 0.015717
C42   C     C_R   0.589585 0.658210 0.310128 -0.134492
C43   C     C_R   0.574281 0.681586 0.359410 -0.156416
C44   C     C_R   0.580274 0.701558 0.204103 -0.120178
C45   C     C_R   0.602750 0.775622 0.430743 0.552894
C46   C     C_R   0.588265 0.681693 0.154376 -0.132314
C47   C     C_R   0.794965 0.591859 0.159517 -0.127080
C48   C     C_R   0.787248 0.607983 0.209108 -0.126316
C49   C     C_R   0.680151 0.660209 0.232010 0.035463
C50   C     C_R   0.696046 0.623107 0.132205 0.022951
C51   C     C_R   0.221101 0.140412 0.384380 0.024595
C52   C     C_R   0.229968 0.047283 0.357702 -0.126530
C53   C     C_R   0.203588 0.058901 0.308716 -0.119300
C54   C     C_R   0.166874 0.163990 0.286040 0.034075
C55   C     C_R   0.148818 0.259397 0.313540 -0.121706
C56   C     C_R   0.278447 0.120448 0.431158 0.542588
C57   C     C_R   0.175836 0.247707 0.362482 -0.125557
C58   C     C_R   0.189284 0.233921 0.206008 -0.067959
C59   C     C_R   0.163920 0.252618 0.156802 0.087860
C60   C     C_R   0.067457 0.141017 0.162138 -0.148080
C61   C     C_R   0.091858 0.124455 0.211063 -0.137263
C62   C     C_R   0.149700 0.173689 0.233570 0.001515
C63   C     C_R   0.098742 0.208803 0.134755 0.027088
C64   C     C_R   0.642093 0.139324 0.385152 0.023645
C65   C     C_R   0.551891 0.235024 0.362818 -0.126842
C66   C     C_R   0.559235 0.255935 0.314145 -0.119231
C67   C     C_3   0.783269 0.591309 0.735131 -0.151569
C68   C     C_R   0.657311 0.182239 0.287338 0.037451
C69   C     C_R   0.751350 0.092613 0.310662 -0.120286
C70   C     C_R   0.743779 0.071103 0.359292 -0.118667
C71   C     C_R   0.706672 0.099301 0.204172 -0.112690
C72   C     C_R   0.718755 0.110335 0.154560 0.090722
C73   C     C_R   0.627592 0.316453 0.165697 -0.154372
C74   C     C_R   0.617125 0.304642 0.215015 -0.131977
C75   C     C_R   0.659977 0.195772 0.234772 0.013959
C76   C     C_R   0.682568 0.219463 0.135452 0.064718
C77   C     C_R   0.049638 0.235081 0.947936 0.546097
C78   C     C_3   0.751853 0.688710 0.773489 -0.129141
C79   C     C_R   0.712223 0.561394 0.946309 0.545931
C80   C     C_R   0.722688 0.224298 0.949078 0.547834
C81   C     C_R   0.047458 0.243911 0.086562 0.535709
C82   C     C_R   0.709704 0.571495 0.084445 0.539681
C83   C     C_R   0.719661 0.233233 0.087418 0.568674
C84   C     C_1   0.699248 0.603464 0.898007 -0.007364
Cr1   Cr    Cr6+3 0.417550 0.169090 0.500530 1.022412
Cr2   Cr    Cr6+3 0.669180 0.913420 0.499920 1.042541
Cr3   Cr    Cr6+3 0.413260 0.917540 0.499520 1.026635
Cr4   Cr    Cr6+3 0.909770 0.175810 0.018240 1.034796
Cr5   Cr    Cr6+3 0.913300 0.427650 0.016090 1.020468
Cr6   Cr    Cr6+3 0.657770 0.431010 0.016900 1.028287
H1    H     H_    0.810091 0.717312 0.788259 0.110251
H2    H     H_    0.101859 0.354995 0.726053 0.107814
H3    H     H_    0.625801 0.354127 0.719599 0.140642
H4    H     H_    0.495980 0.147986 0.740489 0.115469
H5    H     H_    0.690254 0.002275 0.799288 0.103963
H6    H     H_    0.835807 0.015355 0.728665 0.118360
H7    H     H_    0.868747 0.537725 0.718248 0.110963
H8    H     H_    0.496381 0.745713 0.220867 0.106180
H9    H     H_    0.511101 0.706700 0.133767 0.125946
H10   H     H_    0.816102 0.699330 0.291384 0.093051
H11   H     H_    0.879565 0.545349 0.143430 0.137066
H12   H     H_    0.503302 0.680594 0.377302 0.130215
H13   H     H_    0.264968 0.963454 0.373682 0.130113
H14   H     H_    0.217666 0.984344 0.288077 0.101705
H15   H     H_    0.060810 0.077483 0.231735 0.111453
H16   H     H_    0.117143 0.342066 0.296827 0.100087
H17   H     H_    0.167225 0.321026 0.382462 0.124180
H18   H     H_    0.472505 0.289391 0.381933 0.128994
H19   H     H_    0.735986 0.015028 0.218885 0.106359
H20   H     H_    0.485801 0.325814 0.296901 0.103456
H21   H     H_    0.600122 0.401181 0.151930 0.139654
H22   H     H_    0.829207 0.036843 0.290841 0.099319
H23   H     H_    0.814955 0.997388 0.375763 0.136281
H24   H     H_    0.748475 0.453932 0.774474 0.104870
H25   H     H_    0.363401 0.036274 0.739997 0.144434
O1    O     O_R   0.301780 0.195490 0.553940 -0.509288
O2    O     O_R   0.658840 0.818280 0.449970 -0.461757
O3    O     O_R   0.503160 0.801780 0.445740 -0.532823
O4    O     O_R   0.319320 0.022190 0.450230 -0.504362
O5    O     O_3   0.499990 0.000010 0.499990 -0.249100
O6    O     O_R   0.819250 0.149410 0.965240 -0.504233
O7    O     O_R   0.006940 0.180310 0.968270 -0.494913
O8    O     O_R   0.028420 0.332670 0.963010 -0.504412
O9    O     O_R   0.810130 0.520390 0.966030 -0.493702
O10   O     O_R   0.636050 0.541380 0.962520 -0.505042
O11   O     O_R   0.666480 0.323610 0.968170 -0.492667
O12   O     O_R   0.522450 0.158840 0.550250 -0.494805
O13   O     O_R   0.817280 0.156800 0.072180 -0.484588
O14   O     O_R   0.005110 0.187160 0.067410 -0.507771
O15   O     O_R   0.026450 0.340060 0.069950 -0.526151
O16   O     O_R   0.808300 0.527240 0.065170 -0.506719
O17   O     O_R   0.634070 0.548770 0.069460 -0.519625
O18   O     O_R   0.664650 0.330470 0.067300 -0.513970
O19   O     O_3   0.826940 0.344820 0.017080 -0.252220
O20   O     O_R   0.694460 0.003360 0.553820 -0.506842
O21   O     O_R   0.657750 0.819520 0.549120 -0.499332
O22   O     O_R   0.501990 0.803120 0.552700 -0.503847
O23   O     O_R   0.318230 0.023430 0.549370 -0.489719
O24   O     O_R   0.302950 0.194150 0.446980 -0.521455
O25   O     O_R   0.523540 0.157600 0.451100 -0.506933
O26   O     O_R   0.695630 0.002030 0.446860 -0.500901
H26   H     H_    0.274523 0.238954 0.796814 0.134724
H27   H     H_    0.956324 0.292768 0.776320 0.094412
N1    N     N_3   0.456103 0.360297 0.793847 -0.631183
H28   H     H_    0.403030 0.399092 0.764141 0.224523
H29   H     H_    0.475970 0.419901 0.808495 0.227219
H30   H     H_    0.816864 0.210036 0.778596 0.099185
N2    N     N_3   0.819072 0.732576 0.385799 -0.590733
H31   H     H_    0.878590 0.733991 0.361948 0.206272
H32   H     H_    0.865178 0.663750 0.408985 0.220020
H33   H     H_    0.865828 0.573743 0.229576 0.101319
H34   H     H_    0.532903 0.635652 0.291440 0.105190
H35   H     H_    0.237938 0.268703 0.223005 0.129919
N3    N     N_3   0.204661 0.316610 0.130651 -0.636998
H36   H     H_    0.135273 0.396480 0.122176 0.250891
H37   H     H_    0.244142 0.272483 0.098649 0.244839
N4    N     N_3   0.595742 0.884002 0.733955 -0.643537
H38   H     H_    0.574100 0.929254 0.766746 0.231237
H39   H     H_    0.662555 0.891479 0.718655 0.228039
H40   H     H_    0.017289 0.106318 0.146604 0.145025
N5    N     N_3   0.770039 0.010732 0.123968 -0.609033
H41   H     H_    0.851922 0.955135 0.137163 0.225489
H42   H     H_    0.721704 0.969958 0.126934 0.228919
H43   H     H_    0.580653 0.380213 0.237989 0.112018
N6    N     N_3   0.463472 0.790643 0.796781 -0.628239
H44   H     H_    0.406053 0.826789 0.768179 0.226794
H45   H     H_    0.441463 0.736391 0.814694 0.223850
N7    N     N_3   0.528827 0.589706 0.718576 -0.645899
H46   H     H_    0.495146 0.567576 0.747945 0.215346
H47   H     H_    0.460778 0.661545 0.702793 0.237981
H48   H     H_    0.216198 0.974555 0.790801 0.116700
N8    N     N_3   0.033621 0.079314 0.714661 -0.627704
H49   H     H_    0.998065 0.053937 0.742132 0.218827
H50   H     H_    0.965755 0.146725 0.696562 0.230103

loop_
_geom_bond_atom_site_label_1
_geom_bond_atom_site_label_2
_ccdc_geom_bond_type
C44   C49   A    
C58   C62   A    
C66   C68   A    
C46   H9    S    
C4    C9    S    
C34   O26   A    
C25   H3    S    
N4    H38   S    
C47   H11   S    
C41   C42   A    
C23   O23   A    
C83   O13   A    
C21   H25   S    
C2    C12   S    
N5    H41   S    
C7    C8    S    
C52   H13   S    
C53   C54   A    
N8    H49   S    
C68   C75   S    
Cr3   O4    S    
C11   C19   S    
N6    H44   S    
C63   C81   S    
C60   C63   A    
C19   C21   S    
N2    H32   S    
C18   C19   S    
C79   C84   S    
Cr6   O19   S    
C69   H22   S    
N7    H47   S    
C5    N7    S    
C53   H14   S    
C31   H6    S    
C17   C20   S    
C51   C56   S    
C73   C74   A    
C14   C77   S    
C38   C45   S    
C77   O7    A    
C33   C35   S    
C23   O1    A    
C44   H8    S    
C31   C32   S    
N8    H50   S    
C16   C17   S    
C39   N2    S    
C1    C28   S    
C72   N5    S    
C31   C33   S    
C51   C57   A    
C64   C70   A    
C42   H34   S    
Cr1   O24   S    
C65   H18   S    
N3    H37   S    
C72   C76   A    
Cr6   O17   S    
C25   C32   S    
C15   C23   S    
C29   H30   S    
C79   O10   A    
C11   N8    S    
N4    H39   S    
C8    C78   S    
N6    H45   S    
C61   C62   A    
C67   C78   S    
Cr4   O14   S    
Cr3   O22   S    
C4    C7    S    
C26   N1    S    
C8    N4    S    
C33   H5    S    
C76   C83   S    
C41   C49   S    
N5    H42   S    
C59   N3    S    
C44   C46   A    
C73   H21   S    
C47   C50   A    
C80   O6    A    
C70   H23   S    
C25   C29   S    
C38   C39   A    
C71   C75   A    
C74   C75   A    
C55   H16   S    
C51   C52   A    
C32   C35   S    
C20   H26   S    
C16   H27   S    
N2    H31   S    
Cr3   O3    S    
N1    H29   S    
C27   C80   S    
C39   C40   A    
C5    C7    S    
C56   O24   A    
C68   C69   A    
C6    C8    S    
Cr5   O8    S    
C25   C26   S    
Cr2   O21   S    
Cr5   O15   S    
C60   C61   A    
Cr1   O5    S    
C4    C78   S    
C29   C30   S    
C77   O8    A    
C58   H35   S    
C11   C16   S    
C26   C35   S    
C81   O14   A    
C47   C48   A    
C13   H48   S    
C29   C31   S    
C34   C64   S    
Cr6   O11   S    
C13   C21   S    
C15   C24   T    
C32   C37   S    
C66   H20   S    
Cr1   O25   S    
N3    H36   S    
Cr4   O7    S    
C40   C41   A    
C57   H17   S    
C26   C30   S    
C55   C57   A    
C27   C36   T    
C73   C76   A    
Cr1   O12   S    
C42   C43   A    
Cr3   O23   S    
C82   O17   A    
C3    C4    S    
C2    C10   T    
C61   H15   S    
C52   C53   A    
C50   C82   S    
C35   H4    S    
C45   O2    A    
Cr6   O18   S    
C54   C55   A    
N7    H46   S    
Cr5   O19   S    
C30   C33   S    
Cr1   O1    S    
C3    C67   S    
C1    O12   A    
N1    H28   S    
C3    C5    S    
C3    H24   S    
C40   H10   S    
Cr5   O9    S    
C13   C17   S    
C78   H1    S    
C54   C62   S    
C79   O9    A    
C46   C50   A    
C59   C63   A    
C17   C22   S    
Cr5   O16   S    
C30   C36   S    
C18   H2    S    
C64   C65   A    
C14   C22   T    
C19   C24   S    
C58   C59   A    
C43   H12   S    
Cr4   O19   S    
C38   C43   A    
Cr4   O13   S    
C6    C67   S    
C74   H43   S    
C11   C13   S    
C81   O15   A    
C5    C6    S    
C80   O11   A    
C28   C37   T    
C48   C49   A    
C71   H19   S    
C34   O25   A    
C56   O4    A    
Cr6   O10   S    
Cr2   O2    S    
C18   C20   S    
C7    N6    S    
C69   C70   A    
C83   O18   A    
C6    C10   S    
C67   H7    S    
C9    C84   T    
Cr2   O20   S    
Cr3   O5    S    
C71   C72   A    
C20   C21   S    
C16   C18   S    
C65   C66   A    
C12   O21   A    
C48   H33   S    
C12   O22   A    
Cr2   O5    S    
C60   H40   S    
C82   O16   A    
C1    O20   A    
Cr4   O6    S    
Cr2   O26   S    
C45   O3    A    
