data_mof_unit_20417.cif
_audit_creation_date              2012-12-10T17:00:43-0500
_audit_creation_method            fapswitch 2.2
_symmetry_space_group_name_H-M    P1
_symmetry_Int_Tables_number       1
_space_group_crystal_system       triclinic
_cell_length_a                    27.81203
_cell_length_b                    10.923983
_cell_length_c                    9.68923
_cell_angle_alpha                 89.839774
_cell_angle_beta                  89.797303
_cell_angle_gamma                 90.218293
_cell_volume                      2943.71245659

loop_
_atom_site_label
_atom_site_type_symbol
_atom_type_description
_atom_site_fract_x
_atom_site_fract_y
_atom_site_fract_z
_atom_type_partial_charge
C1    C     C_R   0.499205 0.265321 0.500155 0.850251
C2    C     C_R   0.279649 0.467705 0.627544 -0.105007
C3    C     C_R   0.253235 0.495555 0.509212 0.320529
C4    C     C_R   0.101533 0.490868 0.516654 -0.048369
C5    C     C_R   0.127034 0.403262 0.439584 -0.017855
C6    C     C_R   0.101699 0.317157 0.361770 -0.180369
C7    C     C_R   0.127134 0.580269 0.591023 -0.023675
C8    C     C_R   0.354261 0.500455 0.500849 -0.082623
C9    C     C_R   0.645509 0.499225 0.500205 -0.029911
C10   C     C_R   0.974336 0.387057 0.462877 -0.083652
C11   C     C_R   0.974390 0.588820 0.577414 0.071439
C12   C     C_R   0.407406 0.500663 0.500074 0.833428
C13   C     C_R   0.949117 0.488843 0.517946 0.016217
C14   C     C_R   0.947378 0.280473 0.426808 0.410002
C15   C     C_R   0.897289 0.284585 0.422403 -0.209487
C16   C     C_R   0.872381 0.389245 0.463316 -0.097116
C17   C     C_R   0.898107 0.490503 0.514299 -0.049089
C18   C     C_R   0.872703 0.593519 0.561773 0.000648
C19   C     C_R   0.822312 0.594210 0.554951 0.531867
C20   C     C_R   0.821923 0.393291 0.459338 0.562646
C21   C     C_R   0.721707 0.497665 0.376835 -0.097333
C22   C     C_R   0.671532 0.499211 0.375518 -0.224569
C23   C     C_R   0.500605 0.734667 0.499912 0.841800
C24   C     C_R   0.670589 0.497929 0.625945 -0.211994
C25   C     C_R   0.720667 0.496374 0.626944 -0.104560
C26   C     C_R   0.746432 0.496250 0.502563 0.351196
C27   C     C_R   0.025215 0.394910 0.449393 0.039677
C28   C     C_R   0.050483 0.489664 0.518373 0.067448
C29   C     C_R   0.025239 0.583985 0.587629 0.046431
C30   C     C_R   0.051748 0.314268 0.364812 -0.166948
C31   C     C_R   0.101906 0.668558 0.665830 -0.142828
C32   C     C_R   0.947808 0.691023 0.623507 -0.215796
C33   C     C_R   0.897992 0.693453 0.614884 -0.145645
C34   C     C_R   0.592539 0.499974 0.499867 0.780198
C35   C     C_R   0.051936 0.670822 0.663964 -0.215586
C36   C     C_2   0.497941 0.933209 0.386387 -0.158082
C37   C     C_2   0.502981 0.866690 0.501753 -0.306063
C38   C     C_2   0.499877 0.067280 0.386406 -0.146193
C39   C     C_2   0.496494 0.133278 0.502435 -0.309387
C40   C     C_2   0.465683 0.451218 0.922784 -0.134433
C41   C     C_2   0.470521 0.431585 0.079490 0.641164
C42   C     C_R   0.177490 0.405896 0.439399 0.543989
C43   C     C_R   0.177611 0.579439 0.588325 0.540888
C44   C     C_R   0.277131 0.526521 0.386682 -0.208405
C45   C     C_R   0.327648 0.529722 0.381019 0.374734
C46   C     C_R   0.329694 0.470153 0.623523 -0.300608
Cu1   Cu    Cu3+1 0.500010 0.500020 0.638630 0.950410
Cu2   Cu    Cu3+1 0.499990 0.499980 0.361370 1.030909
H1    H     H_    0.349192 0.447164 0.716577 0.168133
H2    H     H_    0.256161 0.548991 0.296134 0.140179
H3    H     H_    0.120714 0.737195 0.725686 0.186307
H4    H     H_    0.964585 0.772470 0.663477 0.137108
H5    H     H_    0.651583 0.497884 0.723695 0.156393
H6    H     H_    0.879339 0.774285 0.650808 0.186100
H7    H     H_    0.739544 0.494929 0.724495 0.141865
H8    H     H_    0.035150 0.740179 0.726409 0.138295
H9    H     H_    0.492978 0.888571 0.287345 0.185984
H10   H     H_    0.509882 0.907641 0.601277 0.153013
H11   H     H_    0.503594 0.112358 0.286818 0.187294
H12   H     H_    0.261317 0.443517 0.722621 0.152547
H13   H     H_    0.490651 0.091930 0.602689 0.148594
H14   H     H_    0.433375 0.420998 0.870890 0.123710
H15   H     H_    0.532692 0.507065 0.891753 0.218813
H16   H     H_    0.120373 0.252199 0.296705 0.189391
H17   H     H_    0.653198 0.500345 0.277122 0.144512
H18   H     H_    0.741417 0.497976 0.280254 0.142335
H19   H     H_    0.877988 0.203234 0.390205 0.207659
H20   H     H_    0.034676 0.251262 0.294859 0.207081
N1    N     N_R   0.201667 0.493063 0.513214 -0.457618
N2    N     N_R   0.798016 0.494936 0.504452 -0.467097
N3    N     N_2   0.499480 0.498660 0.846910 -0.266612
N4    N     N_2   0.499460 0.498630 0.153040 -0.046906
O1    O     O_R   0.500010 0.321960 0.617040 -0.588023
O2    O     O_2   0.796916 0.295967 0.412246 -0.536146
O3    O     O_2   0.202467 0.665142 0.658714 -0.537026
O4    O     O_2   0.797750 0.693468 0.597941 -0.538319
O5    O     O_R   0.499990 0.321920 0.382900 -0.544011
O6    O     O_R   0.430270 0.500040 0.617060 -0.597339
O7    O     O_R   0.430260 0.500000 0.382910 -0.490175
O8    O     O_R   0.500010 0.678080 0.617100 -0.565924
O9    O     O_R   0.499990 0.678040 0.382960 -0.564007
O10   O     O_R   0.569740 0.500000 0.617090 -0.590233
O11   O     O_R   0.569730 0.499960 0.382940 -0.623143
O12   O     O_2   0.202236 0.321642 0.366709 -0.543287
O13   O     O_3   0.447152 0.335890 0.147829 -0.582144
C47   C     C_3   0.402361 0.305936 0.088894 0.003151
H21   H     H_    0.407778 0.251082 0.993596 0.135089
H22   H     H_    0.380882 0.389403 0.065780 0.164404
C48   C     C_3   0.373869 0.228311 0.191190 -0.685161
H23   H     H_    0.367931 0.280177 0.288149 0.251396
H24   H     H_    0.338443 0.203704 0.146399 0.205357
H25   H     H_    0.393838 0.143051 0.215316 0.239515
O14   O     O_3   0.509452 0.609214 0.096495 -0.515152
C49   C     C_3   0.558793 0.634030 0.116058 0.165274
H26   H     H_    0.581365 0.551471 0.097658 0.104333
H27   H     H_    0.565486 0.669304 0.221062 0.191352
C50   C     C_3   0.574674 0.733896 0.015682 -0.861030
H28   H     H_    0.553337 0.818206 0.033383 0.256883
H29   H     H_    0.613317 0.755294 0.031718 0.212597
H30   H     H_    0.569606 0.703621 0.907435 0.254824
O15   O     O_3   0.968780 0.168885 0.400814 -0.594564
C51   C     C_3   0.978889 0.111098 0.527985 0.060020
H31   H     H_    0.944898 0.086554 0.582753 0.151322
H32   H     H_    0.001200 0.170636 0.595866 0.151211
C52   C     C_3   0.006972 0.994365 0.500852 -0.760191
H33   H     H_    0.040568 0.016059 0.443323 0.254078
H34   H     H_    0.016595 0.950440 0.600368 0.190014
H35   H     H_    0.984908 0.929569 0.439398 0.255108
O16   O     O_3   0.351309 0.563015 0.260959 -0.715581
H36   H     H_    0.327346 0.579541 0.187745 0.318160

loop_
_geom_bond_atom_site_label_1
_geom_bond_atom_site_label_2
_ccdc_geom_bond_type
C10   C27   A    
C21   C26   A    
O14   C49   S    
C40   N3    D    
C21   H18   S    
C1    O5    A    
C5    C42   A    
C50   H28   S    
O13   C47   S    
C2    C46   A    
C52   H34   S    
C46   H1    S    
C28   C29   A    
O15   C51   S    
Cu2   O7    S    
C19   O4    S    
C3    N1    S    
C5    C6    A    
C47   H22   S    
C9    C22   A    
C15   C16   A    
C12   O7    A    
C40   H14   S    
Cu2   O9    S    
C51   C52   S    
C18   C19   A    
Cu1   O10   S    
C6    H16   S    
C8    C45   A    
C32   H4    S    
C50   H29   S    
C16   C17   A    
C12   O6    A    
C7    C43   A    
C23   O8    A    
C48   H24   S    
C37   H10   S    
C16   C20   A    
C43   N1    A    
C21   C22   A    
C27   C30   A    
C20   N2    A    
C51   H31   S    
C2    H12   S    
Cu1   O8    S    
Cu2   N4    S    
C4    C7    A    
C4    C28   A    
C43   O3    S    
C39   H13   S    
C52   H35   S    
C3    C44   A    
C7    C31   A    
C42   O12   S    
C24   C25   A    
Cu1   O1    S    
C36   H9    S    
C10   C14   A    
C47   H21   S    
C14   O15   S    
C49   C50   S    
C24   H5    S    
C23   C37   S    
C47   C48   S    
C42   N1    A    
Cu2   O5    S    
C51   H32   S    
C22   H17   S    
Cu1   Cu2   S    
C8    C12   S    
C15   H19   S    
C17   C18   A    
C20   O2    S    
C48   H25   S    
C49   H27   S    
Cu1   N3    S    
C41   N4    D    
N4    O14   S    
C40   C41   S    
C6    C30   A    
H15   N3    S    
C11   C32   A    
C9    C34   S    
C26   N2    S    
C31   C35   A    
C34   O11   A    
C50   H30   S    
C44   C45   A    
C44   H2    S    
C33   H6    S    
C36   C37   D    
C23   O9    A    
C35   H8    S    
C25   H7    S    
C31   H3    S    
C4    C5    A    
C10   C13   A    
C9    C24   A    
C41   O13   S    
C52   H33   S    
C29   C35   A    
Cu2   O11   S    
C13   C17   A    
C1    O1    A    
C32   C33   A    
C36   C38   S    
C2    C3    A    
C25   C26   A    
O16   H36   S    
C11   C13   A    
C38   C39   D    
C45   O16   S    
C49   H26   S    
C18   C33   A    
C8    C46   A    
C1    C39   S    
C38   H11   S    
C11   C29   A    
C27   C28   A    
C14   C15   A    
C19   N2    A    
C34   O10   A    
Cu1   O6    S    
C48   H23   S    
C30   H20   S    
