data_mof_unit_41613.cif
_audit_creation_date              2012-10-26T19:52:28-0400
_audit_creation_method            fapswitch 2.2
_symmetry_space_group_name_H-M    P1
_symmetry_Int_Tables_number       1
_space_group_crystal_system       triclinic
_cell_length_a                    9.53375
_cell_length_b                    10.845564
_cell_length_c                    13.495001
_cell_angle_alpha                 90.939601
_cell_angle_beta                  73.004432
_cell_angle_gamma                 89.476591
_cell_volume                      1334.1078139

loop_
_atom_site_label
_atom_site_type_symbol
_atom_type_description
_atom_site_fract_x
_atom_site_fract_y
_atom_site_fract_z
_atom_type_partial_charge
C1    C     C_R   0.498901 0.737535 0.501595 0.550584
C2    C     C_R   0.377440 0.510716 0.813928 -0.015619
C3    C     C_R   0.385075 0.936939 0.482342 0.009046
C4    C     C_R   0.422108 0.497535 0.700034 0.531652
C5    C     C_R   0.498056 0.870713 0.503958 -0.034588
C6    C     C_R   0.607857 0.933969 0.532731 -0.166256
C7    C     C_R   0.600273 0.062444 0.545211 0.239946
C8    C     C_R   0.492998 0.129004 0.514222 0.014193
C9    C     C_R   0.382678 0.064811 0.486525 -0.037652
C10   C     C_3   0.221564 0.066368 0.543539 -0.268260
C11   C     C_3   0.225309 0.927477 0.536415 -0.252657
C12   C     C_R   0.449336 0.533634 0.973941 0.028611
C13   C     C_R   0.962835 0.459380 0.414653 0.131613
C14   C     C_R   0.893106 0.558411 0.576750 -0.037087
C15   C     C_R   0.042303 0.558393 0.576721 -0.048567
C16   C     C_R   0.497441 0.262594 0.506453 0.568367
C17   C     C_R   0.110194 0.461537 0.413748 0.155632
C18   C     C_3   0.143812 0.340004 0.357987 0.144712
C19   C     C_3   0.983090 0.337473 0.357969 0.149919
C20   C     C_R   0.578243 0.502198 0.300454 0.557751
C21   C     C_R   0.802734 0.437462 0.025705 0.294264
C22   C     C_R   0.624597 0.500501 0.187314 -0.059070
C23   C     C_R   0.475811 0.483648 0.872022 -0.071160
C24   C     C_R   0.245062 0.572260 0.861688 -0.142949
C25   C     C_R   0.217152 0.620828 0.961013 -0.100779
C26   C     C_R   0.319381 0.607390 0.017085 0.290072
C27   C     C_3   0.669424 0.092909 0.691315 -0.119972
C28   C     C_3   0.269015 0.232633 0.209293 -0.029304
C29   C     C_3   0.390164 0.237933 0.107418 -0.365190
C30   C     C_3   0.919602 0.345657 0.750076 -0.084783
C31   C     C_3   0.929818 0.131161 0.359946 -0.101911
C32   C     C_3   0.015354 0.325512 0.020033 -0.108572
C33   C     C_3   0.166045 0.666060 0.178133 -0.138813
C34   C     C_R   0.554597 0.507466 0.027926 -0.053317
C35   C     C_R   0.691435 0.448903 0.975640 0.060813
C36   C     C_R   0.709331 0.392658 0.878316 0.263333
C37   C     C_R   0.598814 0.405617 0.830458 -0.137997
C38   C     C_R   0.521110 0.523614 0.135387 -0.095325
C39   C     C_R   0.768250 0.468715 0.131562 -0.154563
Cu1   Cu    Cu3+1 0.359330 0.500020 0.500010 0.943167
Cu2   Cu    Cu3+1 0.640670 0.499980 0.499990 0.982696
H1    H     H_    0.850695 0.461911 0.171755 0.109153
H2    H     H_    0.410661 0.542267 0.181870 0.230268
H3    H     H_    0.167877 0.592932 0.818930 0.136196
H4    H     H_    0.119549 0.677563 0.991086 0.119970
H5    H     H_    0.608762 0.350804 0.761143 0.155360
H6    H     H_    0.695682 0.883719 0.550847 0.133209
H7    H     H_    0.687269 0.993129 0.701735 0.103231
H8    H     H_    0.556174 0.122006 0.736553 0.103556
H9    H     H_    0.747204 0.142666 0.723569 0.181769
H10   H     H_    0.169120 0.199737 0.191087 0.110241
H11   H     H_    0.304004 0.164662 0.258812 0.134335
H12   H     H_    0.197356 0.103025 0.624361 0.134200
H13   H     H_    0.494205 0.266422 0.121570 0.166785
H14   H     H_    0.407395 0.145236 0.069300 0.106749
H15   H     H_    0.358590 0.303278 0.055058 0.150830
H16   H     H_    0.961700 0.438240 0.762343 0.140541
H17   H     H_    0.870637 0.345411 0.684865 0.140434
H18   H     H_    0.014966 0.281001 0.728366 0.144533
H19   H     H_    0.862338 0.057472 0.404823 0.175053
H20   H     H_    0.045188 0.098829 0.343650 0.071782
H21   H     H_    0.898561 0.140187 0.287080 0.087017
H22   H     H_    0.940052 0.254660 0.064701 0.108512
H23   H     H_    0.152365 0.106326 0.498863 0.146771
H24   H     H_    0.066141 0.379182 0.071024 0.108157
H25   H     H_    0.105640 0.275809 0.961851 0.143446
H26   H     H_    0.129034 0.568530 0.182517 0.124798
H27   H     H_    0.174894 0.692633 0.255807 0.143965
H28   H     H_    0.082531 0.728133 0.161888 0.114990
H29   H     H_    0.202004 0.883029 0.613144 0.136256
H30   H     H_    0.163852 0.889566 0.484562 0.138775
H31   H     H_    0.810749 0.602592 0.640388 0.120524
H32   H     H_    0.071607 0.602910 0.640020 0.109155
H33   H     H_    0.177387 0.271314 0.406691 0.136232
H34   H     H_    0.964645 0.346389 0.280577 0.085002
N1    N     N_R   0.852320 0.499070 0.499340 -0.217063
N2    N     N_R   0.148230 0.499110 0.499340 -0.254460
O1    O     O_R   0.381190 0.680360 0.500000 -0.499450
O2    O     O_3   0.242713 0.350960 0.257511 -0.591236
O3    O     O_3   0.818611 0.304103 0.841304 -0.559080
O4    O     O_3   0.904882 0.242100 0.419270 -0.511365
O5    O     O_3   0.945160 0.405369 0.967144 -0.541474
O6    O     O_3   0.304558 0.681827 0.104438 -0.583936
O7    O     O_R   0.618780 0.680320 0.499990 -0.517136
O8    O     O_R   0.323230 0.500000 0.650990 -0.519841
O9    O     O_R   0.560820 0.499960 0.650980 -0.515992
O10   O     O_R   0.381220 0.319680 0.500010 -0.523572
O11   O     O_R   0.618810 0.319640 0.500000 -0.398566
O12   O     O_R   0.439180 0.500040 0.349020 -0.470422
O13   O     O_R   0.676770 0.500000 0.349010 -0.514893
O14   O     O_3   0.698773 0.122961 0.585918 -0.525285

loop_
_geom_bond_atom_site_label_1
_geom_bond_atom_site_label_2
_ccdc_geom_bond_type
C27   H7    S    
C31   H19   S    
C26   O6    S    
C31   H20   S    
C35   C36   A    
C11   H29   S    
C7    C8    A    
C1    O7    A    
Cu2   O9    S    
C12   C23   A    
C1    C5    S    
Cu1   O10   S    
C28   C29   S    
C18   C19   S    
C5    C6    A    
C28   H10   S    
C11   H30   S    
C4    O9    A    
C29   H13   S    
C22   C38   A    
C30   H16   S    
C34   C35   A    
C10   H12   S    
C28   O2    S    
C18   O2    S    
C16   O10   A    
C27   O14   S    
Cu1   O12   S    
C9    C10   S    
C27   H9    S    
C33   H28   S    
C30   O3    S    
Cu2   O13   S    
C18   H33   S    
C1    O1    A    
C31   H21   S    
C39   H1    S    
C6    H6    S    
C13   C19   S    
C24   C25   A    
C36   O3    S    
C8    C9    A    
C4    O8    A    
C29   H14   S    
C25   C26   A    
C23   C37   A    
Cu2   O7    S    
C20   O13   A    
C12   C26   A    
C14   N1    A    
Cu1   O8    S    
C2    C4    S    
C3    C9    A    
C21   C39   A    
C13   N1    A    
C7    O14   S    
C30   H18   S    
C17   N2    A    
C17   C18   S    
C33   O6    S    
Cu1   Cu2   S    
C15   H32   S    
C20   C22   S    
C2    C24   A    
C24   H3    S    
Cu1   O1    S    
C12   C34   A    
C25   H4    S    
C33   H26   S    
C32   H25   S    
Cu2   O11   S    
C36   C37   A    
C34   C38   A    
C14   H31   S    
C10   H23   S    
C14   C15   A    
C32   H22   S    
C3    C5    A    
C6    C7    A    
C21   C35   A    
C29   H15   S    
C32   O5    S    
C20   O12   A    
C31   O4    S    
C13   C17   A    
C19   H34   S    
C38   H2    S    
Cu2   N1    S    
C28   H11   S    
C15   N2    A    
C22   C39   A    
C30   H17   S    
C3    C11   S    
C10   C11   S    
C21   O5    S    
C8    C16   S    
C2    C23   A    
C16   O11   A    
Cu1   N2    S    
C37   H5    S    
C19   O4    S    
C27   H8    S    
C33   H27   S    
C32   H24   S    
