data_mof_unit_32605.cif
_audit_creation_date              2012-12-10T17:48:47-0500
_audit_creation_method            fapswitch 2.2
_symmetry_space_group_name_H-M    P1
_symmetry_Int_Tables_number       1
_space_group_crystal_system       triclinic
_cell_length_a                    15.73181
_cell_length_b                    10.739045
_cell_length_c                    9.90737
_cell_angle_alpha                 89.804151
_cell_angle_beta                  89.420875
_cell_angle_gamma                 92.081393
_cell_volume                      1672.59506929

loop_
_atom_site_label
_atom_site_type_symbol
_atom_type_description
_atom_site_fract_x
_atom_site_fract_y
_atom_site_fract_z
_atom_type_partial_charge
C1    C     C_R   0.508300 0.260494 0.500972 0.861430
C2    C     C_R   0.466683 0.052785 0.869199 -0.172004
C3    C     C_R   0.419602 0.941532 0.850324 0.225415
C4    C     C_R   0.338455 0.500135 0.500892 0.897173
C5    C     C_R   0.424005 0.882819 0.724638 -0.213975
C6    C     C_R   0.472449 0.937469 0.617120 0.055635
C7    C     C_R   0.501912 0.060709 0.628031 0.073754
C8    C     C_R   0.521837 0.127356 0.505944 -0.153782
C9    C     C_R   0.541320 0.061399 0.385920 0.087220
C10   C     C_R   0.531628 0.933437 0.388701 -0.264406
C11   C     C_R   0.494719 0.872381 0.500043 -0.133053
C12   C     C_3   0.947978 0.506272 0.641942 -0.460365
C13   C     C_R   0.384863 0.340779 0.142036 -0.160139
C14   C     C_R   0.326539 0.265028 0.072917 -0.223290
C15   C     C_R   0.325549 0.266784 0.933240 -0.197899
C16   C     C_R   0.495342 0.739422 0.499942 0.883150
C17   C     C_R   0.383542 0.343252 0.861919 -0.133720
C18   C     C_R   0.442295 0.423202 0.928631 0.114026
C19   C     C_R   0.442791 0.422422 0.073215 0.150999
C20   C     C_R   0.555146 0.572814 0.072397 -0.158860
C21   C     C_R   0.557576 0.571326 0.929602 0.173515
C22   C     C_R   0.661667 0.499486 0.499139 0.895774
C23   C     C_3   0.916841 0.476693 0.495910 0.298930
C24   C     C_3   0.045429 0.495061 0.648102 -0.405797
C25   C     C_3   0.049352 0.355719 0.436874 0.015302
C26   C     C_3   0.948342 0.341625 0.450915 0.206911
C27   C     C_1   0.750310 0.491501 0.496614 -0.224575
C28   C     C_3   0.082768 0.480708 0.503500 0.298853
C29   C     C_3   0.571311 0.120185 0.252719 -0.391266
C30   C     C_3   0.656284 0.193468 0.265087 -0.306202
C31   C     C_3   0.675336 0.268924 0.136894 -0.869414
C32   C     C_3   0.365084 0.885560 0.962881 -0.441785
C33   C     C_3   0.417716 0.852902 0.085587 -0.844909
C34   C     C_3   0.955085 0.586476 0.408838 -0.429345
C35   C     C_3   0.627059 0.651731 0.863218 -0.366766
C36   C     C_3   0.713777 0.589167 0.862021 -0.314332
C37   C     C_3   0.762723 0.606756 0.993401 -0.925667
C38   C     C_3   0.104762 0.238578 0.455250 -0.386158
C39   C     C_3   0.128522 0.199347 0.598587 -0.877856
C40   C     C_3   0.917765 0.245370 0.565700 -0.384402
C41   C     C_3   0.908341 0.104935 0.531707 -0.386604
C42   C     C_3   0.883480 0.028414 0.657250 -0.899317
C43   C     C_3   0.908684 0.292703 0.314017 -0.431117
C44   C     C_3   0.915896 0.374776 0.185688 -0.373410
C45   C     C_3   0.052659 0.590742 0.416348 -0.477134
C46   C     C_3   0.908672 0.296231 0.057473 -0.919347
C47   C     C_1   0.825330 0.483780 0.494671 -0.122720
C48   C     C_1   0.174322 0.489736 0.505596 -0.090295
C49   C     C_1   0.249636 0.495829 0.503596 -0.199727
C50   C     C_R   0.508151 0.111296 0.759865 -0.210296
H1    H     H_    0.915901 0.445768 0.719602 0.160920
H2    H     H_    0.060733 0.414846 0.712985 0.178891
H3    H     H_    0.383438 0.331198 0.248978 0.205623
H4    H     H_    0.282669 0.203271 0.128180 0.143215
H5    H     H_    0.281170 0.206012 0.879579 0.146144
H6    H     H_    0.382049 0.334347 0.755015 0.209564
H7    H     H_    0.062224 0.372301 0.328120 0.108670
H8    H     H_    0.074965 0.681133 0.460928 0.190789
H9    H     H_    0.080089 0.587166 0.312418 0.167758
H10   H     H_    0.931928 0.676438 0.448129 0.179864
H11   H     H_    0.688028 0.205879 0.050951 0.244622
H12   H     H_    0.073736 0.579877 0.696923 0.174435
H13   H     H_    0.621096 0.327337 0.111416 0.273480
H14   H     H_    0.731501 0.331762 0.152930 0.258225
H15   H     H_    0.655581 0.257805 0.352186 0.228744
H16   H     H_    0.708119 0.127637 0.281780 0.195663
H17   H     H_    0.580645 0.047843 0.174345 0.174374
H18   H     H_    0.520938 0.177818 0.210506 0.222443
H19   H     H_    0.473351 0.798766 0.054802 0.259421
H20   H     H_    0.439988 0.939274 0.137201 0.245338
H21   H     H_    0.378057 0.796392 0.158036 0.262682
H22   H     H_    0.316514 0.953019 0.993091 0.202076
H23   H     H_    0.931485 0.602732 0.670776 0.186027
H24   H     H_    0.330600 0.799467 0.928237 0.205374
H25   H     H_    0.767239 0.706721 0.021743 0.259482
H26   H     H_    0.731727 0.551930 0.076364 0.268541
H27   H     H_    0.828183 0.573357 0.979425 0.247773
H28   H     H_    0.705530 0.487864 0.840800 0.239114
H29   H     H_    0.753501 0.631311 0.779096 0.208258
H30   H     H_    0.611034 0.675111 0.759379 0.235487
H31   H     H_    0.632372 0.743572 0.914674 0.165426
H32   H     H_    0.159359 0.277138 0.654987 0.255711
H33   H     H_    0.073946 0.158929 0.656437 0.259047
H34   H     H_    0.933933 0.585455 0.303281 0.166829
H35   H     H_    0.175640 0.125048 0.591299 0.238193
H36   H     H_    0.076440 0.158400 0.399831 0.184064
H37   H     H_    0.166320 0.257476 0.401190 0.195582
H38   H     H_    0.933408 0.038889 0.735291 0.258017
H39   H     H_    0.822032 0.059042 0.699592 0.263088
H40   H     H_    0.876280 0.928337 0.630106 0.247332
H41   H     H_    0.857471 0.088588 0.456238 0.211867
H42   H     H_    0.967678 0.068064 0.490696 0.232268
H43   H     H_    0.958106 0.256791 0.655587 0.212966
H44   H     H_    0.853271 0.270057 0.600930 0.191071
H45   H     H_    0.546315 0.194342 0.781462 0.178825
H46   H     H_    0.965939 0.239620 0.045168 0.257322
H47   H     H_    0.851615 0.232547 0.061642 0.272644
H48   H     H_    0.904140 0.358164 0.968051 0.249054
H49   H     H_    0.863391 0.441018 0.186282 0.224801
H50   H     H_    0.976998 0.428553 0.177836 0.218764
H51   H     H_    0.939001 0.203469 0.289821 0.206739
H52   H     H_    0.839843 0.270214 0.330508 0.201336
H53   H     H_    0.469247 0.096634 0.967357 0.155405
H54   H     H_    0.388643 0.795528 0.710836 0.154093
H55   H     H_    0.551945 0.880686 0.301783 0.168587
H56   H     H_    0.598689 0.633167 0.128031 0.162536
N1    N     N_R   0.499210 0.498800 0.142780 -0.136637
N2    N     N_R   0.499180 0.498720 0.857170 -0.146045
O1    O     O_R   0.500000 0.316780 0.614690 -0.647789
O2    O     O_R   0.499990 0.316750 0.385360 -0.633209
O3    O     O_R   0.377150 0.500020 0.614720 -0.634898
O4    O     O_R   0.377140 0.499990 0.385380 -0.626746
O5    O     O_R   0.500010 0.683250 0.614640 -0.640990
O6    O     O_R   0.500000 0.683220 0.385310 -0.617336
O7    O     O_R   0.622860 0.500010 0.614620 -0.635455
O8    O     O_R   0.622850 0.499980 0.385280 -0.607929
Zn1   Zn    Zn3+2 0.500010 0.500020 0.653130 0.905781
Zn2   Zn    Zn3+2 0.499990 0.499980 0.346870 0.918531

loop_
_geom_bond_atom_site_label_1
_geom_bond_atom_site_label_2
_ccdc_geom_bond_type
C24   H2    S    
C40   C41   S    
C1    C8    S    
C41   C42   S    
C31   H11   S    
C35   C36   S    
C40   H43   S    
C16   O5    A    
O2    Zn2   S    
C35   H31   S    
O1    Zn1   S    
C7    C8    A    
C32   H22   S    
C46   H48   S    
C25   C28   S    
C12   C23   S    
C25   H7    S    
C38   H36   S    
C36   C37   S    
C32   H24   S    
C30   C31   S    
C1    O2    A    
C44   H49   S    
C50   H45   S    
C35   H30   S    
C18   C19   A    
C23   C26   S    
C2    C50   A    
C1    O1    A    
C29   H17   S    
C28   C48   S    
C8    C9    A    
O7    Zn1   S    
C9    C10   A    
N1    Zn2   S    
C13   H3    S    
C33   H19   S    
C20   N1    A    
C22   O8    A    
C4    O4    A    
C5    H54   S    
C13   C14   A    
C34   H10   S    
C34   H34   S    
C31   H14   S    
C44   C46   S    
C26   C43   S    
C20   H56   S    
C38   C39   S    
C28   C45   S    
C45   H8    S    
C23   C47   S    
C13   C19   A    
C30   H15   S    
C31   H13   S    
C7    C50   A    
C6    C11   A    
C25   C26   S    
C37   H27   S    
C42   H40   S    
C15   H5    S    
C43   C44   S    
C43   H51   S    
C29   C30   S    
C25   C38   S    
C29   H18   S    
C11   C16   S    
C23   C34   S    
C17   C18   A    
C34   C45   S    
O6    Zn2   S    
C17   H6    S    
C30   H16   S    
C37   H26   S    
C33   H20   S    
O5    Zn1   S    
C22   O7    A    
C41   H41   S    
C46   H47   S    
C22   C27   S    
C42   H38   S    
C39   H35   S    
C12   H1    S    
C27   C47   T    
C15   C17   A    
C45   H9    S    
C24   H12   S    
C14   H4    S    
N2    Zn1   S    
C4    O3    A    
C24   C28   S    
C39   H32   S    
C40   H44   S    
C3    C5    A    
C36   H29   S    
C16   O6    A    
C6    C7    A    
C21   C35   S    
C9    C29   S    
C12   C24   S    
C38   H37   S    
O3    Zn1   S    
C42   H39   S    
C32   C33   S    
C2    C3    A    
C4    C49   S    
C39   H33   S    
C36   H28   S    
O4    Zn2   S    
C44   H50   S    
C26   C40   S    
C5    C6    A    
C2    H53   S    
C48   C49   T    
O8    Zn2   S    
C37   H25   S    
C3    C32   S    
C18   N2    A    
C43   H52   S    
C21   N2    A    
C10   C11   A    
C33   H21   S    
C41   H42   S    
C46   H46   S    
C20   C21   A    
C14   C15   A    
C10   H55   S    
C12   H23   S    
C19   N1    A    
