data_mof_unit_6709.cif
_audit_creation_date              2013-03-05T15:47:45-0500
_audit_creation_method            fapswitch 2.2
_symmetry_space_group_name_H-M    P1
_symmetry_Int_Tables_number       1
_space_group_crystal_system       triclinic
_cell_length_a                    10.815886
_cell_length_b                    13.094853
_cell_length_c                    11.718564
_cell_angle_alpha                 100.538556
_cell_angle_beta                  96.241208
_cell_angle_gamma                 92.907594
_cell_volume                      1617.8223399

loop_
_atom_site_label
_atom_site_type_symbol
_atom_site_description
_atom_site_fract_x
_atom_site_fract_y
_atom_site_fract_z
_atom_type_partial_charge
O1    O     O_R   0.506570 0.354460 0.582000 -0.513031
O2    O     O_R   0.493430 0.645540 0.418000 -0.513042
O3    O     O_R   0.490940 0.341410 0.386200 -0.532680
O4    O     O_R   0.509060 0.658590 0.613800 -0.532677
C1    C     C_R   0.507447 0.299303 0.478192 0.875950
C2    C     C_R   0.492553 0.700697 0.521808 0.875943
O5    O     O_R   0.327470 0.506520 0.597900 -0.564728
O6    O     O_R   0.672530 0.493480 0.402100 -0.564722
O7    O     O_R   0.311840 0.493460 0.402100 -0.535473
O8    O     O_R   0.688160 0.506540 0.597900 -0.535475
C3    C     C_R   0.262193 0.510318 0.498044 0.811667
C4    C     C_R   0.737806 0.489682 0.501956 0.811669
Cu1   Cu    Cu3+1 0.509250 0.507730 0.615930 1.125826
Cu2   Cu    Cu3+1 0.490750 0.492270 0.384070 1.125825
C5    C     C_R   0.146808 0.626129 0.692015 -0.231691
C6    C     C_R   0.853191 0.373871 0.307984 -0.231692
C7    C     C_R   0.105320 0.647155 0.802062 0.252863
C8    C     C_R   0.894679 0.352843 0.197938 0.252853
C9    C     C_R   0.996732 0.592546 0.820831 0.361804
C10   C     C_R   0.003267 0.407451 0.179169 0.361792
C11   C     C_R   0.926350 0.523784 0.726872 0.343754
C12   C     C_R   0.073650 0.476213 0.273128 0.343751
C13   C     C_R   0.956024 0.519417 0.610884 -0.058855
C14   C     C_R   0.043975 0.480581 0.389115 -0.058852
C15   C     C_R   0.076742 0.557209 0.597846 -0.003375
C16   C     C_R   0.923258 0.442789 0.402153 -0.003370
C17   C     C_R   0.873743 0.475312 0.508192 -0.056828
C18   C     C_R   0.126256 0.524687 0.491808 -0.056830
H1    H     H_    0.233276 0.665780 0.679520 0.201183
H2    H     H_    0.766722 0.334220 0.320479 0.201184
C19   C     C_R   0.482634 0.814564 0.535103 -0.248181
C20   C     C_R   0.517365 0.185436 0.464898 -0.248177
C21   C     C_R   0.479679 0.012615 0.344561 -0.084723
C22   C     C_R   0.520319 0.987384 0.655440 -0.084729
C23   C     C_R   0.498226 0.119440 0.353517 0.341945
C24   C     C_R   0.501774 0.880560 0.646484 0.341948
C25   C     C_R   0.541189 0.139735 0.565012 0.370748
C26   C     C_R   0.458806 0.860265 0.434990 0.370746
C27   C     C_R   0.516821 0.031947 0.555479 -0.064183
C28   C     C_R   0.483176 0.968053 0.444522 -0.064182
H3    H     H_    0.464872 0.964816 0.257892 0.248539
H4    H     H_    0.535126 0.035183 0.742109 0.248537
N1    N     N_R   0.523180 0.519350 0.790130 -0.271006
N2    N     N_R   0.476820 0.480650 0.209870 -0.271009
C29   C     C_R   0.379300 0.401184 0.016473 -0.130844
C30   C     C_R   0.620703 0.598814 0.983527 -0.130846
C31   C     C_R   0.391287 0.409897 0.138373 0.582834
C32   C     C_R   0.608716 0.590101 0.861627 0.582833
C33   C     C_R   0.555203 0.542103 0.160006 0.513838
C34   C     C_R   0.444794 0.457899 0.839994 0.513837
C35   C     C_R   0.544609 0.535534 0.036292 -0.130266
C36   C     C_R   0.455392 0.464466 0.963708 -0.130265
H5    H     H_    0.310520 0.343903 0.963854 0.247568
H6    H     H_    0.689486 0.656093 0.036145 0.247572
Cl1   Cl    Cl    0.047420 0.394015 0.036741 -0.360284
Cl2   Cl    Cl    0.952581 0.605979 0.963258 -0.360296
N3    N     N_R   0.179928 0.716955 0.896023 0.188989
O9    O     O_R   0.128139 0.784812 0.967933 -0.191805
O10   O     O_R   0.300935 0.717563 0.905496 -0.273947
N4    N     N_R   0.820070 0.283045 0.103977 0.188991
O11   O     O_R   0.699063 0.282442 0.094500 -0.273953
O12   O     O_R   0.871858 0.215182 0.032071 -0.191806
Cl3   Cl    Cl    0.830929 0.422650 0.761158 -0.398315
Cl4   Cl    Cl    0.169070 0.577346 0.238839 -0.398311
Cl5   Cl    Cl    0.382675 0.786816 0.300867 -0.423586
Cl6   Cl    Cl    0.617314 0.213185 0.699138 -0.423597
Cl7   Cl    Cl    0.492085 0.837395 0.779167 -0.425600
Cl8   Cl    Cl    0.507920 0.162604 0.220834 -0.425605
N5    N     N_R   0.347167 0.390104 0.768223 0.138264
O13   O     O_R   0.363632 0.291512 0.739690 -0.295608
O14   O     O_R   0.233488 0.418217 0.767216 -0.334685
N6    N     N_R   0.652816 0.609912 0.231781 0.138268
O15   O     O_R   0.766497 0.581800 0.232827 -0.334681
O16   O     O_R   0.636346 0.708508 0.260264 -0.295609
Cl9   Cl    Cl    0.705519 0.674784 0.804769 -0.476052
Cl10  Cl    Cl    0.294484 0.325214 0.195230 -0.476049

loop_
_geom_bond_atom_site_label_1
_geom_bond_atom_site_label_2
_geom_bond_distance
_ccdc_geom_bond_type
N2    C33   1.385010 A    
C9    Cl2   1.766108 S    
C22   H4    1.082068 S    
C24   Cl7   1.760380 S    
C15   C18   1.409441 A    
O5    C3    1.309756 A    
C16   C17   1.409441 A    
O1    C1    1.297459 A    
C23   Cl8   1.760381 S    
C9    C11   1.410020 A    
C34   N5    1.431494 S    
C14   C16   1.406591 A    
C31   Cl10  1.753285 S    
N3    O10   1.300911 A    
C6    H2    1.083519 S    
N4    O12   1.301032 A    
O4    Cu1   1.980307 S    
N5    O14   1.300680 A    
C21   C23   1.386108 A    
C33   C35   1.428132 A    
C33   N6    1.431493 S    
C34   C36   1.428130 A    
C13   C17   1.426366 A    
N1    C32   1.369957 A    
C22   C24   1.386107 A    
N2    C31   1.369959 A    
C1    C20   1.481213 S    
C2    C19   1.481213 S    
C29   H5    1.082005 S    
Cu1   Cu2   2.672066 S    
C32   Cl9   1.753285 S    
O2    C2    1.297462 A    
C10   Cl1   1.766109 S    
C5    H1    1.083518 S    
C29   C31   1.403225 A    
C6    C16   1.411039 A    
C30   C32   1.403226 A    
C21   C28   1.398845 A    
C4    C17   1.487346 S    
C22   C27   1.398844 A    
C20   C23   1.415560 A    
N6    O16   1.299501 A    
C27   C28   1.411173 A    
C29   C36   1.405431 A    
C30   C35   1.405432 A    
C35   C36   1.400566 A    
N4    O11   1.300916 A    
O7    Cu2   1.969805 S    
C26   Cl5   1.777280 S    
O6    C4    1.309755 A    
C25   Cl6   1.777283 S    
C30   H6    1.082004 S    
C20   C25   1.416919 A    
O7    C3    1.285955 A    
O3    Cu2   1.980310 S    
O8    C4    1.285956 A    
O4    C2    1.297523 A    
C10   C12   1.410020 A    
C11   C13   1.421975 A    
C12   C14   1.421977 A    
O1    Cu1   1.971512 S    
Cu1   N1    2.007547 S    
Cu2   N2    2.007547 S    
C8    N4    1.436255 S    
C5    C7    1.395952 A    
O6    Cu2   1.953402 S    
C14   C18   1.426368 A    
N6    O15   1.300684 A    
O3    C1    1.297523 A    
O8    Cu1   1.969805 S    
N1    C34   1.385013 A    
C19   C26   1.416916 A    
C21   H3    1.082068 S    
C25   C27   1.404410 A    
C26   C28   1.404409 A    
N3    O9    1.301034 A    
C3    C18   1.487346 S    
C7    C9    1.402720 A    
C8    C10   1.402718 A    
C13   C15   1.406590 A    
N5    O13   1.299496 A    
O2    Cu2   1.971510 S    
C11   Cl3   1.768219 S    
C5    C15   1.411039 A    
C12   Cl4   1.768218 S    
O5    Cu1   1.953401 S    
C6    C8    1.395951 A    
C19   C24   1.415560 A    
C7    N3    1.436256 S    
