data_mof_unit_25241.cif
_audit_creation_date              2012-12-10T18:01:20-0500
_audit_creation_method            fapswitch 2.2
_symmetry_space_group_name_H-M    P1
_symmetry_Int_Tables_number       1
_space_group_crystal_system       triclinic
_cell_length_a                    9.521479
_cell_length_b                    10.824247
_cell_length_c                    17.2237
_cell_angle_alpha                 90.245096
_cell_angle_beta                  86.381901
_cell_angle_gamma                 90.656901
_cell_volume                      1771.457678

loop_
_atom_site_label
_atom_site_type_symbol
_atom_type_description
_atom_site_fract_x
_atom_site_fract_y
_atom_site_fract_z
_atom_type_partial_charge
C1    C     C_R   0.500939 0.737767 0.500847 0.827697
C2    C     C_R   0.080078 0.439419 0.443217 -0.025946
C3    C     C_R   0.068684 0.560820 0.556678 -0.034376
C4    C     C_R   0.931313 0.439113 0.443354 -0.029533
C5    C     C_R   0.481977 0.498525 0.650234 0.804724
C6    C     C_R   0.517810 0.502600 0.350193 0.796601
C7    C     C_R   0.471442 0.491518 0.735204 -0.062538
C8    C     C_R   0.526015 0.517500 0.266417 -0.044328
C9    C     C_R   0.589359 0.461465 0.775759 -0.205740
C10   C     C_R   0.445720 0.608951 0.233767 -0.209111
C11   C     C_R   0.577782 0.452441 0.856367 -0.199405
C12   C     C_R   0.499074 0.262231 0.499082 0.828906
C13   C     C_R   0.451135 0.624038 0.153665 -0.223204
C14   C     C_R   0.448516 0.473831 0.897552 0.134410
C15   C     C_R   0.533696 0.545509 0.105530 0.097684
C16   C     C_R   0.328929 0.501551 0.857165 0.270362
C17   C     C_R   0.615789 0.453747 0.138050 0.266607
C18   C     C_R   0.341845 0.511739 0.776185 -0.266059
C19   C     C_R   0.612426 0.441256 0.218945 -0.264375
C20   C     C_2   0.443084 0.473998 0.982990 0.221808
C21   C     C_2   0.524167 0.555259 0.021103 0.170556
C22   C     C_3   0.519458 0.755553 0.958852 -0.705354
C23   C     C_R   0.605714 0.939480 0.538472 0.261366
C24   C     C_3   0.241474 0.415622 0.071351 -0.671362
C25   C     C_3   0.091485 0.433064 0.889292 -0.696104
C26   C     C_3   0.838770 0.413627 0.070307 -0.733970
C27   C     C_3   0.849048 0.883778 0.541846 -0.675733
C28   C     C_3   0.151052 0.116135 0.457892 -0.675775
C29   C     C_R   0.394397 0.060510 0.461329 0.261138
C30   C     C_R   0.601055 0.067761 0.537856 -0.303144
C31   C     C_R   0.399071 0.932219 0.461930 -0.305945
C32   C     C_R   0.497093 0.128413 0.499270 -0.099177
C33   C     C_R   0.502976 0.871576 0.500568 -0.097586
C34   C     C_R   0.919917 0.560517 0.556814 -0.030754
Cu1   Cu    Cu3+1 0.359340 0.499980 0.500000 0.945236
Cu2   Cu    Cu3+1 0.640660 0.500020 0.500000 0.946846
H1    H     H_    0.690360 0.444614 0.745273 0.155441
H2    H     H_    0.140598 0.390875 0.397699 0.137698
H3    H     H_    0.119992 0.610063 0.601960 0.117376
H4    H     H_    0.879998 0.389808 0.398098 0.119718
H5    H     H_    0.690480 0.679379 0.007946 0.251129
H6    H     H_    0.587260 0.820530 0.923159 0.230611
H7    H     H_    0.476633 0.805138 0.011589 0.215061
H8    H     H_    0.431375 0.725361 0.923820 0.233864
H9    H     H_    0.423009 0.311523 0.047177 0.250322
H10   H     H_    0.154047 0.349282 0.063114 0.229174
H11   H     H_    0.206277 0.509678 0.056387 0.249180
H12   H     H_    0.379101 0.668743 0.270391 0.144533
H13   H     H_    0.265663 0.414167 0.133581 0.219107
H14   H     H_    0.161709 0.614121 0.885129 0.237967
H15   H     H_    0.993191 0.460498 0.922389 0.221786
H16   H     H_    0.126847 0.343592 0.912174 0.253642
H17   H     H_    0.067995 0.421791 0.827249 0.214784
H18   H     H_    0.694602 0.281632 0.110649 0.245163
H19   H     H_    0.893447 0.345152 0.031342 0.226814
H20   H     H_    0.897505 0.423697 0.123796 0.229680
H21   H     H_    0.837989 0.503681 0.039783 0.235489
H22   H     H_    0.710132 0.909633 0.637246 0.240502
H23   H     H_    0.674261 0.370420 0.244555 0.132814
H24   H     H_    0.923018 0.832679 0.576874 0.209365
H25   H     H_    0.887140 0.980867 0.535938 0.211058
H26   H     H_    0.848410 0.840098 0.483366 0.249108
H27   H     H_    0.290090 0.090423 0.362529 0.237412
H28   H     H_    0.077097 0.167232 0.422854 0.207972
H29   H     H_    0.151596 0.159764 0.516390 0.249183
H30   H     H_    0.113007 0.019026 0.463750 0.211527
H31   H     H_    0.250310 0.536359 0.745518 0.152576
H32   H     H_    0.386533 0.693671 0.129036 0.144764
H33   H     H_    0.670254 0.430422 0.887002 0.156349
H34   H     H_    0.678541 0.120143 0.568219 0.164885
H35   H     H_    0.321630 0.879822 0.431541 0.162523
H36   H     H_    0.859394 0.609002 0.602359 0.136946
N1    N     N_R   0.147930 0.499970 0.499980 -0.155268
N2    N     N_R   0.852070 0.500030 0.500020 -0.155352
N3    N     N_2   0.602163 0.651312 0.980621 -0.441086
N4    N     N_2   0.363526 0.378339 0.022780 -0.434139
N5    N     N_2   0.198100 0.527555 0.897763 -0.433619
N6    N     N_2   0.696754 0.370887 0.089772 -0.453061
N7    N     N_2   0.709540 0.879743 0.580313 -0.419464
N8    N     N_2   0.290599 0.120260 0.419476 -0.421096
O1    O     O_R   0.381260 0.680340 0.500000 -0.594777
O2    O     O_R   0.618740 0.319660 0.500000 -0.594955
O3    O     O_R   0.618830 0.680370 0.500010 -0.549060
O4    O     O_R   0.381170 0.319630 0.499990 -0.549197
O5    O     O_R   0.367440 0.500000 0.613600 -0.593482
O6    O     O_R   0.632560 0.500000 0.386400 -0.587831
O7    O     O_R   0.605010 0.500030 0.613600 -0.589996
O8    O     O_R   0.394990 0.499970 0.386400 -0.587559

loop_
_geom_bond_atom_site_label_1
_geom_bond_atom_site_label_2
_ccdc_geom_bond_type
C28   H30   S    
Cu1   Cu2   S    
C26   H19   S    
Cu1   O1    S    
C1    C33   S    
C12   O4    A    
C26   N6    S    
H9    N4    S    
C25   N5    S    
C25   H17   S    
C29   C32   A    
C27   N7    S    
C27   H24   S    
C11   C14   A    
Cu2   O3    S    
C1    O1    A    
C6    O8    A    
C20   N4    S    
C7    C9    A    
C16   N5    S    
C27   H25   S    
C22   H8    S    
C4    H4    S    
Cu2   O2    S    
C23   C33   A    
C31   C33   A    
C4    N2    A    
C5    O5    A    
C31   H35   S    
C3    H3    S    
C12   C32   S    
C22   N3    S    
C28   N8    S    
C30   H34   S    
H27   N8    S    
Cu2   O7    S    
C8    C19   A    
C23   C30   A    
C14   C20   S    
C5    C7    S    
C24   N4    S    
C6    C8    S    
C3    C34   A    
C19   H23   S    
C18   H31   S    
C2    C4    A    
C25   H15   S    
C27   H26   S    
H5    N3    S    
Cu1   O8    S    
C2    H2    S    
C22   H7    S    
C7    C18   A    
C9    H1    S    
C12   O2    A    
C9    C11   A    
C2    N1    A    
Cu2   N2    S    
H22   N7    S    
C34   N2    A    
C28   H28   S    
C16   C18   A    
C13   C15   A    
C10   H12   S    
C14   C16   A    
H14   N5    S    
C34   H36   S    
C24   H13   S    
C15   C17   A    
Cu1   N1    S    
C24   H11   S    
C10   C13   A    
C26   H20   S    
Cu1   O4    S    
C11   H33   S    
C1    O3    A    
C21   N3    S    
C6    O6    A    
Cu2   O6    S    
C28   H29   S    
C25   H16   S    
C24   H10   S    
C29   C31   A    
C30   C32   A    
Cu1   O5    S    
C22   H6    S    
C29   N8    S    
C17   N6    S    
C17   C19   A    
C3    N1    A    
C26   H21   S    
C5    O7    A    
C15   C21   S    
C20   C21   D    
C8    C10   A    
C23   N7    S    
H18   N6    S    
C13   H32   S    
