data_mof_unit_6412.cif
_audit_creation_date              2013-03-05T15:47:37-0500
_audit_creation_method            fapswitch 2.2
_symmetry_space_group_name_H-M    P1
_symmetry_Int_Tables_number       1
_space_group_crystal_system       triclinic
_cell_length_a                    10.83876
_cell_length_b                    13.083287
_cell_length_c                    11.784786
_cell_angle_alpha                 100.332958
_cell_angle_beta                  95.317071
_cell_angle_gamma                 92.444156
_cell_volume                      1633.98443789

loop_
_atom_site_label
_atom_site_type_symbol
_atom_site_description
_atom_site_fract_x
_atom_site_fract_y
_atom_site_fract_z
_atom_type_partial_charge
O1    O     O_R   0.506570 0.354460 0.582000 -0.650793
O2    O     O_R   0.490940 0.341410 0.386200 -0.518254
C1    C     C_R   0.505070 0.298835 0.478074 0.817212
O3    O     O_R   0.327470 0.506530 0.597920 -0.593754
O4    O     O_R   0.311840 0.493480 0.402120 -0.499211
C2    C     C_R   0.262508 0.509770 0.499528 0.832827
Cu1   Cu    Cu3+1 0.509250 0.507730 0.615930 1.032531
Cu2   Cu    Cu3+1 0.490750 0.492270 0.384070 1.102851
O5    O     O_R   0.509060 0.658590 0.613800 -0.512121
O6    O     O_R   0.493430 0.645540 0.418000 -0.597934
O7    O     O_R   0.688160 0.506520 0.597880 -0.557726
O8    O     O_R   0.672530 0.493470 0.402080 -0.555063
C3    C     C_R   0.493168 0.700541 0.522232 0.878683
C4    C     C_R   0.737197 0.488284 0.500145 0.890845
C5    C     C_R   0.132650 0.607511 0.704952 -0.120040
C6    C     C_R   0.097859 0.591988 0.813600 0.365279
C7    C     C_R   0.999254 0.520089 0.817148 0.294029
C8    C     C_R   0.924301 0.476392 0.714565 0.286948
C9    C     C_R   0.953013 0.499719 0.606843 -0.068638
C10   C     C_R   0.072411 0.544069 0.602667 -0.119606
C11   C     C_R   0.126997 0.522165 0.497057 -0.231489
C12   C     C_R   0.049648 0.488941 0.392507 0.370597
C13   C     C_R   0.925234 0.459331 0.395613 0.355600
C14   C     C_R   0.872706 0.474630 0.501855 -0.194573
C15   C     C_R   0.477572 0.813865 0.537194 -0.320553
C16   C     C_R   0.509728 0.183543 0.464045 -0.104849
C17   C     C_R   0.477843 0.009353 0.342945 -0.069325
C18   C     C_R   0.495902 0.118242 0.352685 -0.095042
C19   C     C_R   0.526858 0.136819 0.563106 -0.095527
C20   C     C_R   0.493691 0.030496 0.554667 -0.069165
C21   C     C_R   0.469391 0.965723 0.444165 0.029204
C22   C     C_R   0.443482 0.858158 0.439132 0.292026
C23   C     C_R   0.491847 0.879582 0.647818 0.349688
C24   C     C_R   0.486221 0.986740 0.655366 0.348697
N1    N     N_R   0.523180 0.519350 0.790130 -0.248444
N2    N     N_R   0.476820 0.480650 0.209890 -0.249040
C25   C     C_R   0.383159 0.401817 0.019233 -0.196939
C26   C     C_R   0.394566 0.409166 0.139605 0.608684
C27   C     C_R   0.549997 0.546572 0.160660 0.108500
C28   C     C_R   0.539470 0.542878 0.037070 -0.026384
C29   C     C_R   0.455014 0.468085 0.965709 -0.058763
C30   C     C_R   0.444642 0.460209 0.842279 0.120378
C31   C     C_R   0.610713 0.588704 0.859376 0.138076
C32   C     C_R   0.611494 0.608656 0.981111 0.257184
H1    H     H_    0.317918 0.342455 0.968368 0.211636
Cl1   Cl    Cl    0.099826 0.497514 0.255675 -0.318944
Cl2   Cl    Cl    0.458339 0.063411 0.790215 -0.492133
C33   C     C_2   0.517881 0.159694 0.246302 0.481484
H2    H     H_    0.453274 0.138454 0.168772 0.097383
O9    O     O_2   0.612199 0.212961 0.242725 -0.436679
C34   C     C_2   0.608348 0.190099 0.666899 0.572824
H3    H     H_    0.583970 0.261048 0.720104 0.100377
O10   O     O_2   0.703199 0.150679 0.697064 -0.412296
C35   C     C_2   0.350941 0.384562 0.770365 0.474996
H4    H     H_    0.378040 0.313470 0.719701 0.072408
O11   O     O_2   0.240629 0.398190 0.773266 -0.518860
C36   C     C_2   0.718528 0.636738 0.814379 0.568194
H5    H     H_    0.809229 0.637644 0.861390 0.073946
O12   O     O_2   0.709258 0.684363 0.734849 -0.482986
Cl3   Cl    Cl    0.696704 0.724659 0.055173 -0.441909
Cl4   Cl    Cl    0.300554 0.321763 0.195666 -0.503346
C37   C     C_2   0.645390 0.616787 0.236370 0.603128
H6    H     H_    0.621442 0.690731 0.283626 0.125097
O13   O     O_2   0.754384 0.596800 0.238431 -0.452782
C38   C     C_2   0.216337 0.697933 0.694642 0.562511
H7    H     H_    0.248013 0.705190 0.611717 0.021541
O14   O     O_2   0.243659 0.769547 0.776146 -0.417433
Cl5   Cl    Cl    0.184701 0.651951 0.945123 -0.361519
Cl6   Cl    Cl    0.967036 0.487027 0.950981 -0.329820
Cl7   Cl    Cl    0.816607 0.373723 0.720005 -0.517227
Cl8   Cl    Cl    0.841792 0.388529 0.266920 -0.343911
Cl9   Cl    Cl    0.343332 0.784026 0.322447 -0.488604
Cl10  Cl    Cl    0.513521 0.833645 0.780377 -0.370493
C39   C     C_2   0.486617 0.942394 0.228255 0.551161
H8    H     H_    0.434590 0.958148 0.150773 0.103134
O15   O     O_2   0.556430 0.871389 0.219339 -0.457489

loop_
_geom_bond_atom_site_label_1
_geom_bond_atom_site_label_2
_geom_bond_distance
_ccdc_geom_bond_type
C8    Cl7   1.755554 S    
C7    Cl6   1.769323 S    
C29   C30   1.433192 A    
C9    C10   1.404232 A    
Cu1   Cu2   2.691462 S    
C22   Cl9   1.779058 S    
Cu1   O7    1.970713 S    
C19   C20   1.405438 A    
C39   O15   1.219134 D    
C25   C26   1.397996 A    
C20   C21   1.415935 A    
O7    C4    1.300664 A    
C36   O12   1.214145 D    
C5    C6    1.413891 A    
C5    C38   1.489136 S    
C8    C9    1.416223 A    
Cu2   N2    2.021889 S    
C4    C14   1.485848 S    
N1    C30   1.382890 A    
O5    C3    1.296719 A    
C37   O13   1.219786 D    
C18   C33   1.486905 S    
C6    C7    1.401962 A    
C38   O14   1.220221 D    
C13   C14   1.408447 A    
C6    Cl5   1.770377 S    
C17   C39   1.486435 S    
N1    C31   1.380889 A    
C26   Cl4   1.754647 S    
C15   C22   1.409685 A    
C33   O9    1.220782 D    
C11   C12   1.412522 A    
C3    C15   1.480205 S    
O3    Cu1   1.961103 S    
C7    C8    1.406682 A    
N2    C27   1.384185 A    
C5    C10   1.420300 A    
C35   O11   1.219059 D    
C39   H8    1.084544 S    
C20   C24   1.414263 A    
C17   C21   1.420284 A    
C34   H3    1.080478 S    
C13   Cl8   1.773851 S    
O3    C2    1.308030 A    
C27   C28   1.442282 A    
C2    C11   1.482747 S    
C34   O10   1.221707 D    
C31   C32   1.410521 A    
C37   H6    1.080908 S    
C21   C22   1.412845 A    
Cu2   O8    1.961102 S    
C23   C24   1.393106 A    
C23   Cl10  1.771339 S    
C33   H2    1.084494 S    
C12   Cl1   1.769431 S    
O8    C4    1.309012 A    
C25   H1    1.081729 S    
C19   C34   1.484452 S    
Cu1   O5    1.978486 S    
C27   C37   1.470719 S    
C35   H4    1.079101 S    
C28   C29   1.410127 A    
O1    Cu1   1.971573 S    
Cu1   N1    2.022123 S    
C1    C16   1.491218 S    
O2    Cu2   1.978486 S    
O6    C3    1.307826 A    
O4    Cu2   1.970713 S    
C16   C18   1.423047 A    
N2    C26   1.367376 A    
C9    C14   1.423571 A    
C30   C35   1.477523 S    
C36   H5    1.081314 S    
O4    C2    1.297988 A    
C32   Cl3   1.781578 S    
O2    C1    1.303417 A    
C25   C29   1.409163 A    
C31   C36   1.487784 S    
C28   C32   1.423600 A    
C10   C11   1.415677 A    
C16   C19   1.412987 A    
Cu2   O6    1.971573 S    
C38   H7    1.083788 S    
C17   C18   1.412243 A    
C12   C13   1.392666 A    
C24   Cl2   1.779327 S    
O1    C1    1.305921 A    
C15   C23   1.418431 A    
