data_mof_unit_47120.cif
_audit_creation_date              2012-12-11T15:54:08-0500
_audit_creation_method            fapswitch 2.2
_symmetry_space_group_name_H-M    P1
_symmetry_Int_Tables_number       1
_space_group_crystal_system       triclinic
_cell_length_a                    10.649292
_cell_length_b                    10.766841
_cell_length_c                    17.028478
_cell_angle_alpha                 80.57338
_cell_angle_beta                  99.2588
_cell_angle_gamma                 118.674383
_cell_volume                      1682.23209326

loop_
_atom_site_label
_atom_site_type_symbol
_atom_type_description
_atom_site_fract_x
_atom_site_fract_y
_atom_site_fract_z
_atom_type_partial_charge
C1    C     C_R   0.357027 0.220707 0.625510 0.563293
C2    C     C_1   0.291830 0.106423 0.771266 -0.026753
C3    C     C_1   0.335609 0.663822 0.277799 -0.026623
C4    C     C_R   0.368515 0.654871 0.585810 0.555087
C5    C     C_1   0.323064 0.673280 0.207010 -0.021557
C6    C     C_R   0.841880 0.670347 0.161292 -0.019968
C7    C     C_R   0.884639 0.585506 0.217822 0.099201
C8    C     C_R   0.887454 0.587244 0.298143 -0.028330
C9    C     C_R   0.795620 0.758574 0.268133 -0.102767
C10   C     C_R   0.804605 0.763756 0.186958 -0.167162
C11   C     C_3   0.829916 0.428820 0.223094 0.151055
C12   C     C_R   0.397257 0.829207 0.675213 -0.148855
C13   C     C_3   0.846439 0.431298 0.312639 -0.239429
C14   C     C_R   0.831353 0.665276 0.324242 0.013776
C15   C     C_R   0.300250 0.119049 0.171936 -0.001283
C16   C     C_R   0.776903 0.618716 0.626771 0.555160
C17   C     C_R   0.179821 0.091812 0.207949 -0.000002
C18   C     C_R   0.188367 0.104024 0.287362 0.076845
C19   C     C_R   0.430966 0.137132 0.303537 -0.163375
C20   C     C_R   0.421814 0.125676 0.221878 -0.166220
C21   C     C_3   0.074332 0.148045 0.185488 -0.210403
C22   C     C_3   0.080259 0.158989 0.273897 0.170346
C23   C     C_R   0.382136 0.851198 0.751190 -0.165489
C24   C     C_R   0.319278 0.143740 0.334198 -0.006293
C25   C     C_R   0.892235 0.702233 0.855847 0.534443
C26   C     C_R   0.281620 0.751295 0.882900 0.542427
C27   C     C_R   0.251956 0.057524 0.851333 0.530392
C28   C     C_R   0.349945 0.222445 0.401727 0.543562
C29   C     C_R   0.885405 0.690296 0.082967 0.541898
C30   C     C_R   0.312936 0.701006 0.123836 0.556315
C31   C     C_R   0.281125 0.099323 0.088244 0.554993
C32   C     C_R   0.365215 0.653973 0.360850 0.548335
C33   C     C_R   0.772051 0.622518 0.399973 0.550646
C34   C     C_3   0.107493 0.468273 0.791285 0.341355
C35   C     C_R   0.278989 0.740854 0.797870 -0.052174
C36   C     C_R   0.174229 0.621954 0.760289 -0.016932
C37   C     C_R   0.190427 0.598013 0.685532 -0.026689
C38   C     C_3   0.900375 0.116444 0.351736 -0.129254
C39   C     C_3   0.349185 0.437928 0.759791 -0.134712
C40   C     C_3   0.990832 0.361441 0.587736 -0.033600
C41   C     C_3   0.854511 0.297325 0.137697 -0.087672
C42   C     C_3   0.125001 0.439153 0.709642 0.544583
C43   C     C_R   0.312344 0.694708 0.645857 -0.028551
C44   C     C_1   0.823406 0.656661 0.705930 0.005260
C45   C     C_1   0.851282 0.684880 0.773644 -0.007193
C46   C     C_1   0.327168 0.152038 0.704535 -0.012516
Cr1   Cr    Cr6+3 0.608440 0.389080 0.519680 1.020526
Cr2   Cr    Cr6+3 0.288640 0.400090 0.490760 0.990342
Cr3   Cr    Cr6+3 0.602940 0.710800 0.489510 1.011242
Cr4   Cr    Cr6+3 0.052530 0.947560 0.964210 1.037200
Cr5   Cr    Cr6+3 0.059970 0.626800 0.992920 1.059954
Cr6   Cr    Cr6+3 0.373320 0.938440 0.995370 1.010963
F1    F     F_    0.965432 0.419254 0.804336 -0.581781
H1    H     H_    0.486832 0.911954 0.644312 0.157578
H2    H     H_    0.458958 0.949735 0.775805 0.158294
H3    H     H_    0.169841 0.441632 0.843820 0.102217
H4    H     H_    0.747614 0.817319 0.285569 0.189898
H5    H     H_    0.776713 0.835202 0.144406 0.131889
H6    H     H_    0.853064 0.177777 0.311358 0.138254
H7    H     H_    0.984584 0.183500 0.396145 0.128462
H8    H     H_    0.813054 0.029547 0.385456 0.140559
H9    H     H_    0.388899 0.550314 0.769771 0.079658
H10   H     H_    0.434250 0.435911 0.730950 0.150235
H11   H     H_    0.339136 0.373957 0.818688 0.144580
H12   H     H_    0.714495 0.372624 0.199018 0.077741
H13   H     H_    0.053872 0.309866 0.576738 0.173021
H14   H     H_    0.031169 0.471106 0.557132 0.106879
H15   H     H_    0.879453 0.298686 0.560826 0.105691
H16   H     H_    0.780421 0.325280 0.093584 0.127703
H17   H     H_    0.793874 0.187711 0.166667 0.106833
H18   H     H_    0.934508 0.299822 0.102503 0.136697
H19   H     H_    0.742605 0.362645 0.338189 0.121032
H20   H     H_    0.937855 0.414465 0.344074 0.137579
H21   H     H_    0.529908 0.155063 0.340134 0.123309
H22   H     H_    0.511325 0.128677 0.197642 0.126184
H23   H     H_    0.968969 0.068595 0.159464 0.157424
H24   H     H_    0.122521 0.253396 0.149772 0.103199
H25   H     H_    0.122668 0.271486 0.286615 0.151304
O1    O     O_R   0.754020 0.497590 0.609930 -0.465789
O2    O     O_R   0.406180 0.826930 0.920660 -0.511849
O3    O     O_R   0.358620 0.062870 0.901950 -0.511822
O4    O     O_R   0.481420 0.271390 0.600630 -0.495231
O5    O     O_R   0.163910 0.085460 0.050210 -0.512862
O6    O     O_R   0.935200 0.815170 0.045770 -0.501445
O7    O     O_R   0.916120 0.596690 0.069430 -0.494472
O8    O     O_R   0.192310 0.631200 0.086170 -0.470554
O9    O     O_R   0.406770 0.819480 0.096420 -0.522245
O10   O     O_R   0.359170 0.055960 0.064880 -0.504046
O11   O     O_3   0.161940 0.837600 0.984160 -0.301905
O12   O     O_R   0.295080 0.533620 0.397890 -0.516558
O13   O     O_R   0.263810 0.254550 0.589590 -0.488546
O14   O     O_R   0.300820 0.531200 0.560890 -0.494088
O15   O     O_R   0.491480 0.744020 0.564270 -0.520140
O16   O     O_R   0.726290 0.693800 0.583010 -0.506741
O17   O     O_R   0.747830 0.500190 0.434090 -0.540603
O18   O     O_R   0.475680 0.273800 0.437630 -0.510986
O19   O     O_R   0.257620 0.257160 0.413750 -0.538496
O20   O     O_3   0.952351 0.055275 0.306766 -0.574599
O21   O     O_3   0.217067 0.376360 0.710737 -0.546357
O22   O     O_3   0.986447 0.359088 0.670218 -0.481146
O23   O     O_R   0.485280 0.746620 0.388440 -0.523426
O24   O     O_3   0.927216 0.394265 0.196251 -0.551971
O25   O     O_R   0.720550 0.696220 0.420010 -0.502132
O26   O     O_3   0.500010 0.499990 0.499980 -0.249687
O27   O     O_R   0.163320 0.092900 0.874450 -0.477434
O28   O     O_R   0.934650 0.822080 0.882840 -0.512968
O29   O     O_R   0.915520 0.604140 0.893670 -0.463402
O30   O     O_R   0.191760 0.638110 0.923230 -0.488335

loop_
_geom_bond_atom_site_label_1
_geom_bond_atom_site_label_2
_ccdc_geom_bond_type
C28   O19   A    
C34   H3    S    
C8    C13   S    
C22   O20   S    
C19   C20   A    
C34   C42   S    
Cr1   O1    S    
C38   O20   S    
Cr5   O7    S    
Cr3   O26   S    
Cr4   O6    S    
C7    C8    A    
C2    C46   T    
C7    C11   S    
Cr2   O19   S    
C12   C23   A    
C18   C24   A    
C36   C37   A    
C10   H5    S    
C12   C43   A    
Cr3   O23   S    
C1    C46   S    
C27   O27   A    
Cr2   O26   S    
C31   O5    A    
C41   O24   S    
Cr1   O4    S    
C37   C42   S    
C32   O12   A    
C35   C36   A    
Cr5   O30   S    
Cr2   O13   S    
C25   O28   A    
Cr4   O27   S    
Cr1   O18   S    
C2    C27   S    
Cr1   O26   S    
Cr3   O16   S    
C30   O8    A    
C9    C10   A    
C16   C44   S    
C29   O7    A    
C41   H18   S    
C38   H8    S    
C1    O13   A    
C40   H13   S    
C21   C22   S    
Cr6   O11   S    
Cr6   O3    S    
C14   C33   S    
C33   O17   A    
Cr5   O8    S    
Cr4   O5    S    
Cr6   O9    S    
C15   C20   A    
Cr6   O10   S    
C22   H25   S    
C29   O6    A    
C26   O30   A    
C1    O4    A    
C40   H14   S    
C26   O2    A    
C38   H6    S    
C20   H22   S    
C37   C43   A    
C9    C14   A    
Cr3   O25   S    
C39   H11   S    
C42   O22   S    
Cr4   O11   S    
C39   O21   S    
C21   H23   S    
C27   O3    A    
C17   C18   A    
C15   C31   S    
C38   H7    S    
C13   H19   S    
C13   H20   S    
C23   C35   A    
Cr2   O14   S    
C25   C45   S    
C44   C45   T    
C25   O29   A    
C41   H16   S    
C5    C30   S    
C15   C17   A    
C39   H9    S    
C8    C14   A    
C31   O10   A    
C33   O25   A    
C19   H21   S    
C24   C28   S    
C3    C5    T    
C40   O22   S    
C23   H2    S    
C6    C7    A    
C4    C43   S    
C39   H10   S    
C16   O16   A    
C28   O18   A    
C16   O1    A    
C18   C22   S    
C19   C24   A    
C42   O21   S    
Cr5   O11   S    
C11   C13   S    
C34   C36   S    
C11   O24   S    
C9    H4    S    
C3    C32   S    
C17   C21   S    
C6    C10   A    
C4    O15   A    
C26   C35   S    
C6    C29   S    
C34   F1    S    
Cr5   O29   S    
C40   H15   S    
C21   H24   S    
Cr4   O28   S    
Cr1   O17   S    
C32   O23   A    
Cr2   O12   S    
Cr3   O15   S    
C30   O9    A    
Cr6   O2    S    
C12   H1    S    
C11   H12   S    
C41   H17   S    
C4    O14   A    
