data_mof_unit_32607.cif
_audit_creation_date              2012-12-10T17:04:28-0500
_audit_creation_method            fapswitch 2.2
_symmetry_space_group_name_H-M    P1
_symmetry_Int_Tables_number       1
_space_group_crystal_system       triclinic
_cell_length_a                    14.936651
_cell_length_b                    10.606422
_cell_length_c                    10.123163
_cell_angle_alpha                 90.737651
_cell_angle_beta                  88.844869
_cell_angle_gamma                 90.857568
_cell_volume                      1603.12395293

loop_
_atom_site_label
_atom_site_type_symbol
_atom_type_description
_atom_site_fract_x
_atom_site_fract_y
_atom_site_fract_z
_atom_type_partial_charge
C1    C     C_R   0.500441 0.262268 0.498678 0.901158
C2    C     C_R   0.184909 0.385054 0.514444 0.411869
C3    C     C_R   0.232171 0.500436 0.507023 -0.293246
C4    C     C_R   0.327587 0.500162 0.501481 0.834604
C5    C     C_R   0.188775 0.616834 0.507464 0.363374
C6    C     C_2   0.442376 0.931160 0.397864 0.477244
C7    C     C_2   0.459032 0.863609 0.505768 -0.369533
C8    C     C_2   0.439890 0.068304 0.415026 0.331293
C9    C     C_2   0.500983 0.127284 0.492072 0.192272
C10   C     C_2   0.566439 0.542873 0.923864 0.671094
C11   C     C_2   0.556504 0.565752 0.071892 0.548999
C12   C     C_R   0.907432 0.622157 0.501417 -0.083456
C13   C     C_R   0.490453 0.736388 0.500981 0.920725
C14   C     C_R   0.672307 0.501191 0.498889 0.943927
C15   C     C_R   0.813645 0.621824 0.494061 0.331231
C16   C     C_R   0.767498 0.505490 0.497420 -0.181420
C17   C     C_R   0.810784 0.390939 0.504367 0.365046
C18   C     C_R   0.903387 0.390474 0.523800 -0.119011
C19   C     C_R   0.952432 0.505322 0.511690 -0.105489
C20   C     C_3   0.663237 0.691739 0.840069 -0.175643
C21   C     C_3   0.361185 0.421172 0.873837 0.010890
C22   C     C_3   0.367679 0.819520 0.238362 -0.188434
C23   C     C_R   0.947749 0.278530 0.556350 0.289497
C24   C     C_R   0.041272 0.274237 0.547121 0.487991
C25   C     C_R   0.091059 0.386509 0.522707 -0.031432
C26   C     C_R   0.046433 0.503291 0.510493 -0.171183
C27   C     C_R   0.095708 0.618014 0.496184 -0.091894
C28   C     C_R   0.050228 0.732656 0.479480 0.431688
C29   C     C_R   0.957909 0.735982 0.493832 0.424870
H1    H     H_    0.450700 0.906101 0.603626 0.160704
H2    H     H_    0.337995 0.373438 0.965333 0.154241
H3    H     H_    0.607134 0.655957 0.221290 0.389154
H4    H     H_    0.438829 0.349154 0.167965 0.400471
H5    H     H_    0.798034 0.220914 0.434519 0.388606
H6    H     H_    0.851381 0.204843 0.661793 0.377944
H7    H     H_    0.042874 0.090382 0.568671 0.414633
H8    H     H_    0.292442 0.281083 0.533592 0.335887
H9    H     H_    0.293300 0.716205 0.565720 0.331781
H10   H     H_    0.137273 0.825648 0.376182 0.356479
H11   H     H_    0.882403 0.857561 0.578785 0.372596
H12   H     H_    0.704498 0.721725 0.468000 0.332040
H13   H     H_    0.378852 0.763427 0.146383 0.198923
H14   H     H_    0.314392 0.888079 0.218640 0.140767
H15   H     H_    0.344090 0.752832 0.315803 0.177825
H16   H     H_    0.334962 0.079826 0.305563 0.358649
H17   H     H_    0.607868 0.123940 0.599001 0.372557
H18   H     H_    0.694247 0.739151 0.926455 0.217604
H19   H     H_    0.601009 0.741389 0.813400 0.156887
H20   H     H_    0.711203 0.701783 0.755655 0.187543
H21   H     H_    0.391413 0.348467 0.807229 0.162696
H22   H     H_    0.300021 0.458646 0.829133 0.149181
N1    N     N_2   0.500970 0.501330 0.852150 0.027519
N2    N     N_2   0.500990 0.501360 0.147810 -0.016244
O1    O     O_R   0.499990 0.319060 0.613040 -0.648789
O2    O     O_3   0.377594 0.138222 0.349186 -0.769282
O3    O     O_3   0.568521 0.062423 0.552500 -0.779591
O4    O     O_3   0.649673 0.561910 0.864439 -0.625391
O5    O     O_3   0.419141 0.522699 0.906993 -0.585795
O6    O     O_3   0.612322 0.657320 0.124494 -0.789364
O7    O     O_3   0.475986 0.388917 0.097688 -0.707243
O8    O     O_3   0.760662 0.281651 0.485393 -0.758991
O9    O     O_3   0.902323 0.174575 0.606328 -0.742238
O10   O     O_3   0.085360 0.162904 0.570382 -0.647555
O11   O     O_3   0.228329 0.270277 0.513601 -0.662984
O12   O     O_R   0.500010 0.319100 0.386900 -0.567754
O13   O     O_3   0.235085 0.730048 0.523967 -0.759634
O14   O     O_3   0.093787 0.844362 0.448881 -0.650655
O15   O     O_3   0.919190 0.853006 0.496225 -0.628989
O16   O     O_3   0.448876 0.881619 0.270450 -0.567188
O17   O     O_R   0.367830 0.499950 0.613080 -0.642744
O18   O     O_R   0.367860 0.499990 0.386940 -0.605422
O19   O     O_R   0.499990 0.680900 0.613100 -0.630649
O20   O     O_R   0.500010 0.680940 0.386960 -0.609171
O21   O     O_R   0.632140 0.500010 0.613060 -0.571588
O22   O     O_R   0.632170 0.500050 0.386920 -0.627020
O23   O     O_3   0.769789 0.734606 0.476076 -0.721507
Zn1   Zn    Zn3+2 0.499980 0.499970 0.650990 1.003782
Zn2   Zn    Zn3+2 0.500020 0.500030 0.349010 1.020287

loop_
_geom_bond_atom_site_label_1
_geom_bond_atom_site_label_2
_ccdc_geom_bond_type
C6    O16   S    
C12   C29   A    
C10   N1    D    
C4    O17   A    
C21   H2    S    
C26   C27   A    
O19   Zn1   S    
C14   O21   A    
C28   C29   A    
C15   C16   A    
C18   C19   A    
C19   C26   A    
C17   O8    S    
C5    C27   A    
C23   O9    S    
C22   H15   S    
H9    O13   S    
C8    C9    D    
O21   Zn1   S    
C1    O12   A    
O20   Zn2   S    
C2    C25   A    
H7    O10   S    
C22   O16   S    
C11   N2    D    
O1    Zn1   S    
C15   O23   S    
C7    H1    S    
O17   Zn1   S    
C11   O6    S    
C8    O2    S    
C21   H21   S    
N2    O7    S    
C2    O11   S    
C18   C23   A    
C10   O4    S    
C1    C9    S    
C24   C25   A    
C16   C17   A    
C6    C8    S    
C25   C26   A    
H5    O8    S    
C1    O1    A    
C20   H20   S    
C29   O15   S    
C22   H14   S    
C12   C15   A    
C23   C24   A    
C28   O14   S    
C17   C18   A    
C9    O3    S    
C20   H19   S    
N1    O5    S    
C13   O20   A    
H4    O7    S    
C14   C16   S    
N1    Zn1   S    
C21   H22   S    
H8    O11   S    
O12   Zn2   S    
H10   O14   S    
C5    O13   S    
C3    C5    A    
C6    C7    D    
C13   O19   A    
C24   O10   S    
C14   O22   A    
C2    C3    A    
C21   O5    S    
H12   O23   S    
C22   H13   S    
C12   C19   A    
N2    Zn2   S    
H6    O9    S    
O18   Zn2   S    
O22   Zn2   S    
C20   H18   S    
C10   C11   S    
C7    C13   S    
H16   O2    S    
H11   O15   S    
H17   O3    S    
C27   C28   A    
H3    O6    S    
C20   O4    S    
C4    O18   A    
C3    C4    S    
