data_mof_unit_63560.cif
_audit_creation_date              2012-12-10T18:01:30-0500
_audit_creation_method            fapswitch 2.2
_symmetry_space_group_name_H-M    P1
_symmetry_Int_Tables_number       1
_space_group_crystal_system       triclinic
_cell_length_a                    18.339679
_cell_length_b                    18.293469
_cell_length_c                    25.857545
_cell_angle_alpha                 89.999987
_cell_angle_beta                  89.999985
_cell_angle_gamma                 90.001045
_cell_volume                      8675.11194679

loop_
_atom_site_label
_atom_site_type_symbol
_atom_type_description
_atom_site_fract_x
_atom_site_fract_y
_atom_site_fract_z
_atom_type_partial_charge
C1    C     C_R   0.859933 0.139956 0.750167 0.535203
C2    C     C_R   0.196423 0.195561 0.249170 -0.036371
C3    C     C_R   0.268071 0.713562 0.204837 -0.198141
C4    C     C_R   0.196423 0.195561 0.750829 -0.036371
C5    C     C_R   0.803592 0.195580 0.750810 -0.033714
C6    C     C_R   0.303586 0.695569 0.749177 -0.036382
C7    C     C_R   0.696417 0.695572 0.749183 -0.033703
C8    C     C_R   0.696417 0.695572 0.250817 -0.033703
C9    C     C_R   0.303586 0.695569 0.250823 -0.036382
C10   C     C_R   0.784445 0.229841 0.202748 0.440367
C11   C     C_R   0.215591 0.229797 0.202722 0.444646
C12   C     C_R   0.215591 0.229797 0.797277 0.444646
C13   C     C_R   0.140073 0.139948 0.750176 0.537797
C14   C     C_R   0.784447 0.229843 0.797252 0.440368
C15   C     C_R   0.284444 0.729831 0.702734 0.444647
C16   C     C_R   0.715591 0.729806 0.702736 0.440368
C17   C     C_R   0.715589 0.729808 0.297264 0.440367
C18   C     C_R   0.284443 0.729830 0.297266 0.444648
C19   C     C_R   0.228435 0.780936 0.701718 0.220507
C20   C     C_R   0.771605 0.780906 0.701719 0.221764
C21   C     C_R   0.771603 0.780908 0.298281 0.221764
C22   C     C_R   0.228435 0.780935 0.298282 0.220507
C23   C     C_R   0.728435 0.280941 0.201730 0.221604
C24   C     C_R   0.140073 0.139948 0.249824 0.537797
C25   C     C_R   0.271604 0.280902 0.201707 0.220667
C26   C     C_R   0.271604 0.280902 0.798293 0.220668
C27   C     C_R   0.728437 0.280943 0.798269 0.221604
C28   C     C_R   0.194376 0.801620 0.748757 0.008370
C29   C     C_R   0.805630 0.801622 0.748762 0.009810
C30   C     C_R   0.805630 0.801622 0.251238 0.009809
C31   C     C_R   0.194376 0.801620 0.251243 0.008370
C32   C     C_R   0.694380 0.301629 0.248768 0.009780
C33   C     C_R   0.305634 0.301613 0.248750 0.008401
C34   C     C_R   0.305634 0.301613 0.751250 0.008401
C35   C     C_R   0.859933 0.139956 0.249833 0.535204
C36   C     C_R   0.694380 0.301629 0.751232 0.009780
C37   C     C_R   0.980215 0.937565 0.973330 -0.196628
C38   C     C_R   0.980215 0.937565 0.026670 -0.196628
C39   C     C_R   0.519778 0.437563 0.473330 -0.196633
C40   C     C_R   0.519778 0.437563 0.526670 -0.196634
C41   C     C_R   0.001985 0.000330 0.053431 -0.017836
C42   C     C_R   0.001985 0.000330 0.946569 -0.017836
C43   C     C_R   0.498016 0.500331 0.553431 -0.017839
C44   C     C_R   0.498016 0.500331 0.446569 -0.017839
C45   C     C_R   0.025006 0.062934 0.026672 0.436505
C46   C     C_R   0.359929 0.639950 0.250173 0.537653
C47   C     C_R   0.025006 0.062933 0.973328 0.436504
C48   C     C_R   0.475003 0.562936 0.526672 0.436513
C49   C     C_R   0.475003 0.562936 0.473328 0.436513
C50   C     C_R   0.139587 0.859420 0.749619 0.535679
C51   C     C_R   0.860414 0.859422 0.749621 0.534101
C52   C     C_R   0.860414 0.859422 0.250379 0.534100
C53   C     C_R   0.139587 0.859420 0.250381 0.535678
C54   C     C_R   0.639589 0.359424 0.249624 0.534227
C55   C     C_R   0.360417 0.359418 0.249617 0.535548
C56   C     C_R   0.360417 0.359418 0.750383 0.535549
C57   C     C_R   0.640070 0.639953 0.250170 0.535346
C58   C     C_R   0.639589 0.359424 0.750376 0.534226
C59   C     C_R   0.000566 0.000070 0.890917 0.551796
C60   C     C_R   0.000566 0.000070 0.109082 0.551796
C61   C     C_R   0.499435 0.500070 0.390917 0.551798
C62   C     C_R   0.499435 0.500070 0.609082 0.551798
C63   C     C_R   0.000093 0.999949 0.608641 0.488021
C64   C     C_R   0.000093 0.999949 0.391358 0.488021
C65   C     C_R   0.500093 0.499949 0.108642 0.487979
C66   C     C_R   0.500093 0.499949 0.891358 0.487978
C67   C     C_3   0.960693 0.931132 0.529921 -0.228531
C68   C     C_R   0.640070 0.639953 0.749830 0.535347
C69   C     C_3   0.079753 0.999564 0.529713 -0.223103
C70   C     C_3   0.079753 0.999564 0.470287 -0.223103
C71   C     C_3   0.960693 0.931132 0.470079 -0.228532
C72   C     C_3   0.460692 0.431132 0.029921 -0.227909
C73   C     C_3   0.579753 0.499563 0.029713 -0.223642
C74   C     C_3   0.579753 0.499563 0.970287 -0.223642
C75   C     C_3   0.460692 0.431132 0.970079 -0.227909
C76   C     C_3   0.961227 0.068944 0.529915 -0.233729
C77   C     C_3   0.961227 0.068944 0.470085 -0.233729
C78   C     C_3   0.461228 0.568944 0.029915 -0.233555
C79   C     C_R   0.359929 0.639950 0.749827 0.537653
C80   C     C_3   0.461228 0.568944 0.970085 -0.233555
C81   C     C_3   0.000423 0.999893 0.550871 0.049381
C82   C     C_3   0.000423 0.999893 0.449129 0.049381
C83   C     C_3   0.500423 0.499893 0.050871 0.049200
C84   C     C_3   0.500423 0.499893 0.949129 0.049200
C85   C     C_R   0.214119 0.767447 0.795636 0.201104
C86   C     C_R   0.785861 0.767478 0.795647 0.200707
C87   C     C_R   0.785863 0.767476 0.204354 0.200705
C88   C     C_R   0.214119 0.767447 0.204364 0.201104
C89   C     C_R   0.714127 0.267464 0.295650 0.200717
C90   C     C_R   0.803592 0.195580 0.249190 -0.033713
C91   C     C_R   0.285871 0.267460 0.295633 0.201091
C92   C     C_R   0.285871 0.267460 0.704367 0.201091
C93   C     C_R   0.714125 0.267462 0.704351 0.200716
C94   C     C_R   0.768080 0.213577 0.295177 -0.197541
C95   C     C_R   0.231919 0.213573 0.295159 -0.198214
C96   C     C_R   0.231920 0.213573 0.704841 -0.198215
C97   C     C_R   0.768078 0.213575 0.704823 -0.197542
C98   C     C_R   0.268071 0.713561 0.795163 -0.198141
C99   C     C_R   0.731909 0.713590 0.795174 -0.197613
C100  C     C_R   0.731911 0.713588 0.204826 -0.197613
F1    F     F_    0.817130 0.210479 0.157604 -0.533066
F2    F     F_    0.048810 0.123572 0.948110 -0.494209
F3    F     F_    0.451207 0.623576 0.551889 -0.494232
F4    F     F_    0.451207 0.623576 0.448111 -0.494232
F5    F     F_    0.182923 0.210409 0.157576 -0.509464
F6    F     F_    0.182922 0.210409 0.842424 -0.509464
F7    F     F_    0.817133 0.210482 0.842395 -0.533065
F8    F     F_    0.317132 0.710467 0.657590 -0.509487
F9    F     F_    0.682927 0.710418 0.657590 -0.533043
F10   F     F_    0.682923 0.710422 0.342410 -0.533041
F11   F     F_    0.317132 0.710467 0.342410 -0.509487
F12   F     F_    0.048810 0.123572 0.051889 -0.494210
H1    H     H_    0.903439 0.929867 0.544166 0.163402
H2    H     H_    0.109358 0.950345 0.543890 0.163596
H3    H     H_    0.109358 0.950345 0.456109 0.163596
H4    H     H_    0.988136 0.880843 0.455656 0.129628
H5    H     H_    0.488134 0.380843 0.044344 0.129402
H6    H     H_    0.609357 0.450344 0.043890 0.162046
H7    H     H_    0.609357 0.450344 0.956109 0.162046
H8    H     H_    0.488134 0.380843 0.955656 0.129401
H9    H     H_    0.903983 0.070639 0.544155 0.145688
H10   H     H_    0.989054 0.119024 0.544332 0.116257
H11   H     H_    0.989054 0.119024 0.455668 0.116257
H12   H     H_    0.109765 0.048541 0.543877 0.142204
H13   H     H_    0.903983 0.070639 0.455845 0.145688
H14   H     H_    0.403984 0.570640 0.044155 0.146458
H15   H     H_    0.489055 0.619024 0.044332 0.116190
H16   H     H_    0.489055 0.619024 0.955668 0.116190
H17   H     H_    0.403984 0.570640 0.955845 0.146458
H18   H     H_    0.783727 0.186919 0.330938 0.141055
H19   H     H_    0.216259 0.186928 0.330922 0.141544
H20   H     H_    0.216260 0.186928 0.669078 0.141544
H21   H     H_    0.783723 0.186915 0.669062 0.141057
H22   H     H_    0.283716 0.686901 0.830924 0.141742
H23   H     H_    0.109765 0.048541 0.456123 0.142204
H24   H     H_    0.716246 0.686948 0.830937 0.140856
H25   H     H_    0.716250 0.686944 0.169063 0.140858
H26   H     H_    0.283716 0.686901 0.169076 0.141742
H27   H     H_    0.962263 0.888924 0.953088 0.185931
H28   H     H_    0.962263 0.888924 0.046912 0.185931
H29   H     H_    0.537724 0.388921 0.453089 0.185955
H30   H     H_    0.537724 0.388921 0.546911 0.185955
H31   H     H_    0.201721 0.759494 0.870355 0.330909
H32   H     H_    0.798219 0.759576 0.870372 0.328438
H33   H     H_    0.798226 0.759570 0.129629 0.328439
H34   H     H_    0.903439 0.929867 0.455834 0.163402
H35   H     H_    0.201722 0.759494 0.129645 0.330909
H36   H     H_    0.701736 0.259527 0.370371 0.328568
H37   H     H_    0.298237 0.259539 0.370356 0.330779
H38   H     H_    0.298240 0.259536 0.629645 0.330780
H39   H     H_    0.701729 0.259521 0.629630 0.328568
H40   H     H_    0.155029 0.819497 0.655048 0.319954
H41   H     H_    0.845043 0.819454 0.655061 0.319484
H42   H     H_    0.845039 0.819456 0.344940 0.319484
H43   H     H_    0.155029 0.819498 0.344952 0.319954
H44   H     H_    0.655022 0.319482 0.155058 0.319922
H45   H     H_    0.403438 0.429868 0.044166 0.165008
H46   H     H_    0.345033 0.319471 0.155050 0.319490
H47   H     H_    0.345032 0.319471 0.844950 0.319490
H48   H     H_    0.655024 0.319483 0.844942 0.319923
H49   H     H_    0.609765 0.548539 0.043877 0.141654
H50   H     H_    0.609765 0.548539 0.956123 0.141654
H51   H     H_    0.403438 0.429868 0.955834 0.165008
H52   H     H_    0.988136 0.880843 0.544344 0.129629
O1    O     O_3   1.000000 1.000000 0.749970 -0.490130
O2    O     O_R   0.646190 0.585480 0.219360 -0.550437
O3    O     O_R   0.646190 0.585480 0.780640 -0.550435
O4    O     O_R   0.353810 0.585480 0.780640 -0.549934
O5    O     O_R   0.146170 0.914530 0.719320 -0.536288
O6    O     O_R   0.853830 0.914530 0.719320 -0.536752
O7    O     O_R   0.853830 0.914530 0.280680 -0.536752
O8    O     O_R   0.146170 0.914530 0.280680 -0.536288
O9    O     O_R   0.646170 0.414530 0.219320 -0.536897
O10   O     O_R   0.353830 0.414530 0.219320 -0.536137
O11   O     O_R   0.353830 0.414530 0.780680 -0.536137
O12   O     O_3   1.000000 1.000000 0.250030 -0.490130
O13   O     O_R   0.646170 0.414530 0.780680 -0.536897
O14   O     O_R   0.085450 0.146180 0.780600 -0.463663
O15   O     O_R   0.914550 0.146180 0.780600 -0.471694
O16   O     O_R   0.914550 0.146180 0.219400 -0.471697
O17   O     O_R   0.085450 0.146180 0.219400 -0.463665
O18   O     O_R   0.585450 0.646180 0.280600 -0.471651
O19   O     O_R   0.414550 0.646180 0.280600 -0.463711
O20   O     O_R   0.414550 0.646180 0.719400 -0.463712
O21   O     O_R   0.585450 0.646180 0.719400 -0.471654
O22   O     O_R   0.914560 0.853830 0.780620 -0.484008
O23   O     O_3   0.500000 0.500000 0.249970 -0.490132
O24   O     O_R   0.085440 0.853830 0.780620 -0.481509
O25   O     O_R   0.085440 0.853830 0.219380 -0.481509
O26   O     O_R   0.914560 0.853830 0.219380 -0.484006
O27   O     O_R   0.414560 0.353830 0.280620 -0.481595
O28   O     O_R   0.585440 0.353830 0.280620 -0.483927
O29   O     O_R   0.585440 0.353830 0.719380 -0.483925
O30   O     O_R   0.414560 0.353830 0.719380 -0.481595
O31   O     O_R   1.000000 0.060730 0.866830 -0.440372
O32   O     O_R   0.000000 0.060730 0.133170 -0.440372
O33   O     O_R   0.500000 0.560730 0.366830 -0.440361
O34   O     O_3   0.500000 0.500000 0.750030 -0.490132
O35   O     O_R   0.500000 0.560730 0.633170 -0.440361
O36   O     O_R   0.939250 0.000010 0.633130 -0.548148
O37   O     O_R   0.060750 0.000010 0.633130 -0.550973
O38   O     O_R   0.060750 0.000010 0.366870 -0.550974
O39   O     O_R   0.939250 0.000010 0.366870 -0.548149
O40   O     O_R   0.439250 0.500010 0.133130 -0.548047
O41   O     O_R   0.560750 0.500010 0.133130 -0.551035
O42   O     O_R   0.560750 0.500010 0.866870 -0.551035
O43   O     O_R   0.439250 0.500010 0.866870 -0.548048
O44   O     O_R   1.000000 0.939270 0.866820 -0.538624
O45   O     O_R   0.853810 0.085480 0.719360 -0.550246
O46   O     O_R   0.000000 0.939270 0.133180 -0.538624
O47   O     O_R   0.500000 0.439270 0.366820 -0.538630
O48   O     O_R   0.500000 0.439270 0.633180 -0.538630
O49   O     O_3   0.181390 0.788674 0.841422 -0.644464
O50   O     O_3   0.818566 0.788737 0.841435 -0.651078
O51   O     O_3   0.818571 0.788732 0.158566 -0.651077
O52   O     O_3   0.181390 0.788674 0.158578 -0.644464
O53   O     O_3   0.681400 0.288699 0.341435 -0.651025
O54   O     O_3   0.318579 0.288709 0.341421 -0.644517
O55   O     O_3   0.318580 0.288708 0.658579 -0.644518
O56   O     O_R   0.146190 0.085480 0.719360 -0.550136
O57   O     O_3   0.681396 0.288695 0.658566 -0.651023
O58   O     O_3   0.207701 0.807788 0.654034 -0.594705
O59   O     O_3   0.792375 0.807723 0.654031 -0.600129
O60   O     O_3   0.792371 0.807726 0.345969 -0.600126
O61   O     O_3   0.207701 0.807788 0.345966 -0.594704
O62   O     O_3   0.707697 0.307787 0.154045 -0.600258
O63   O     O_3   0.292368 0.307726 0.154020 -0.594588
O64   O     O_3   0.292368 0.307727 0.845980 -0.594588
O65   O     O_3   0.707700 0.307790 0.845955 -0.600257
O66   O     O_R   0.146190 0.085480 0.280640 -0.550135
O67   O     O_R   0.853810 0.085480 0.280640 -0.550245
O68   O     O_R   0.353810 0.585480 0.219360 -0.549934
Zn1   Zn    Zn3+2 0.086750 0.999990 0.706190 0.946202
Zn2   Zn    Zn3+2 1.000000 0.086770 0.206250 1.090769
Zn3   Zn    Zn3+2 0.500000 0.586770 0.293750 1.090773
Zn4   Zn    Zn3+2 0.500000 0.586770 0.706250 1.090772
Zn5   Zn    Zn3+2 1.000000 0.913230 0.793740 1.010830
Zn6   Zn    Zn3+2 0.000000 0.913230 0.206260 1.010831
Zn7   Zn    Zn3+2 0.500000 0.413230 0.293740 1.010822
Zn8   Zn    Zn3+2 0.500000 0.413230 0.706260 1.010822
Zn9   Zn    Zn3+2 0.913250 0.999990 0.706190 0.943663
Zn10  Zn    Zn3+2 0.913250 0.999990 0.293810 0.943664
Zn11  Zn    Zn3+2 0.086750 0.999990 0.293810 0.946202
Zn12  Zn    Zn3+2 0.586750 0.499990 0.206190 0.942440
Zn13  Zn    Zn3+2 0.413250 0.499990 0.206190 0.947426
Zn14  Zn    Zn3+2 0.413250 0.499990 0.793810 0.947426
Zn15  Zn    Zn3+2 0.586750 0.499990 0.793810 0.942441
Zn16  Zn    Zn3+2 1.000000 0.086770 0.793750 1.090770

loop_
_geom_bond_atom_site_label_1
_geom_bond_atom_site_label_2
_ccdc_geom_bond_type
C44   C49   A    
C46   O19   A    
O4    Zn14  S    
O1    Zn1   S    
C21   O60   S    
H40   O58   S    
O2    Zn12  S    
C73   C74   S    
O6    Zn9   S    
O12   Zn6   S    
O26   Zn6   S    
H42   O60   S    
C97   H21   S    
C80   C84   S    
C50   O24   A    
C17   F10   S    
C49   F4    S    
O15   Zn16  S    
O33   Zn3   S    
C45   F12   S    
O29   Zn8   S    
C22   O61   S    
C79   O20   A    
C34   C56   S    
C74   H7    S    
O1    Zn16  S    
C94   H18   S    
C7    C99   A    
C63   C81   S    
C1    C5    S    
C76   H9    S    
O46   Zn6   S    
C54   O9    A    
C2    C95   A    
C89   O53   S    
C62   O35   A    
H41   O59   S    
C24   O66   A    
C33   C91   A    
C29   C51   S    
C66   O42   A    
C78   C80   S    
C75   C84   S    
C65   C83   S    
C65   O41   A    
O25   Zn6   S    
O44   Zn5   S    
C13   O14   A    
H43   O61   S    
C68   O3    A    
C37   C42   A    
C63   O36   A    
C75   H51   S    
O68   Zn13  S    
C61   O47   A    
C4    C13   S    
O20   Zn4   S    
C10   C23   A    
C73   H49   S    
O24   Zn5   S    
C53   O8    A    
C6    C15   A    
C4    C96   A    
C28   C50   S    
C78   C83   S    
C27   O65   S    
C40   C43   A    
O12   Zn2   S    
C39   H29   S    
O8    Zn11  S    
C26   O64   S    
C72   H5    S    
C11   F5    S    
H38   O55   S    
C59   O44   A    
O66   Zn11  S    
C62   O48   A    
C14   C27   A    
C4    C12   A    
O41   Zn12  S    
C63   O37   A    
H36   O53   S    
C21   C30   A    
C67   C71   S    
O40   Zn13  S    
C96   H20   S    
C71   C82   S    
C7    C68   S    
O16   Zn2   S    
C9    C46   S    
C47   F2    S    
H33   O51   S    
C95   H19   S    
O1    Zn5   S    
C19   O58   S    
C24   O17   A    
C72   C75   S    
C78   H15   S    
C36   C93   A    
C52   O7    A    
C32   C54   S    
C57   O18   A    
C26   C34   A    
C16   F9    S    
C90   C94   A    
C70   H3    S    
C20   C29   A    
C45   C47   A    
C92   C96   A    
O27   Zn7   S    
C69   H2    S    
C10   F1    S    
C22   C31   A    
C56   O11   A    
C1    O45   A    
O56   Zn1   S    
O67   Zn10  S    
C76   C77   S    
C38   C41   A    
H35   O52   S    
C100  H25   S    
C61   O33   A    
C39   C40   A    
C74   H50   S    
C40   H30   S    
C57   O2    A    
C80   H16   S    
C69   H12   S    
C59   O31   A    
C48   F3    S    
C66   C84   S    
C25   O63   S    
C17   C21   A    
C72   H45   S    
H39   O57   S    
C12   C26   A    
C55   O27   A    
C15   F8    S    
C76   C81   S    
C92   O55   S    
C15   C19   A    
C86   O50   S    
C55   O10   A    
C37   C38   A    
C77   H11   S    
C85   O49   S    
C8    C57   S    
O22   Zn5   S    
C93   C97   A    
O37   Zn1   S    
C32   C89   A    
O34   Zn15  S    
C16   C20   A    
C71   H34   S    
C85   C98   A    
C33   C55   S    
C3    H26   S    
C52   O26   A    
H47   O64   S    
C18   F11   S    
C2    C11   A    
C86   C99   A    
C11   C25   A    
C64   C82   S    
C5    C14   A    
O48   Zn8   S    
O5    Zn1   S    
O18   Zn3   S    
O12   Zn11  S    
O14   Zn16  S    
C14   F7    S    
C3    C9    A    
C64   O39   A    
C5    C97   A    
C68   O21   A    
C67   C81   S    
O34   Zn8   S    
O7    Zn10  S    
C19   C28   A    
C70   H23   S    
C73   H6    S    
O47   Zn7   S    
C56   O30   A    
C31   C53   S    
O1    Zn9   S    
C54   O28   A    
O45   Zn9   S    
C99   H24   S    
C78   H14   S    
O43   Zn14  S    
C6    C98   A    
C23   O62   S    
C77   H13   S    
C60   O32   A    
O12   Zn10  S    
C87   C100  A    
C43   C48   A    
H44   O62   S    
C35   O16   A    
C64   O38   A    
C48   C49   A    
C38   H28   S    
C80   H17   S    
C88   O52   S    
C3    C88   A    
O17   Zn2   S    
C46   O68   A    
C51   O6    A    
C7    C16   A    
C75   H8    S    
C41   C60   S    
C74   C84   S    
O23   Zn12  S    
O28   Zn7   S    
C42   C59   S    
C89   C94   A    
O23   Zn7   S    
C39   C44   A    
C18   C22   A    
C44   C61   S    
C12   F6    S    
O31   Zn16  S    
C98   H22   S    
C58   O29   A    
C36   C58   S    
C8    C17   A    
C41   C45   A    
H31   O49   S    
C27   C36   A    
C76   H10   S    
C23   C32   A    
H32   O50   S    
C91   O54   S    
C29   C86   A    
O42   Zn15  S    
C67   H1    S    
O23   Zn13  S    
C51   O22   A    
O34   Zn4   S    
O35   Zn4   S    
C2    C24   S    
C66   O43   A    
C1    O15   A    
O9    Zn12  S    
O39   Zn10  S    
C6    C79   S    
O13   Zn15  S    
C65   O40   A    
O32   Zn2   S    
C77   C82   S    
O34   Zn14  S    
O3    Zn15  S    
O38   Zn11  S    
O36   Zn9   S    
C20   O59   S    
C71   H4    S    
O10   Zn13  S    
C58   O13   A    
C35   O67   A    
C42   C47   A    
C13   O56   A    
C8    C100  A    
C69   C70   S    
C70   C82   S    
C34   C92   A    
O11   Zn14  S    
C72   C83   S    
C69   C81   S    
C50   O5    A    
C91   C95   A    
C35   C90   S    
C9    C18   A    
C31   C88   A    
O21   Zn4   S    
C10   C90   A    
C53   O25   A    
C37   H27   S    
C79   O4    A    
O19   Zn3   S    
C28   C85   A    
C87   O51   S    
H48   O65   S    
C93   O57   S    
H37   O54   S    
O30   Zn8   S    
C30   C87   A    
C60   O46   A    
H46   O63   S    
C73   C83   S    
C67   H52   S    
O23   Zn3   S    
C43   C62   S    
C25   C33   A    
C30   C52   S    
