data_mof_unit_28862.cif
_audit_creation_date              2013-03-05T16:22:59-0500
_audit_creation_method            fapswitch 2.2
_symmetry_space_group_name_H-M    P1
_symmetry_Int_Tables_number       1
_space_group_crystal_system       triclinic
_cell_length_a                    23.426671
_cell_length_b                    10.510879
_cell_length_c                    9.783597
_cell_angle_alpha                 89.317122
_cell_angle_beta                  89.346827
_cell_angle_gamma                 90.238452
_cell_volume                      2408.71319002

loop_
_atom_site_label
_atom_site_type_symbol
_atom_site_description
_atom_site_fract_x
_atom_site_fract_y
_atom_site_fract_z
_atom_type_partial_charge
O1    O     O_R   0.500000 0.313960 0.616610 -0.543658
O2    O     O_R   0.500000 0.686040 0.383390 -0.538023
O3    O     O_R   0.500030 0.313950 0.383350 -0.635698
O4    O     O_R   0.499970 0.686050 0.616650 -0.640876
C1    C     C_R   0.500353 0.257995 0.500856 0.951541
C2    C     C_R   0.499606 0.742003 0.499161 0.955408
O5    O     O_R   0.416140 0.499970 0.616650 -0.576161
O6    O     O_R   0.583860 0.500030 0.383350 -0.582340
O7    O     O_R   0.416170 0.499960 0.383400 -0.585033
O8    O     O_R   0.583830 0.500040 0.616600 -0.580535
C3    C     C_R   0.389525 0.498820 0.500430 0.903147
C4    C     C_R   0.610684 0.502294 0.499263 0.923982
Zn1   Zn    Zn3+2 0.499980 0.500010 0.655740 1.059535
Zn2   Zn    Zn3+2 0.500020 0.499990 0.344260 1.056997
C5    C     C_R   0.879759 0.622987 0.466834 0.597069
C6    C     C_R   0.121894 0.412391 0.430872 0.601366
N1    N     N_R   0.853314 0.507351 0.462368 -0.376899
N2    N     N_R   0.148190 0.522614 0.467370 -0.377657
C7    C     C_R   0.882720 0.397165 0.444651 0.548574
C8    C     C_R   0.118852 0.632312 0.488645 0.546117
C9    C     C_R   0.942042 0.400539 0.423046 -0.146125
C10   C     C_R   0.059749 0.636318 0.466686 -0.145127
C11   C     C_R   0.970895 0.517599 0.440821 -0.136398
C12   C     C_R   0.030914 0.520460 0.441833 -0.137927
C13   C     C_R   0.939650 0.631057 0.461300 -0.122612
C14   C     C_R   0.062125 0.406907 0.421700 -0.122325
C15   C     C_R   0.973265 0.289980 0.388934 0.341635
C16   C     C_R   0.028664 0.751479 0.473389 0.343632
C17   C     C_R   0.033306 0.291935 0.392676 0.465964
C18   C     C_R   0.968573 0.748581 0.475271 0.458091
O9    O     O_2   0.847704 0.728771 0.478675 -0.429259
O10   O     O_2   0.153980 0.308693 0.405842 -0.429691
O11   O     O_2   0.854337 0.285222 0.451679 -0.477011
O12   O     O_2   0.147043 0.735412 0.534201 -0.476701
C19   C     C_R   0.243607 0.577645 0.378246 0.495258
C20   C     C_R   0.759416 0.479346 0.357950 0.492824
C21   C     C_R   0.302281 0.570253 0.389844 -0.245051
C22   C     C_R   0.700564 0.477090 0.370776 -0.226587
H1    H     H_    0.328590 0.615482 0.311227 0.229187
H2    H     H_    0.676083 0.454987 0.280817 0.242658
C23   C     C_R   0.327320 0.503689 0.498328 -0.342330
C24   C     C_R   0.673328 0.505094 0.495137 -0.343127
C25   C     C_R   0.292623 0.444656 0.600096 0.437591
C26   C     C_R   0.706534 0.533189 0.611189 0.429132
C27   C     C_R   0.233520 0.459863 0.595712 0.470383
C28   C     C_R   0.765891 0.524706 0.602885 0.468518
C29   C     C_R   0.208749 0.522864 0.482181 -0.055603
C30   C     C_R   0.792560 0.501888 0.474894 -0.060384
C31   C     C_3   0.502504 0.036837 0.628960 0.430222
C32   C     C_3   0.497412 0.963164 0.371152 0.431903
C33   C     C_3   0.547271 0.956621 0.556167 0.371506
C34   C     C_3   0.452645 0.043367 0.443954 0.364844
C35   C     C_3   0.499043 0.876373 0.497729 -0.158545
C36   C     C_3   0.500876 0.123621 0.502363 -0.160105
C37   C     C_3   0.453187 0.956240 0.572137 -0.453444
C38   C     C_3   0.546733 0.043743 0.427978 -0.445638
H3    H     H_    0.415623 0.918016 0.629650 0.190118
H4    H     H_    0.584292 0.081977 0.370453 0.187085
C39   C     C_3   0.485085 0.388062 0.051248 -0.405213
C40   C     C_3   0.514942 0.611992 0.948726 -0.391026
C41   C     C_3   0.535033 0.417574 0.952462 0.484433
C42   C     C_3   0.465033 0.582536 0.047579 0.480734
H5    H     H_    0.471825 0.296108 0.099039 0.190093
H6    H     H_    0.528232 0.703895 0.900857 0.184658
N3    N     N_3   0.499960 0.500030 0.863290 -0.130643
N4    N     N_3   0.500040 0.499970 0.136710 -0.129272
C43   C     C_3   0.450553 0.472784 0.955022 0.392824
C44   C     C_3   0.549487 0.527393 0.045085 0.400163
O13   O     O_3   0.946440 0.180021 0.347866 -0.709255
H7    H     H_    0.916830 0.204951 0.281185 0.380486
O14   O     O_3   0.055738 0.868214 0.474412 -0.708801
H8    H     H_    0.085983 0.866929 0.402712 0.382366
O15   O     O_3   0.574253 0.333411 0.891589 -0.547914
C45   C     C_3   0.594469 0.247330 0.991309 0.111219
H9    H     H_    0.559613 0.181966 0.026219 0.147218
H10   H     H_    0.612172 0.298035 0.080879 0.153302
C46   C     C_3   0.641860 0.167693 0.928919 -0.683624
H11   H     H_    0.677614 0.230224 0.893976 0.272233
H12   H     H_    0.657954 0.098901 0.006253 0.214309
H13   H     H_    0.625379 0.114286 0.840378 0.261727
O16   O     O_3   0.425662 0.666410 0.108400 -0.572265
C47   C     C_3   0.406669 0.754832 0.009605 0.092671
H14   H     H_    0.390043 0.706363 0.917426 0.166340
H15   H     H_    0.441976 0.820717 0.978884 0.157439
C48   C     C_3   0.358613 0.833307 0.070837 -0.698971
H16   H     H_    0.373761 0.882838 0.163279 0.264496
H17   H     H_    0.344164 0.905350 0.994989 0.223374
H18   H     H_    0.322022 0.770574 0.099453 0.274224
O17   O     O_3   0.396999 0.444996 0.901648 -0.687162
H19   H     H_    0.371418 0.432744 0.982161 0.360860
O18   O     O_3   0.602891 0.556378 0.098872 -0.725030
H20   H     H_    0.628721 0.567196 0.018604 0.369723
O19   O     O_3   0.064713 0.183341 0.366417 -0.655810
H21   H     H_    0.039257 0.109176 0.353987 0.394681
O20   O     O_3   0.937256 0.859371 0.488729 -0.642865
H22   H     H_    0.962634 0.932756 0.506069 0.402102
O21   O     O_3   0.222428 0.637481 0.263047 -0.724179
H23   H     H_    0.180679 0.624778 0.258331 0.349312
O22   O     O_3   0.782516 0.459678 0.229329 -0.701678
H24   H     H_    0.823781 0.479758 0.228915 0.347545
O23   O     O_3   0.314303 0.368392 0.702733 -0.635860
H25   H     H_    0.350021 0.328794 0.669377 0.361728
O24   O     O_3   0.682774 0.570053 0.733933 -0.674336
H26   H     H_    0.652896 0.633705 0.713384 0.358474
O25   O     O_3   0.201232 0.406531 0.700971 -0.655855
H27   H     H_    0.161411 0.436967 0.695370 0.341919
O26   O     O_3   0.796400 0.544443 0.720984 -0.660129
H28   H     H_    0.836709 0.519874 0.706358 0.341408
O27   O     O_3   0.595797 0.904969 0.617029 -0.752422
H29   H     H_    0.621615 0.978241 0.632102 0.350209
O28   O     O_3   0.404106 0.094969 0.383117 -0.739488
H30   H     H_    0.378193 0.021746 0.368636 0.350395
O29   O     O_3   0.506497 0.079725 0.763258 -0.716529
H31   H     H_    0.507030 0.001727 0.821174 0.328844
O30   O     O_3   0.493415 0.920305 0.236852 -0.715915
H32   H     H_    0.492875 0.998315 0.178955 0.329310

loop_
_geom_bond_atom_site_label_1
_geom_bond_atom_site_label_2
_geom_bond_distance
_ccdc_geom_bond_type
N4    C44   1.481855 S    
O19   H21   0.989024 S    
C15   C17   1.407525 A    
O15   C45   1.409906 S    
C31   O29   1.398176 S    
O20   H22   0.989355 S    
N1    C30   1.428002 S    
C19   C29   1.412661 A    
N2    C29   1.427714 S    
O16   C47   1.409911 S    
Zn1   N3    2.030583 S    
C46   H11   1.110838 S    
O5    C3    1.303156 A    
O23   H25   0.989852 S    
C45   H10   1.114242 S    
C42   C43   1.514759 S    
O1    C1    1.282323 A    
C19   C21   1.382912 A    
C12   C14   1.416873 A    
C22   C24   1.402318 A    
C39   N4    1.494020 S    
C46   H13   1.109949 S    
C31   C36   1.530375 S    
C43   O17   1.395534 S    
C44   O18   1.396645 S    
C40   C42   1.536965 S    
C32   O30   1.398112 S    
O4    Zn1   1.988014 S    
C4    C24   1.467803 S    
C39   C43   1.528759 S    
O28   H30   0.990749 S    
C26   C28   1.395268 A    
C31   C33   1.524002 S    
C45   C46   1.519952 S    
C32   C34   1.523960 S    
O26   H28   0.989283 S    
C3    C23   1.458738 S    
C15   O13   1.379466 S    
C34   C37   1.544236 S    
C8    O12   1.349593 S    
C35   C37   1.546917 S    
C9    C15   1.416893 A    
C33   O27   1.398028 S    
C22   H2    1.082940 S    
C10   C16   1.417007 A    
C23   C25   1.414088 A    
O2    C2    1.282453 A    
C24   C26   1.416933 A    
C27   O25   1.382694 S    
C26   O24   1.378303 S    
C34   C36   1.527419 S    
O21   H23   0.988241 S    
C36   C38   1.546885 S    
C27   C29   1.417531 A    
C6    C14   1.405081 A    
C28   C30   1.416488 A    
C39   C41   1.537378 S    
C32   C35   1.530258 S    
C45   H9    1.113024 S    
C42   N4    1.479971 S    
C48   H17   1.110455 S    
C1    C36   1.412391 S    
O4    C2    1.285061 A    
C7    O11   1.349736 S    
O18   H20   0.991090 S    
C34   O28   1.397972 S    
N3    C43   1.481404 S    
C48   H16   1.109929 S    
C32   C38   1.542454 S    
C33   C35   1.527456 S    
O7    Zn2   1.997009 S    
C25   O23   1.380097 S    
C18   O20   1.385726 S    
O7    C3    1.297717 A    
O22   H24   0.988568 S    
O6    C4    1.303178 A    
C28   O26   1.382824 S    
Zn2   N4    2.030582 S    
C46   H12   1.110485 S    
C25   C27   1.395522 A    
O3    Zn2   1.988015 S    
O8    C4    1.302669 A    
C42   O16   1.410228 S    
C8    C10   1.404324 A    
C40   N3    1.494478 S    
C47   H15   1.112953 S    
C9    C11   1.414876 A    
C10   C12   1.415041 A    
C16   O14   1.379056 S    
O1    Zn1   1.997144 S    
C2    C35   1.412363 S    
C20   C22   1.383066 A    
O29   H31   0.991215 S    
C48   H18   1.110590 S    
C13   C18   1.415227 A    
C5    N1    1.363317 A    
O6    Zn2   2.005254 S    
C7    C9    1.403556 A    
C33   C38   1.544248 S    
O3    C1    1.285195 A    
O8    Zn1   1.997012 S    
C5    O9    1.349696 S    
C6    O10   1.349808 S    
C47   C48   1.520121 S    
O25   H27   0.989365 S    
C39   H5    1.110276 S    
C40   H6    1.110305 S    
C41   O15   1.410057 S    
C37   H3    1.110313 S    
O14   H8    0.991598 S    
C21   H1    1.084216 S    
C31   C37   1.542479 S    
O27   H29   0.990735 S    
C17   O19   1.385593 S    
C41   C44   1.515550 S    
C16   C18   1.407845 A    
N1    C7    1.361843 A    
C38   H4    1.110326 S    
C20   C30   1.411817 A    
C20   O22   1.382279 S    
N2    C8    1.361687 A    
C11   C13   1.416933 A    
C21   C23   1.400003 A    
O13   H7    0.991539 S    
O2    Zn2   1.997142 S    
C5    C13   1.405637 A    
C11   C12   1.406380 A    
C41   N3    1.480412 S    
O5    Zn1   2.005251 S    
C40   C44   1.528989 S    
C14   C17   1.415112 A    
C6    N2    1.363134 A    
C47   H14   1.114389 S    
O24   H26   0.990885 S    
O17   H19   0.991154 S    
C19   O21   1.382187 S    
O30   H32   0.991217 S    
