data_mof_unit_14450.cif
_audit_creation_date              2013-03-05T15:41:43-0500
_audit_creation_method            fapswitch 2.2
_symmetry_space_group_name_H-M    P1
_symmetry_Int_Tables_number       1
_space_group_crystal_system       triclinic
_cell_length_a                    6.94333
_cell_length_b                    13.59828
_cell_length_c                    20.419191
_cell_angle_alpha                 102.072448
_cell_angle_beta                  90.043915
_cell_angle_gamma                 90.623759
_cell_volume                      1885.16680561

loop_
_atom_site_label
_atom_site_type_symbol
_atom_site_description
_atom_site_fract_x
_atom_site_fract_y
_atom_site_fract_z
_atom_type_partial_charge
O1    O     O_R   0.506860 0.599390 0.449240 -0.556401
O2    O     O_R   0.180220 0.594600 0.586780 -0.567874
O3    O     O_R   0.004500 0.400610 0.550760 -0.557635
C1    C     C_R   0.349101 0.615713 0.613586 0.838103
O4    O     O_R   0.177490 0.611290 0.451970 -0.560201
O5    O     O_R   0.001750 0.417420 0.414990 -0.555525
C2    C     C_R   0.346617 0.637785 0.434980 0.862009
O6    O     O_R   0.509610 0.582580 0.585010 -0.557729
O7    O     O_3   0.337420 0.436370 0.488020 -0.259812
V1    V     V_3+5 0.064680 0.511800 0.502220 1.185094
O8    O     O_R   0.671710 0.405400 0.413220 -0.530850
C3    C     C_R   0.839107 0.387781 0.385342 0.806485
O9    O     O_R   0.674440 0.388710 0.548030 -0.558912
C4    C     C_R   0.842479 0.361678 0.564646 0.828936
V2    V     V_3+5 0.564010 0.488200 0.497780 1.204099
O10   O     O_3   0.841140 0.563630 0.511980 -0.274848
C5    C     C_R   0.815623 0.110458 0.612954 0.020934
H1    H     H_    0.817629 0.160510 0.520063 0.117298
H2    H     H_    0.805334 0.032720 0.586901 0.154382
C6    C     C_R   0.846703 0.284248 0.604739 -0.089090
C7    C     C_R   0.873194 0.321807 0.929772 -0.065646
C8    C     C_R   0.870716 0.395371 0.891030 -0.010785
C9    C     C_R   0.861363 0.369965 0.821689 -0.063491
C10   C     C_R   0.851369 0.268700 0.787029 0.053485
C11   C     C_R   0.847642 0.192582 0.825402 -0.047848
C12   C     C_R   0.843447 0.241029 0.715511 0.011805
C13   C     C_R   0.819993 0.137805 0.683579 -0.036488
C14   C     C_R   0.805001 0.063803 0.722604 0.346735
C15   C     C_R   0.825611 0.091358 0.792062 -0.135909
C16   C     C_R   0.858125 0.312881 0.674402 -0.089311
C17   C     C_R   0.825975 0.183155 0.574129 -0.052630
C18   C     C_R   0.862847 0.218906 0.896649 -0.136166
H3    H     H_    0.877103 0.392116 0.694547 0.048532
H4    H     H_    0.858874 0.432515 0.797016 0.076359
H5    H     H_    0.876822 0.474529 0.914530 0.171800
H6    H     H_    0.816500 0.032074 0.820016 0.100753
C19   C     C_2   0.995088 0.280748 0.287405 -0.091888
C20   C     C_2   0.840945 0.335842 0.313599 -0.163883
H7    H     H_    0.118974 0.277212 0.319322 0.144752
C21   C     C_2   0.010539 0.222172 0.217175 -0.040191
C22   C     C_2   0.859894 0.172867 0.183248 -0.189028
H8    H     H_    0.153034 0.214438 0.194916 0.119666
H9    H     H_    0.720081 0.174766 0.207164 0.072430
C23   C     C_2   0.204003 0.785039 0.784244 -0.040368
C24   C     C_2   0.364367 0.816463 0.819701 -0.161217
H10   H     H_    0.064894 0.809069 0.805705 0.131003
H11   H     H_    0.504583 0.792502 0.799748 0.100810
C25   C     C_2   0.202819 0.717509 0.716407 -0.042724
C26   C     C_2   0.361184 0.683323 0.680554 -0.181595
H12   H     H_    0.061441 0.695373 0.695246 0.128296
H13   H     H_    0.504435 0.703950 0.699938 0.107212
C27   C     C_R   0.358468 0.890616 0.387887 0.360031
H14   H     H_    0.355663 0.837499 0.480135 0.125817
H15   H     H_    0.386929 0.014686 0.300546 0.135310
C28   C     C_R   0.355903 0.714950 0.394821 -0.140113
C29   C     C_R   0.347408 0.681001 0.069910 0.300856
C30   C     C_R   0.343778 0.604007 0.106721 -0.058432
C31   C     C_R   0.344732 0.629833 0.176953 -0.154550
C32   C     C_R   0.353165 0.731092 0.212508 0.063682
C33   C     C_R   0.360763 0.807886 0.174833 -0.022106
C34   C     C_R   0.355527 0.758474 0.284330 0.030146
C35   C     C_R   0.360813 0.862261 0.316833 -0.020828
C36   C     C_R   0.373373 0.935593 0.277922 -0.058345
C37   C     C_R   0.372533 0.909145 0.208620 -0.094321
C38   C     C_R   0.353549 0.686174 0.325132 -0.116579
C39   C     C_R   0.358366 0.816257 0.425929 -0.127618
C40   C     C_R   0.357662 0.782420 0.103884 -0.178173
H16   H     H_    0.350046 0.606467 0.304850 0.087392
H17   H     H_    0.341814 0.568395 0.202562 0.131559
H18   H     H_    0.381706 0.969713 0.181724 0.058537
O11   O     O_R   0.203230 0.917310 0.915020 -0.564211
O12   O     O_R   0.535500 0.888690 0.048040 -0.547391
O13   O     O_R   0.711080 0.082610 0.085000 -0.560824
C41   C     C_R   0.366415 0.861575 0.064583 0.891002
O14   O     O_R   0.532630 0.905370 0.913230 -0.551023
O15   O     O_R   0.708190 0.099410 0.949230 -0.560975
C42   C     C_R   0.364395 0.884174 0.886545 0.883538
O16   O     O_R   0.206120 0.900510 0.050790 -0.563024
O17   O     O_3   0.375360 0.063570 0.011990 -0.283964
V3    V     V_3+5 0.648170 0.988200 0.997780 1.200866
O18   O     O_R   0.038240 0.111390 0.951940 -0.546856
C43   C     C_R   0.869870 0.138763 0.935482 0.889369
O19   O     O_R   0.041120 0.094710 0.086750 -0.558271
C44   C     C_R   0.872980 0.112481 0.114386 0.885935
V4    V     V_3+5 0.148810 0.011930 0.002180 1.185275
O20   O     O_3   0.871750 0.936430 0.988010 -0.267515
C45   C     C_2   0.680643 0.358334 0.270631 0.847930
O21   O     O_2   0.513857 0.357353 0.289726 -0.604717
O22   O     O_R   0.721582 0.383661 0.209156 -0.748403
H19   H     H_    0.601371 0.398186 0.184807 0.331999
N1    N     N_R   0.351257 0.994131 0.422349 0.078890
O23   O     O_R   0.217304 0.052197 0.407626 -0.381431
O24   O     O_R   0.452759 0.024687 0.476534 -0.361340
N2    N     N_R   0.763191 0.960274 0.692880 0.075672
O25   O     O_R   0.849353 0.889030 0.714854 -0.403876
O26   O     O_R   0.614133 0.937292 0.653772 -0.366884
N3    N     N_R   0.334148 0.656950 0.998132 0.093441
O27   O     O_R   0.180672 0.612220 0.969022 -0.340368
O28   O     O_R   0.472231 0.682613 0.961827 -0.357617
C46   C     C_2   0.346289 0.495318 0.073462 0.955768
O29   O     O_2   0.404333 0.468672 0.016021 -0.548429
O30   O     O_R   0.286823 0.422611 0.108770 -0.766116
H20   H     H_    0.299676 0.351510 0.081586 0.320111
C47   C     C_2   0.883777 0.356526 0.004288 0.896541
O31   O     O_2   0.870329 0.446124 0.029530 -0.559086
O32   O     O_R   0.910130 0.288656 0.046055 -0.774708
H21   H     H_    0.917599 0.322938 0.095083 0.345493

loop_
_geom_bond_atom_site_label_1
_geom_bond_atom_site_label_2
_geom_bond_distance
_ccdc_geom_bond_type
C45   O21   1.223035 D    
O11   C42   1.302192 A    
C2    C28   1.461561 S    
C1    O6    1.299026 A    
C47   O32   1.394744 S    
O18   C43   1.295902 A    
C6    C16   1.395968 A    
V4    O20   2.161100 S    
C8    H5    1.083345 S    
C15   H6    1.082188 S    
C12   C13   1.426170 A    
C35   C36   1.401042 A    
C14   C15   1.395923 A    
C10   C12   1.430645 A    
C19   C21   1.492217 S    
O5    C3    1.300462 A    
O32   H21   1.013112 S    
V2    O10   2.161134 S    
C29   C30   1.410830 A    
C14   N2    1.438050 S    
H15   C36   1.081159 S    
V3    O20   1.706114 S    
N3    O28   1.300980 A    
O11   V4    2.004871 S    
C7    C47   1.497341 S    
O8    V2    2.003835 S    
C33   C40   1.417424 A    
C26   H13   1.082368 S    
C9    C10   1.411418 A    
O1    V2    2.016254 S    
C37   H18   1.082660 S    
O14   V3    2.014355 S    
O13   C44   1.294514 A    
C9    H4    1.075699 S    
C11   C18   1.427185 A    
C21   H8    1.086040 S    
C32   C33   1.421267 A    
O9    C4    1.293230 A    
C22   H9    1.085144 S    
N2    O25   1.300710 A    
C29   N3    1.436045 S    
C47   O31   1.224200 D    
C28   C38   1.394703 A    
C23   H10   1.085982 S    
N3    O27   1.300976 A    
C24   H11   1.082580 S    
C11   C15   1.408826 A    
C7    C18   1.422126 A    
C32   C34   1.435664 A    
O30   H20   1.014065 S    
C5    C13   1.412176 A    
C4    C6    1.463192 S    
C10   C11   1.422921 A    
O12   C41   1.292924 A    
O15   C43   1.294464 A    
N1    O23   1.301434 A    
O4    C2    1.293386 A    
C31   C32   1.416512 A    
C22   C44   1.475984 S    
O17   V3    2.154384 S    
O2    C1    1.297295 A    
C19   C20   1.357768 D    
N1    O24   1.301395 A    
O19   C44   1.299961 A    
C38   H16   1.076357 S    
C46   O30   1.399101 S    
C40   C41   1.471812 S    
N2    O26   1.301467 A    
H14   C39   1.084106 S    
O14   C42   1.292465 A    
O3    C4    1.294802 A    
O16   V4    2.020081 S    
C21   C22   1.346417 D    
O19   V4    2.003854 S    
C12   C16   1.418001 A    
O6    V2    2.004428 S    
C45   O22   1.397991 S    
C5    C17   1.391847 A    
O2    V1    2.014353 S    
O17   V4    1.710036 S    
C28   C39   1.391050 A    
C27   C39   1.397986 A    
C23   C24   1.343706 D    
O7    V1    2.154320 S    
C25   C26   1.353192 D    
C16   H3    1.076540 S    
O1    C2    1.292689 A    
O15   V3    2.014301 S    
O5    V1    2.010223 S    
C24   C42   1.478192 S    
O8    C3    1.297072 A    
C31   H17   1.074350 S    
C29   C40   1.409214 A    
C18   C43   1.476950 S    
C20   C45   1.490075 S    
C1    C26   1.481358 S    
C33   C37   1.406682 A    
O9    V2    2.018186 S    
O7    V2    1.711234 S    
O4    V1    2.013821 S    
O12   V3    2.013792 S    
O3    V1    2.014159 S    
C27   C35   1.421307 A    
C30   C46   1.492204 S    
C30   C31   1.403279 A    
C25   H12   1.086014 S    
C46   O29   1.222928 D    
C5    H2    1.081034 S    
O13   V3    2.010224 S    
C3    C20   1.487431 S    
C34   C35   1.428522 A    
C36   C37   1.385241 A    
C34   C38   1.415361 A    
C19   H7    1.086331 S    
C41   O16   1.293478 A    
C13   C14   1.411307 A    
C8    C9    1.386747 A    
C27   N1    1.437485 S    
V1    O10   1.706179 S    
H1    C17   1.083640 S    
O22   H19   1.013369 S    
C7    C8    1.399349 A    
O18   V4    2.018111 S    
C23   C25   1.493258 S    
C6    C17   1.391865 A    
