data_mof_unit_67852.cif
_audit_creation_date              2013-03-05T15:41:50-0500
_audit_creation_method            fapswitch 2.2
_symmetry_space_group_name_H-M    P1
_symmetry_Int_Tables_number       1
_space_group_crystal_system       triclinic
_cell_length_a                    8.125286
_cell_length_b                    9.236881
_cell_length_c                    10.820539
_cell_angle_alpha                 94.597722
_cell_angle_beta                  82.325826
_cell_angle_gamma                 86.839662
_cell_volume                      800.459260292

loop_
_atom_site_label
_atom_site_type_symbol
_atom_site_description
_atom_site_fract_x
_atom_site_fract_y
_atom_site_fract_z
_atom_type_partial_charge
O1    O     O_R   0.389250 0.738570 0.508410 -0.637174
O2    O     O_R   0.610750 0.261430 0.491590 -0.637176
O3    O     O_R   0.678390 0.711620 0.486450 -0.638056
O4    O     O_R   0.321610 0.288380 0.513550 -0.638055
C1    C     C_R   0.538706 0.791468 0.493135 0.934974
C2    C     C_R   0.461294 0.208532 0.506865 0.934971
O5    O     O_R   0.355460 0.513510 0.697030 -0.626734
O6    O     O_R   0.644540 0.486490 0.302970 -0.626732
O7    O     O_R   0.644600 0.486560 0.675070 -0.649480
O8    O     O_R   0.355400 0.513440 0.324930 -0.649480
C3    C     C_R   0.497743 0.505680 0.742553 0.853522
C4    C     C_R   0.502257 0.494319 0.257446 0.853521
Zn1   Zn    Zn3+2 0.306940 0.517990 0.514670 0.920223
Zn2   Zn    Zn3+2 0.693060 0.482010 0.485330 0.920223
N1    N     N_2   0.950320 0.457950 0.465730 -0.196826
N2    N     N_2   0.049680 0.542050 0.534270 -0.196826
C5    C     C_3   0.360007 0.577144 0.983842 -0.016376
C6    C     C_3   0.639992 0.422855 0.016158 -0.016376
C7    C     C_3   0.495664 0.636267 0.058094 -0.041299
C8    C     C_3   0.504335 0.363731 0.941906 -0.041302
C9    C     C_3   0.504797 0.493146 0.121069 -0.123720
C10   C     C_3   0.495202 0.506853 0.878930 -0.123718
C11   C     C_3   0.367776 0.435195 0.049298 0.130705
C12   C     C_3   0.632222 0.564804 0.950702 0.130703
H1    H     H_    0.016907 0.377739 0.404735 0.180636
H2    H     H_    0.983093 0.622261 0.595265 0.180635
C13   C     C_2   0.557812 0.946496 0.474093 0.052734
C14   C     C_2   0.442188 0.053504 0.525908 0.052736
C15   C     C_R   0.450524 0.780387 0.139556 0.093462
C16   C     C_R   0.528451 0.905677 0.111951 -0.157443
C17   C     C_R   0.464770 0.041545 0.170132 -0.203903
C18   C     C_R   0.325720 0.053574 0.261140 -0.163831
C19   C     C_R   0.247017 0.930200 0.291653 -0.135787
C20   C     C_R   0.310834 0.795679 0.233839 -0.081610
H3    H     H_    0.629487 0.899076 0.038766 0.148412
H4    H     H_    0.515533 0.138500 0.138400 0.141081
H5    H     H_    0.275385 0.158244 0.305635 0.154400
H6    H     H_    0.132942 0.938762 0.356670 0.123350
H7    H     H_    0.239291 0.707145 0.258014 0.160490
C21   C     C_R   0.549477 0.219611 0.860443 0.093461
C22   C     C_R   0.471551 0.094320 0.888045 -0.157446
C23   C     C_R   0.535234 0.958453 0.829862 -0.203902
C24   C     C_R   0.674287 0.946426 0.738858 -0.163826
C25   C     C_R   0.752989 0.069801 0.708347 -0.135796
C26   C     C_R   0.689169 0.204321 0.766159 -0.081605
H8    H     H_    0.370512 0.100918 0.961226 0.148412
H9    H     H_    0.484468 0.861498 0.861589 0.141078
H10   H     H_    0.724625 0.841757 0.694365 0.154401
H11   H     H_    0.867065 0.061240 0.643332 0.123349
H12   H     H_    0.760712 0.292856 0.741985 0.160490
C27   C     C_R   0.207193 0.673952 0.966797 0.127746
C28   C     C_R   0.074927 0.705763 0.065289 -0.187043
C29   C     C_R   0.951115 0.813462 0.058633 -0.154794
C30   C     C_R   0.945214 0.877601 0.946826 -0.114760
C31   C     C_R   0.067859 0.842532 0.846217 -0.183037
C32   C     C_R   0.202165 0.748345 0.858492 -0.126047
H13   H     H_    0.060949 0.647249 0.146927 0.137287
H14   H     H_    0.854872 0.839983 0.136911 0.152625
H15   H     H_    0.848915 0.959382 0.937978 0.176353
H16   H     H_    0.060168 0.893104 0.760661 0.145836
H17   H     H_    0.302690 0.741083 0.783576 0.144312
C33   C     C_R   0.792806 0.326049 0.033203 0.127744
C34   C     C_R   0.925072 0.294240 0.934711 -0.187045
C35   C     C_R   0.048886 0.186541 0.941367 -0.154792
C36   C     C_R   0.054787 0.122401 0.053174 -0.114759
C37   C     C_R   0.932142 0.157469 0.153783 -0.183038
C38   C     C_R   0.797835 0.251656 0.141509 -0.126043
H18   H     H_    0.939050 0.352755 0.853073 0.137289
H19   H     H_    0.145128 0.160021 0.863089 0.152623
H20   H     H_    0.151087 0.040622 0.062022 0.176353
H21   H     H_    0.939833 0.106897 0.239339 0.145837
H22   H     H_    0.697308 0.258915 0.216423 0.144310
C39   C     C_3   0.215092 0.383918 0.119509 -0.906894
H23   H     H_    0.116101 0.400983 0.063581 0.274558
H24   H     H_    0.246347 0.274181 0.141665 0.245749
H25   H     H_    0.165207 0.448520 0.207001 0.248638
C40   C     C_3   0.784905 0.616085 0.880494 -0.906900
H26   H     H_    0.883895 0.599020 0.936422 0.274559
H27   H     H_    0.834791 0.551487 0.793000 0.248640
H28   H     H_    0.753648 0.725824 0.858341 0.245749
C41   C     C_3   0.715523 0.980073 0.393393 -0.948843
H29   H     H_    0.787894 0.880754 0.347191 0.245768
H30   H     H_    0.683277 0.045952 0.318957 0.248937
H31   H     H_    0.798777 0.039796 0.448883 0.251873
C42   C     C_3   0.284477 0.019928 0.606609 -0.948859
H32   H     H_    0.212112 0.119246 0.652813 0.245769
H33   H     H_    0.201220 0.960211 0.551122 0.251871
H34   H     H_    0.316721 0.954049 0.681043 0.248939

loop_
_geom_bond_atom_site_label_1
_geom_bond_atom_site_label_2
_geom_bond_distance
_ccdc_geom_bond_type
C25   H11   1.081277 S    
C31   C32   1.384907 A    
C6    C9    1.545017 S    
C22   C23   1.397787 A    
O7    Zn2   2.034801 S    
C5    C27   1.529873 S    
C41   H29   1.107169 S    
C40   H26   1.081357 S    
C25   C26   1.386309 A    
O5    C3    1.316434 A    
C33   C34   1.409321 A    
C33   C38   1.409276 A    
O1    C1    1.328729 A    
C7    C9    1.537732 S    
C38   H22   1.066383 S    
C17   H4    1.068762 S    
C16   C17   1.397792 A    
C8    C21   1.534720 S    
N1    H1    1.029219 S    
N1    N2    1.393542 D    
C27   C32   1.409272 A    
C39   H23   1.081356 S    
O4    Zn1   2.116626 S    
C1    C13   1.476606 S    
C2    C14   1.476606 S    
C17   C18   1.389257 A    
C22   H8    1.057300 S    
C24   H10   1.078424 S    
C6    C8    1.546378 S    
C42   H33   1.104042 S    
C37   C38   1.384907 A    
C31   H16   1.077364 S    
C39   H24   1.084553 S    
O2    C2    1.328729 A    
C11   C39   1.487061 S    
C41   H30   1.097738 S    
C30   H15   1.076318 S    
C40   H27   1.094036 S    
N2    H2    1.029218 S    
C21   C26   1.413861 A    
C18   H5    1.078427 S    
C27   C28   1.409323 A    
C13   C41   1.513008 S    
O4    C2    1.309429 A    
C6    C33   1.529868 S    
C42   H32   1.107145 S    
C4    C9    1.472222 S    
C20   H7    1.058876 S    
C24   C25   1.378728 A    
C15   C16   1.383891 A    
C37   H21   1.077366 S    
C8    C11   1.571349 S    
O6    C4    1.316436 A    
C19   C20   1.386312 A    
C5    C11   1.541585 S    
C35   H19   1.075953 S    
O7    C3    1.308294 A    
O3    Zn2   2.116626 S    
O8    C4    1.308293 A    
C16   H3    1.057307 S    
C21   C22   1.383892 A    
C8    C10   1.537735 S    
C9    C11   1.535949 S    
C39   H25   1.094034 S    
C6    C12   1.541583 S    
O1    Zn1   2.182529 S    
C23   C24   1.389252 A    
C7    C15   1.534714 S    
C13   C14   1.357214 D    
C41   H31   1.104060 S    
C28   C29   1.388300 A    
C42   H34   1.097717 S    
C40   H28   1.084554 S    
C30   C31   1.378861 A    
O6    Zn2   2.066360 S    
Zn2   N1    2.070408 S    
C19   H6    1.081282 S    
O3    C1    1.309429 A    
O8    Zn1   2.034801 S    
C29   H14   1.075954 S    
C29   C30   1.394345 A    
C34   H18   1.068594 S    
C3    C10   1.472219 S    
C5    C10   1.545018 S    
C35   C36   1.394346 A    
C7    C12   1.571341 S    
C18   C19   1.378729 A    
C26   H12   1.058877 S    
C15   C20   1.413856 A    
C5    C7    1.546375 S    
C10   C12   1.535948 S    
C23   H9    1.068755 S    
O2    Zn2   2.182529 S    
C28   H13   1.068592 S    
C34   C35   1.388300 A    
C12   C40   1.487057 S    
O5    Zn1   2.066362 S    
C36   C37   1.378862 A    
Zn1   N2    2.070408 S    
C14   C42   1.513009 S    
C32   H17   1.066381 S    
C36   H20   1.076317 S    
