data_mof_unit_42454.cif
_audit_creation_date              2012-12-10T18:11:52-0500
_audit_creation_method            fapswitch 2.2
_symmetry_space_group_name_H-M    P1
_symmetry_Int_Tables_number       1
_space_group_crystal_system       triclinic
_cell_length_a                    15.799027
_cell_length_b                    11.317119
_cell_length_c                    9.911589
_cell_angle_alpha                 90.219449
_cell_angle_beta                  91.321554
_cell_angle_gamma                 89.858765
_cell_volume                      1771.69744994

loop_
_atom_site_label
_atom_site_type_symbol
_atom_type_description
_atom_site_fract_x
_atom_site_fract_y
_atom_site_fract_z
_atom_type_partial_charge
C1    C     C_R   0.495189 0.261215 0.500469 0.956758
C2    C     C_3   0.083740 0.508868 0.493816 0.025430
C3    C     C_3   0.971144 0.615636 0.529636 -0.213523
C4    C     C_3   0.916435 0.504611 0.502778 0.026908
C5    C     C_3   0.023824 0.583946 0.404615 -0.018516
C6    C     C_3   0.968278 0.474080 0.377693 -0.106406
C7    C     C_1   0.175642 0.508635 0.493927 0.045703
C8    C     C_1   0.824528 0.503738 0.504998 0.034042
C9    C     C_3   0.549835 0.077351 0.630315 0.720968
C10   C     C_3   0.555565 0.935061 0.624292 0.102297
C11   C     C_3   0.397993 0.067850 0.520822 0.760680
C12   C     C_R   0.341208 0.504012 0.498694 0.799274
C13   C     C_3   0.534548 0.073260 0.366008 0.125264
C14   C     C_3   0.493872 0.121712 0.503242 -0.345061
C15   C     C_3   0.502345 0.878266 0.500175 -0.360022
C16   C     C_3   0.403587 0.922233 0.514098 -0.342300
C17   C     C_3   0.545408 0.929877 0.369690 0.753826
C18   C     C_3   0.484044 0.619315 0.081679 -0.237678
C19   C     C_3   0.497237 0.623803 0.919163 -0.153377
C20   C     C_3   0.588055 0.466535 0.085672 0.382147
C21   C     C_3   0.433202 0.427063 0.077830 -0.383404
C22   C     C_3   0.575383 0.435717 0.926076 -0.189568
C23   C     C_R   0.502427 0.738992 0.500332 0.892431
C24   C     C_3   0.423284 0.445795 0.915266 0.433096
C25   C     C_R   0.658891 0.500304 0.501384 0.808757
C26   C     C_3   0.976561 0.429882 0.592181 -0.014838
C27   C     C_3   0.028738 0.398950 0.467276 -0.108108
C28   C     C_1   0.251357 0.507059 0.495583 -0.108159
C29   C     C_1   0.748794 0.502408 0.504609 -0.108849
C30   C     C_3   0.032255 0.540070 0.619741 -0.199146
Cu1   Cu    Cu3+1 0.500040 0.499860 0.642410 1.046878
Cu2   Cu    Cu3+1 0.499960 0.500140 0.357590 0.989841
H1    H     H_    0.516377 0.906834 0.704934 0.240657
H2    H     H_    0.523292 0.684232 0.133318 0.240904
H3    H     H_    0.418329 0.648053 0.103651 0.164727
H4    H     H_    0.441700 0.671620 0.874430 0.121497
H5    H     H_    0.442845 0.332522 0.101270 0.223510
H6    H     H_    0.371893 0.449423 0.124558 0.158484
H7    H     H_    0.367327 0.504868 0.895299 0.072065
H8    H     H_    0.551765 0.344203 0.923976 0.120021
H9    H     H_    0.946547 0.704717 0.555316 0.166701
H10   H     H_    0.059486 0.567209 0.719351 0.174509
N1    N     N_3   0.501840 0.500250 0.143650 -0.199014
N2    N     N_3   0.501160 0.503300 0.856280 -0.219785
O1    O     O_R   0.500050 0.317570 0.620260 -0.478409
O2    O     O_R   0.499980 0.317810 0.379740 -0.542364
O3    O     O_R   0.379110 0.499870 0.620240 -0.581495
O4    O     O_R   0.379040 0.500110 0.379720 -0.590217
O5    O     O_R   0.500020 0.682190 0.620260 -0.595392
O6    O     O_R   0.499950 0.682430 0.379740 -0.518978
O7    O     O_R   0.620960 0.499890 0.620280 -0.515049
O8    O     O_R   0.620890 0.500130 0.379760 -0.597292
C31   C     C_2   0.061184 0.279820 0.425755 0.860937
O9    O     O_2   0.053596 0.194782 0.500019 -0.569058
O10   O     O_R   0.098668 0.266794 0.300262 -0.756242
H11   H     H_    0.116158 0.182191 0.281344 0.348207
O11   O     O_3   0.363303 0.104617 0.647557 -0.534793
C32   C     C_3   0.274342 0.085764 0.660609 -0.150815
H12   H     H_    0.239464 0.170579 0.655137 0.141922
H13   H     H_    0.262095 0.048269 0.761430 0.175283
H14   H     H_    0.245536 0.025428 0.585360 0.213993
C33   C     C_2   0.366530 0.861220 0.641257 0.812507
O12   O     O_2   0.380045 0.899131 0.755424 -0.610772
O13   O     O_R   0.317451 0.758602 0.626903 -0.750368
H15   H     H_    0.297803 0.726634 0.716320 0.324490
O14   O     O_3   0.490489 0.126403 0.251560 -0.550710
C34   C     C_3   0.416207 0.083138 0.185518 -0.099517
H16   H     H_    0.427274 0.071634 0.077430 0.114718
H17   H     H_    0.391339 0.000943 0.223814 0.209276
H18   H     H_    0.366665 0.151962 0.183075 0.172738
C35   C     C_2   0.625210 0.124929 0.348033 1.028270
O15   O     O_2   0.671014 0.084653 0.260963 -0.545110
O16   O     O_R   0.654121 0.224990 0.417618 -0.734488
H19   H     H_    0.717688 0.235688 0.412712 0.354673
O17   O     O_3   0.634671 0.900911 0.383200 -0.635819
C36   C     C_3   0.670932 0.806420 0.308744 -0.242398
H20   H     H_    0.723177 0.763623 0.366113 0.123202
H21   H     H_    0.703919 0.841938 0.220064 0.198821
H22   H     H_    0.626858 0.734716 0.283459 0.230553
O18   O     O_3   0.505751 0.875214 0.258109 -0.584115
C37   C     C_3   0.538701 0.904727 0.134005 -0.316896
H23   H     H_    0.589613 0.845475 0.110664 0.189178
H24   H     H_    0.564570 0.993914 0.122731 0.229812
H25   H     H_    0.485870 0.888555 0.061646 0.214886
O19   O     O_3   0.343507 0.110261 0.414626 -0.611695
C38   C     C_3   0.314897 0.228737 0.426314 -0.275459
H26   H     H_    0.333903 0.273906 0.521331 0.155190
H27   H     H_    0.244982 0.229367 0.419576 0.194831
H28   H     H_    0.337550 0.281636 0.340929 0.178358
C39   C     C_2   0.342410 0.874710 0.400768 0.939168
O20   O     O_2   0.269194 0.910126 0.394132 -0.568467
O21   O     O_R   0.364662 0.784164 0.312709 -0.709074
H29   H     H_    0.316982 0.760844 0.247805 0.329208
C40   C     C_2   0.952606 0.346489 0.701971 0.909424
O22   O     O_2   0.008070 0.296061 0.767825 -0.568056
O23   O     O_R   0.867507 0.328135 0.730058 -0.724882
H30   H     H_    0.859858 0.271146 0.807475 0.351007
C41   C     C_2   0.571546 0.696528 0.879047 0.966817
O24   O     O_2   0.629620 0.652724 0.820414 -0.553327
O25   O     O_R   0.571810 0.816344 0.894967 -0.845606
H31   H     H_    0.631830 0.848041 0.902660 0.333848
O26   O     O_3   0.643345 0.565829 0.113754 -0.645251
C42   C     C_3   0.729479 0.564404 0.077210 -0.292806
H32   H     H_    0.740249 0.630220 0.997231 0.238281
H33   H     H_    0.755138 0.477527 0.047780 0.201820
H34   H     H_    0.768034 0.595348 0.165373 0.175858
C43   C     C_2   0.659223 0.402556 0.855282 0.956438
O27   O     O_2   0.710374 0.475516 0.819646 -0.498889
O28   O     O_R   0.686626 0.285391 0.847755 -0.725894
H35   H     H_    0.660957 0.231176 0.915675 0.301422
O29   O     O_3   0.407128 0.335694 0.851961 -0.513019
C44   C     C_3   0.323350 0.298515 0.875624 -0.245084
H36   H     H_    0.295519 0.333536 0.969838 0.109694
H37   H     H_    0.323653 0.201383 0.886607 0.210178
H38   H     H_    0.281800 0.325266 0.789325 0.173888
C45   C     C_2   0.623378 0.353650 0.149776 0.878644
O30   O     O_2   0.583679 0.263540 0.132131 -0.604822
O31   O     O_R   0.704297 0.342020 0.208082 -0.724060
H39   H     H_    0.728924 0.414095 0.253165 0.327097
C46   C     C_2   0.932371 0.432665 0.244211 0.860284
O32   O     O_2   0.941410 0.492061 0.142913 -0.573580
O33   O     O_R   0.890254 0.324440 0.236408 -0.727072
H40   H     H_    0.870705 0.304264 0.140942 0.361691
C47   C     C_2   0.049672 0.673009 0.301885 0.925554
O34   O     O_2   0.995509 0.731628 0.242711 -0.568990
O35   O     O_R   0.135246 0.689147 0.274836 -0.745937
H41   H     H_    0.144527 0.751957 0.204077 0.339236
O36   O     O_3   0.503210 0.114316 0.743388 -0.503250
C48   C     C_3   0.536261 0.077503 0.867898 -0.174921
H42   H     H_    0.603655 0.050975 0.868606 0.170842
H43   H     H_    0.496478 0.004387 0.898908 0.199189
H44   H     H_    0.527365 0.149095 0.941394 0.204252
O37   O     O_3   0.625816 0.147173 0.638980 -0.547736
C49   C     C_3   0.706761 0.094503 0.644615 -0.127097
H45   H     H_    0.717789 0.039127 0.555058 0.170547
H46   H     H_    0.720428 0.051015 0.742719 0.187377
H47   H     H_    0.754208 0.166078 0.639099 0.214795
O38   O     O_3   0.634837 0.893093 0.678101 -0.611726
C50   C     C_3   0.685796 0.807268 0.617155 -0.099189
H48   H     H_    0.651221 0.736521 0.564860 0.155409
H49   H     H_    0.725257 0.765035 0.697039 0.187936
H50   H     H_    0.735132 0.849734 0.557421 0.154814

loop_
_geom_bond_atom_site_label_1
_geom_bond_atom_site_label_2
_ccdc_geom_bond_type
C26   C40   S    
O10   H11   S    
O17   C36   S    
C16   C39   S    
O35   H41   S    
Cu2   O4    S    
O16   H19   S    
O29   C44   S    
C36   H22   S    
C12   O4    A    
O36   C48   S    
C37   H25   S    
C49   H47   S    
C44   H37   S    
C37   H23   S    
O11   C32   S    
C31   O9    D    
C46   O32   D    
C5    C47   S    
C26   C27   S    
C12   C28   S    
C8    C29   T    
C36   H21   S    
C19   H4    S    
C5    C6    S    
C50   H50   S    
C38   H27   S    
C1    O2    A    
C23   O5    A    
C20   O26   S    
C32   H13   S    
C22   C43   S    
C24   H7    S    
C45   O30   D    
C18   C19   S    
O31   H39   S    
Cu2   O8    S    
C33   O13   S    
C21   N1    S    
C22   N2    S    
C21   H6    S    
C2    C7    S    
C43   O27   D    
C2    C27   S    
C10   H1    S    
C9    C10   S    
C6    C27   S    
C4    C8    S    
C48   H44   S    
C32   H14   S    
C15   C23   S    
O14   C34   S    
Cu1   O3    S    
C13   C14   S    
C43   O28   S    
C40   O22   D    
C24   O29   S    
C16   C33   S    
Cu1   O5    S    
C12   O3    A    
C6    C46   S    
C44   H36   S    
C37   H24   S    
C19   C41   S    
C46   O33   S    
C13   O14   S    
C31   O10   S    
C25   C29   S    
C9    O36   S    
Cu1   N2    S    
C34   H16   S    
C36   H20   S    
C4    C6    S    
Cu1   O7    S    
C35   O16   S    
C38   H26   S    
C23   O6    A    
C49   H46   S    
C13   C35   S    
C32   H12   S    
O19   C38   S    
C17   O18   S    
C7    C28   T    
C34   H17   S    
C3    C30   S    
C9    C14   S    
C25   O7    A    
C33   O12   D    
C11   C16   S    
C39   O21   S    
Cu1   Cu2   S    
C22   H8    S    
O23   H30   S    
C42   H33   S    
C40   O23   S    
C18   H2    S    
Cu2   O6    S    
C20   C22   S    
C26   C30   S    
C41   O25   S    
O37   C49   S    
C24   N2    S    
C2    C5    S    
C2    C30   S    
C3    C4    S    
C20   N1    S    
C19   N2    S    
C47   O35   S    
C48   H42   S    
C18   H3    S    
C15   C17   S    
C3    H9    S    
Cu2   O2    S    
C20   C45   S    
O18   C37   S    
C3    C5    S    
C38   H28   S    
C4    C26   S    
C50   H48   S    
C27   C31   S    
C49   H45   S    
C13   C17   S    
C10   C15   S    
C34   H18   S    
O13   H15   S    
C25   O8    A    
C35   O15   D    
C18   N1    S    
C50   H49   S    
C1    O1    A    
C39   O20   D    
C11   O19   S    
O21   H29   S    
C11   C14   S    
Cu2   N1    S    
C45   O31   S    
C42   H34   S    
O26   C42   S    
O38   C50   S    
C21   H5    S    
C41   O24   D    
Cu1   O1    S    
C21   C24   S    
O28   H35   S    
C42   H32   S    
C17   O17   S    
C30   H10   S    
O25   H31   S    
C1    C14   S    
C10   O38   S    
O33   H40   S    
C11   O11   S    
C44   H38   S    
C15   C16   S    
C47   O34   D    
C48   H43   S    
C9    O37   S    
