data_mof_unit_40309.cif
_audit_creation_date              2012-12-10T18:58:46-0500
_audit_creation_method            fapswitch 2.2
_symmetry_space_group_name_H-M    P1
_symmetry_Int_Tables_number       1
_space_group_crystal_system       triclinic
_cell_length_a                    12.990263
_cell_length_b                    10.861456
_cell_length_c                    9.559974
_cell_angle_alpha                 90.324059
_cell_angle_beta                  95.898023
_cell_angle_gamma                 90.48003
_cell_volume                      1341.63084667

loop_
_atom_site_label
_atom_site_type_symbol
_atom_type_description
_atom_site_fract_x
_atom_site_fract_y
_atom_site_fract_z
_atom_type_partial_charge
C1    C     C_R   0.497821 0.262470 0.499183 0.796072
C2    C     C_R   0.027855 0.508418 0.566956 0.177927
C3    C     C_R   0.972215 0.486374 0.434171 0.184060
C4    C     C_R   0.864874 0.480137 0.422932 -0.280163
C5    C     C_R   0.867720 0.520502 0.673489 -0.199329
C6    C     C_R   0.975236 0.524680 0.686182 -0.221817
C7    C     C_R   0.457187 0.063826 0.608343 0.053185
C8    C     C_R   0.489055 0.129399 0.494980 -0.109821
C9    C     C_R   0.510382 0.064127 0.374146 -0.210348
C10   C     C_R   0.512066 0.935845 0.374767 -0.215952
C11   C     C_R   0.494572 0.871191 0.497273 -0.082402
C12   C     C_R   0.300595 0.499615 0.473932 0.806110
C13   C     C_R   0.462774 0.936981 0.610636 0.089678
C14   C     C_3   0.502728 0.936187 0.762672 -0.495752
C15   C     C_3   0.491139 0.075402 0.761952 -0.030342
C16   C     C_R   0.585188 0.540729 0.085780 0.215348
C17   C     C_R   0.418820 0.453225 0.062710 -0.078950
C18   C     C_R   0.418306 0.454631 0.914237 -0.075515
C19   C     C_R   0.585519 0.538184 0.937957 0.222605
C20   C     C_3   0.632583 0.662474 0.934189 -0.519564
C21   C     C_3   0.628908 0.669654 0.092120 -0.160805
C22   C     C_R   0.500427 0.737764 0.500109 0.799751
C23   C     C_R   0.699400 0.499279 0.526167 0.794390
C24   C     C_R   0.812173 0.499408 0.541595 -0.052833
C25   C     C_R   0.187834 0.497342 0.459026 -0.048772
C26   C     C_R   0.024733 0.471267 0.314684 -0.225969
C27   C     C_R   0.132222 0.477093 0.326978 -0.197799
C28   C     C_R   0.135268 0.513440 0.578503 -0.273840
Cu1   Cu    Cu3+1 0.499990 0.499980 0.640670 0.932733
Cu2   Cu    Cu3+1 0.500010 0.500020 0.359330 0.931850
H1    H     H_    0.822507 0.460258 0.321633 0.144739
H2    H     H_    0.585474 0.909530 0.778426 0.172604
H3    H     H_    0.565640 0.126670 0.784376 0.170841
H4    H     H_    0.352519 0.416181 0.108434 0.136630
H5    H     H_    0.350763 0.420684 0.849825 0.130580
H6    H     H_    0.711300 0.659298 0.898602 0.184721
H7    H     H_    0.579264 0.727133 0.876646 0.205022
H8    H     H_    0.572123 0.737919 0.123176 0.169960
H9    H     H_    0.828244 0.534650 0.766545 0.147585
H10   H     H_    0.982797 0.454996 0.212182 0.129289
H11   H     H_    0.017073 0.541384 0.788653 0.131126
H12   H     H_    0.171705 0.464392 0.233591 0.147618
H13   H     H_    0.177724 0.529906 0.680705 0.147504
H14   H     H_    0.531763 0.111882 0.282334 0.168909
H15   H     H_    0.532472 0.888330 0.282077 0.147212
H16   H     H_    0.450084 0.885945 0.827698 0.200825
N1    N     N_R   0.500660 0.500930 0.148010 -0.194671
N2    N     N_R   0.500660 0.500890 0.852110 -0.181381
O1    O     O_R   0.500000 0.319640 0.618810 -0.588238
O2    O     O_R   0.500010 0.319680 0.381230 -0.579713
O3    O     O_R   0.348990 0.499960 0.599490 -0.594201
O4    O     O_R   0.349000 0.500000 0.361910 -0.590173
O5    O     O_R   0.499990 0.680320 0.618770 -0.578024
O6    O     O_R   0.500000 0.680360 0.381190 -0.587601
O7    O     O_R   0.651000 0.500000 0.638090 -0.582222
O8    O     O_R   0.651010 0.500040 0.400510 -0.597869
C29   C     C_3   0.403448 0.121457 0.844437 -0.344280
C30   C     C_3   0.437927 0.127602 0.001574 -0.856577
H17   H     H_    0.459128 0.034481 0.041734 0.250984
H18   H     H_    0.505619 0.190642 0.022526 0.251595
H19   H     H_    0.373777 0.162753 0.058523 0.241070
H20   H     H_    0.380567 0.214519 0.807020 0.208506
H21   H     H_    0.333897 0.060746 0.825870 0.204396
C31   C     C_3   0.736172 0.682689 0.175154 -0.349270
C32   C     C_3   0.783639 0.810525 0.156644 -0.369093
C33   C     C_3   0.888438 0.823275 0.243914 -0.834305
H22   H     H_    0.879648 0.810790 0.357368 0.256639
H23   H     H_    0.943078 0.753482 0.210321 0.256731
H24   H     H_    0.921280 0.916412 0.228957 0.241487
H25   H     H_    0.794441 0.826033 0.044282 0.224564
H26   H     H_    0.730930 0.882436 0.190716 0.216892
H27   H     H_    0.727635 0.671238 0.288267 0.226827
H28   H     H_    0.789041 0.610738 0.141460 0.189026

loop_
_geom_bond_atom_site_label_1
_geom_bond_atom_site_label_2
_ccdc_geom_bond_type
C32   H25   S    
C33   H23   S    
C23   C24   S    
C23   O7    A    
C16   C21   S    
C14   H16   S    
C25   C27   A    
C1    C8    S    
Cu2   O6    S    
C1    O2    A    
C28   H13   S    
C19   C20   S    
C7    C13   A    
C12   C25   S    
C31   H28   S    
C31   C32   S    
C18   N2    A    
C10   H15   S    
C7    C15   S    
C2    C3    A    
C29   C30   S    
C23   O8    A    
C22   O6    A    
Cu1   O1    S    
C13   C14   S    
C25   C28   A    
C20   H7    S    
C15   C29   S    
C27   H12   S    
C26   H10   S    
C26   C27   A    
Cu1   Cu2   S    
C5    C24   A    
Cu1   O5    S    
C30   H19   S    
C16   C19   A    
C16   N1    A    
C12   O4    A    
Cu1   O3    S    
C29   H21   S    
C22   O5    A    
Cu2   O8    S    
C10   C11   A    
C31   H27   S    
Cu2   O2    S    
C5    C6    A    
C4    C24   A    
C4    H1    S    
C7    C8    A    
C17   H4    S    
Cu1   N2    S    
C30   H18   S    
C3    C4    A    
C33   H24   S    
C17   N1    A    
Cu2   N1    S    
C11   C13   A    
C12   O3    A    
C33   H22   S    
C20   C21   S    
C18   H5    S    
C11   C22   S    
C17   C18   A    
C32   C33   S    
C9    C10   A    
C14   H2    S    
C5    H9    S    
Cu2   O4    S    
C14   C15   S    
C21   C31   S    
C2    C28   A    
Cu1   O7    S    
C29   H20   S    
C30   H17   S    
C32   H26   S    
C1    O1    A    
C15   H3    S    
C3    C26   A    
C21   H8    S    
C2    C6    A    
C19   N2    A    
C8    C9    A    
C9    H14   S    
C6    H11   S    
C20   H6    S    
