data_mof_unit_29890.cif
_audit_creation_date              2012-10-26T18:32:01-0400
_audit_creation_method            fapswitch 2.2
_symmetry_space_group_name_H-M    P1
_symmetry_Int_Tables_number       1
_space_group_crystal_system       triclinic
_cell_length_a                    12.422772
_cell_length_b                    13.247207
_cell_length_c                    14.276052
_cell_angle_alpha                 93.820131
_cell_angle_beta                  108.037385
_cell_angle_gamma                 117.315998
_cell_volume                      1923.27718006

loop_
_atom_site_label
_atom_site_type_symbol
_atom_type_description
_atom_site_fract_x
_atom_site_fract_y
_atom_site_fract_z
_atom_type_partial_charge
C1    C     C_R   0.649402 0.713972 0.506646 0.572660
C2    C     C_R   0.120340 0.386009 0.999931 0.006667
C3    C     C_R   0.114374 0.454752 0.077090 -0.063376
C4    C     C_R   0.620296 0.519245 0.687299 0.562824
C5    C     C_R   0.209207 0.344224 0.026593 0.242517
C6    C     C_R   0.299621 0.379879 0.128166 0.184441
C7    C     C_R   0.214643 0.499719 0.175093 0.205974
C8    C     C_R   0.142580 0.963944 0.364674 0.217951
C9    C     C_R   0.252643 0.160611 0.469726 -0.043211
C10   C     C_R   0.717932 0.923931 0.554623 -0.132568
C11   C     C_R   0.799918 0.042378 0.562072 0.267717
C12   C     C_R   0.847943 0.505741 0.926261 -0.061546
C13   C     C_R   0.904381 0.074213 0.530932 -0.047367
C14   C     C_R   0.923766 0.988793 0.485787 -0.050135
C15   C     C_R   0.822134 0.870153 0.457052 0.018375
C16   C     C_R   0.346834 0.285190 0.487555 0.540128
C17   C     C_R   0.036647 0.018257 0.462641 -0.014507
C18   C     C_R   0.033945 0.933725 0.393330 -0.033503
C19   C     C_R   0.922965 0.821582 0.353594 -0.120057
C20   C     C_R   0.815605 0.790357 0.381501 0.241528
C21   C     C_R   0.154131 0.127775 0.508870 0.242252
C22   C     C_R   0.250234 0.076853 0.403419 -0.125923
C23   C     C_R   0.805910 0.533453 0.000995 0.100076
C24   C     C_R   0.728603 0.836795 0.503319 -0.038855
C25   C     C_R   0.258013 0.688480 0.663786 -0.153093
C26   C     C_R   0.650595 0.332461 0.369310 0.430536
C27   C     C_R   0.729336 0.290007 0.350388 -0.176949
C28   C     C_R   0.378975 0.479937 0.312518 0.599458
C29   C     C_R   0.863929 0.351487 0.402686 -0.133595
C30   C     C_R   0.927258 0.460886 0.471539 -0.008565
C31   C     C_R   0.844822 0.497660 0.494771 0.082938
C32   C     C_R   0.068308 0.529748 0.523914 -0.022142
C33   C     C_R   0.122329 0.626315 0.606262 -0.043314
C34   C     C_R   0.936088 0.462959 0.950826 -0.055172
C35   C     C_R   0.040803 0.661597 0.629298 0.244503
C36   C     C_R   0.905048 0.597287 0.574576 -0.035761
C37   C     C_R   0.158380 0.507998 0.496598 0.348292
C38   C     C_R   0.341403 0.654734 0.641331 0.380107
C39   C     C_R   0.687120 0.529362 0.795787 0.008117
C40   C     C_R   0.299677 0.454936 0.203108 -0.016699
C41   C     C_R   0.703112 0.559209 0.971225 0.246741
C42   C     C_R   0.638649 0.547902 0.867616 -0.206752
C43   C     C_R   0.801352 0.522376 0.828326 0.206043
C44   C     C_3   0.261051 0.197463 0.680594 -0.104634
C45   C     C_R   0.010267 0.479379 0.053200 0.000228
C46   C     C_3   0.668084 0.120506 0.553085 -0.112889
C47   C     C_3   0.512678 0.752645 0.799859 -0.136200
C48   C     C_3   0.323840 0.698048 0.229454 -0.095204
C49   C     C_3   0.088137 0.849554 0.676160 -0.120394
C50   C     C_3   0.458733 0.167903 0.247760 -0.109776
C51   C     C_3   0.492988 0.406940 0.127111 -0.054757
C52   C     C_3   0.099193 0.372904 0.763747 -0.062877
C53   C     C_R   0.970051 0.509177 0.127723 -0.088445
C54   C     C_R   0.866398 0.532559 0.102440 0.252290
C55   C     C_R   0.944122 0.396430 0.875104 -0.124104
C56   C     C_R   0.035660 0.359638 0.897838 0.305890
Cu1   Cu    Cu3+1 0.416420 0.526630 0.522910 1.049377
Cu2   Cu    Cu3+1 0.583580 0.473370 0.477090 1.034555
H1    H     H_    0.329252 0.100622 0.377089 0.171132
H2    H     H_    0.010995 0.504946 0.205021 0.200310
H3    H     H_    0.875537 0.367906 0.797049 0.185893
H4    H     H_    0.873917 0.547191 0.241757 0.314014
H5    H     H_    0.247879 0.224297 0.986387 0.343129
H6    H     H_    0.060128 0.846983 0.238329 0.337195
H7    H     H_    0.361235 0.234581 0.679937 0.108577
H8    H     H_    0.223961 0.106181 0.689378 0.104695
H9    H     H_    0.268960 0.250951 0.748228 0.166391
H10   H     H_    0.585392 0.045393 0.562912 0.122193
H11   H     H_    0.650866 0.113024 0.470910 0.104151
H12   H     H_    0.917351 0.756619 0.299637 0.165205
H13   H     H_    0.670184 0.201510 0.582040 0.159155
H14   H     H_    0.713799 0.639348 0.282712 0.346645
H15   H     H_    0.613813 0.769790 0.839385 0.154339
H16   H     H_    0.447827 0.684071 0.829415 0.083251
H17   H     H_    0.514818 0.836364 0.818928 0.117897
H18   H     H_    0.285428 0.707659 0.151086 0.114049
H19   H     H_    0.338331 0.771920 0.283160 0.169283
H20   H     H_    0.421228 0.705199 0.246866 0.121348
H21   H     H_    0.985489 0.830621 0.640629 0.125264
H22   H     H_    0.138464 0.874522 0.622005 0.118867
H23   H     H_    0.646562 0.900435 0.589555 0.166401
H24   H     H_    0.140087 0.926048 0.742245 0.146705
H25   H     H_    0.147101 0.384919 0.409112 0.351305
H26   H     H_    0.475436 0.102633 0.285400 0.083962
H27   H     H_    0.495332 0.181945 0.185161 0.115551
H28   H     H_    0.351072 0.130849 0.212615 0.178747
H29   H     H_    0.574511 0.391704 0.165897 0.185264
H30   H     H_    0.530196 0.502329 0.150823 0.168024
H31   H     H_    0.465616 0.380505 0.043937 0.136422
H32   H     H_    0.107878 0.322861 0.704028 0.183399
H33   H     H_    0.199959 0.444649 0.813272 0.095738
H34   H     H_    0.964231 0.166386 0.537094 0.179201
H35   H     H_    0.038533 0.409965 0.724481 0.115175
H36   H     H_    0.595215 0.610807 0.009356 0.300231
H37   H     H_    0.966065 0.580147 0.810103 0.342330
H38   H     H_    0.299020 0.763947 0.725301 0.153223
H39   H     H_    0.914579 0.307206 0.391100 0.166921
H40   H     H_    0.688861 0.207615 0.297377 0.085390
H41   H     H_    0.849471 0.625126 0.601151 0.208209
H42   H     H_    0.553011 0.557554 0.843812 0.122617
N1    N     N_R   0.290690 0.566960 0.557640 -0.209575
N2    N     N_R   0.709100 0.433710 0.442970 -0.222719
O1    O     O_R   0.545970 0.684450 0.528810 -0.468424
O2    O     O_3   0.202607 0.265157 0.953480 -0.656448
O3    O     O_3   0.145878 0.887762 0.296399 -0.709318
O4    O     O_3   0.174179 0.203072 0.592767 -0.586611
O5    O     O_3   0.788982 0.129707 0.609734 -0.540102
O6    O     O_3   0.698718 0.687808 0.327202 -0.687877
O7    O     O_3   0.476713 0.716623 0.694185 -0.527957
O8    O     O_3   0.234064 0.591983 0.243055 -0.530221
O9    O     O_3   0.093121 0.754372 0.711730 -0.578150
O10   O     O_3   0.115165 0.440628 0.401372 -0.694265
O11   O     O_3   0.514340 0.274732 0.319238 -0.500713
O12   O     O_R   0.687130 0.639470 0.490120 -0.498352
O13   O     O_3   0.386511 0.339224 0.154666 -0.563622
O14   O     O_3   0.039646 0.295940 0.819331 -0.470282
O15   O     O_3   0.666465 0.594732 0.043182 -0.676753
O16   O     O_3   0.871423 0.541316 0.766481 -0.703908
O17   O     O_R   0.519670 0.535100 0.660030 -0.481487
O18   O     O_R   0.660830 0.490120 0.621340 -0.477299
O19   O     O_R   0.312870 0.360530 0.509880 -0.500184
O20   O     O_R   0.454030 0.315550 0.471190 -0.481783
O21   O     O_R   0.339170 0.509880 0.378660 -0.448787
O22   O     O_R   0.480330 0.464900 0.339970 -0.408345
O23   O     O_3   0.822719 0.553035 0.175678 -0.694426

loop_
_geom_bond_atom_site_label_1
_geom_bond_atom_site_label_2
_ccdc_geom_bond_type
C48   H19   S    
C48   O8    S    
C55   C56   A    
C27   H40   S    
C27   C29   A    
C41   C42   A    
C48   H18   S    
C44   H8    S    
C19   C20   A    
C8    O3    S    
C28   O21   A    
C50   H26   S    
H6    O3    S    
C53   C54   A    
C12   C23   A    
C26   C27   A    
C9    C16   S    
C38   N1    A    
C3    C7    A    
C30   C31   A    
H36   O15   S    
C9    C22   A    
C28   C40   S    
C18   C19   A    
C48   H20   S    
C16   O20   A    
C46   H11   S    
C50   H27   S    
C52   H32   S    
H14   O6    S    
C37   O10   S    
C8    C22   A    
C7    C40   A    
C4    O17   A    
Cu2   N2    S    
C30   C32   A    
C1    O1    A    
C21   O4    S    
Cu1   O17   S    
C5    O2    S    
C45   C53   A    
C34   C55   A    
C13   C14   A    
C14   C17   A    
C44   H7    S    
C53   H2    S    
C39   C42   A    
C52   O14   S    
H37   O16   S    
C15   C20   A    
Cu1   O1    S    
C54   O23   S    
Cu2   O20   S    
C44   H9    S    
C31   N2    A    
C47   H15   S    
C51   H29   S    
C22   H1    S    
C39   C43   A    
C10   C24   A    
C47   O7    S    
C3    C45   A    
C8    C18   A    
C49   H21   S    
C35   C36   A    
C49   H24   S    
C16   O19   A    
C46   H10   S    
C29   C30   A    
C42   H42   S    
C25   C38   A    
Cu1   O21   S    
C14   C15   A    
C4    C39   S    
C46   O5    S    
Cu2   O18   S    
C17   C18   A    
C56   O14   S    
C52   H35   S    
C34   C45   A    
C32   C37   A    
C38   O7    S    
C46   H13   S    
C29   H39   S    
C1    C24   S    
C15   C24   A    
C13   H34   S    
C11   O5    S    
C6    C40   A    
C2    C5    A    
C1    O12   A    
C12   C34   A    
C35   O9    S    
C23   C54   A    
C31   C36   A    
C47   H16   S    
H5    O2    S    
C19   H12   S    
C51   H30   S    
H4    O23   S    
C28   O22   A    
C44   O4    S    
C12   C43   A    
Cu1   N1    S    
C10   H23   S    
Cu2   O22   S    
C23   C41   A    
C7    O8    S    
C49   O9    S    
C50   O11   S    
C32   C33   A    
C2    C3    A    
C26   O11   S    
C47   H17   S    
C2    C56   A    
C51   H31   S    
C37   N1    A    
C11   C13   A    
C9    C21   A    
Cu1   Cu2   S    
C5    C6    A    
C55   H3    S    
C33   C35   A    
C36   H41   S    
C51   O13   S    
C6    O13   S    
C10   C11   A    
C50   H28   S    
C43   O16   S    
Cu1   O19   S    
C25   H38   S    
Cu2   O12   S    
C49   H22   S    
H25   O10   S    
C4    O18   A    
C52   H33   S    
C41   O15   S    
C26   N2    A    
C25   C33   A    
C20   O6    S    
C17   C21   A    
