data_mof_unit_20050.cif
_audit_creation_date              2012-10-26T18:47:33-0400
_audit_creation_method            fapswitch 2.2
_symmetry_space_group_name_H-M    P1
_symmetry_Int_Tables_number       1
_space_group_crystal_system       triclinic
_cell_length_a                    10.867017
_cell_length_b                    12.994385
_cell_length_c                    11.650311
_cell_angle_alpha                 99.826238
_cell_angle_beta                  94.342744
_cell_angle_gamma                 90.29149
_cell_volume                      1616.08264763

loop_
_atom_site_label
_atom_site_type_symbol
_atom_type_description
_atom_site_fract_x
_atom_site_fract_y
_atom_site_fract_z
_atom_type_partial_charge
C1    C     C_R   0.498272 0.299009 0.478613 0.549214
C2    C     C_R   0.485801 0.984404 0.654075 -0.104484
C3    C     C_R   0.510268 0.123642 0.356517 -0.133483
C4    C     C_R   0.489736 0.876358 0.643482 -0.133487
C5    C     C_R   0.489147 0.139009 0.564907 -0.083675
C6    C     C_R   0.510860 0.860991 0.435092 -0.083679
C7    C     C_R   0.493566 0.031083 0.555161 0.070930
C8    C     C_R   0.506442 0.968917 0.444838 0.070933
C9    C     C_R   0.406414 0.386064 0.019457 -0.182974
C10   C     C_R   0.593585 0.613936 0.980543 -0.182971
C11   C     C_R   0.412369 0.398964 0.142144 0.054000
C12   C     C_R   0.501728 0.700990 0.521387 0.549213
C13   C     C_R   0.587631 0.601036 0.857856 0.054004
C14   C     C_R   0.536890 0.551663 0.158369 0.040933
C15   C     C_R   0.463110 0.448337 0.841631 0.040938
C16   C     C_R   0.262067 0.502736 0.499706 0.548793
C17   C     C_R   0.737933 0.497265 0.500294 0.548792
C18   C     C_R   0.532982 0.542055 0.035142 -0.001684
C19   C     C_R   0.467018 0.457946 0.964858 -0.001683
C20   C     C_R   0.203509 0.666698 0.189118 0.044640
C21   C     C_R   0.796494 0.333343 0.810921 0.044641
C22   C     C_R   0.158529 0.642852 0.291821 -0.028242
C23   C     C_R   0.871897 0.495543 0.501581 -0.001722
C24   C     C_R   0.841467 0.357174 0.708208 -0.028235
C25   C     C_R   0.100814 0.545779 0.291189 0.024672
C26   C     C_R   0.899188 0.454241 0.708822 0.024672
C27   C     C_R   0.086566 0.473158 0.186947 -0.106083
C28   C     C_R   0.913448 0.526873 0.813056 -0.106090
C29   C     C_R   0.131681 0.496427 0.085080 -0.132183
C30   C     C_R   0.868342 0.503618 0.914933 -0.132193
C31   C     C_R   0.190208 0.592549 0.086047 -0.131688
C32   C     C_R   0.809810 0.407501 0.913984 -0.131690
C33   C     C_R   0.925280 0.515223 0.401761 -0.150116
C34   C     C_R   0.128103 0.504459 0.498420 -0.001723
C35   C     C_R   0.074720 0.484779 0.598239 -0.150117
C36   C     C_2   0.263437 0.768686 0.187669 0.199490
C37   C     C_2   0.736553 0.231362 0.812387 0.199494
C38   C     C_R   0.947618 0.479240 0.601087 -0.031967
C39   C     C_R   0.052383 0.520765 0.398916 -0.031966
C40   C     C_R   0.501347 0.814348 0.533848 0.003887
C41   C     C_R   0.498656 0.185652 0.466151 0.003880
C42   C     C_R   0.514206 0.015596 0.345924 -0.104484
Cu1   Cu    Cu3+1 0.509250 0.507730 0.615930 0.941333
Cu2   Cu    Cu3+1 0.490750 0.492270 0.384070 0.941329
H1    H     H_    0.224600 0.609201 0.006142 0.099791
H2    H     H_    0.831554 0.300876 0.627789 0.144954
H3    H     H_    0.041390 0.398308 0.184921 0.111281
H4    H     H_    0.958627 0.601719 0.815067 0.111284
H5    H     H_    0.121462 0.439740 0.005136 0.121615
H6    H     H_    0.878570 0.560313 0.994871 0.121616
H7    H     H_    0.867791 0.529173 0.325860 0.132547
H8    H     H_    0.132210 0.470830 0.674140 0.132549
H9    H     H_    0.521030 0.813447 0.350395 0.127234
H10   H     H_    0.478978 0.186553 0.649604 0.127267
H11   H     H_    0.482467 0.841399 0.720765 0.125791
H12   H     H_    0.775425 0.390862 0.993897 0.099792
H13   H     H_    0.517533 0.158601 0.279235 0.125793
H14   H     H_    0.523648 0.968703 0.260810 0.111093
H15   H     H_    0.476360 0.031297 0.739189 0.111112
H16   H     H_    0.305361 0.782785 0.109977 0.092779
H17   H     H_    0.694649 0.217273 0.890093 0.092786
H18   H     H_    0.410973 0.384721 0.786929 0.111951
H19   H     H_    0.589027 0.615278 0.213071 0.111948
H20   H     H_    0.634839 0.656862 0.816847 0.129030
H21   H     H_    0.365160 0.343138 0.183152 0.129029
H22   H     H_    0.354516 0.320548 0.967870 0.082893
H23   H     H_    0.645484 0.679452 0.032130 0.082891
H24   H     H_    0.168433 0.699143 0.372246 0.144950
N1    N     N_R   0.523180 0.519350 0.790130 -0.226291
N2    N     N_R   0.476820 0.480650 0.209870 -0.226289
O1    O     O_R   0.506570 0.354460 0.582000 -0.509873
O2    O     O_2   0.734451 0.161481 0.727640 -0.526032
O3    O     O_R   0.493430 0.645540 0.418000 -0.509879
O4    O     O_R   0.490940 0.341410 0.386200 -0.515114
O5    O     O_R   0.509060 0.658590 0.613800 -0.515115
O6    O     O_R   0.327460 0.506540 0.597900 -0.513501
O7    O     O_R   0.672540 0.493460 0.402100 -0.513500
O8    O     O_R   0.311830 0.493480 0.402100 -0.489768
O9    O     O_R   0.688170 0.506520 0.597900 -0.489770
O10   O     O_2   0.265505 0.838566 0.272416 -0.526012

loop_
_geom_bond_atom_site_label_1
_geom_bond_atom_site_label_2
_ccdc_geom_bond_type
C3    C42   A    
C27   C29   A    
C14   C18   A    
C2    C7    A    
C42   H14   S    
C11   N2    A    
C7    C8    A    
C29   H5    S    
C10   H23   S    
C15   C19   A    
C17   C23   S    
C1    O4    A    
Cu2   O7    S    
C24   C26   A    
C18   C19   A    
Cu1   O9    S    
C17   O9    A    
C34   C35   A    
C9    H22   S    
C16   C34   S    
C9    C19   A    
C3    C41   A    
C4    C40   A    
C23   C33   A    
C22   C25   A    
Cu2   N2    S    
C30   H6    S    
Cu1   N1    S    
C12   O3    A    
C14   N2    A    
C15   N1    A    
Cu1   O5    S    
C10   C18   A    
C21   C32   A    
C34   C39   A    
C5    H10   S    
C35   C38   A    
C36   O10   D    
C5    C7    A    
C2    H15   S    
C26   C38   S    
C6    C8    A    
C12   C40   S    
C2    C4    A    
Cu1   Cu2   S    
C17   O7    A    
C33   C39   A    
Cu2   O4    S    
C9    C11   A    
C22   H24   S    
C3    H13   S    
C1    C41   S    
C20   C22   A    
C4    H11   S    
C6    C40   A    
C37   O2    D    
C33   H7    S    
C6    H9    S    
C27   H3    S    
Cu1   O6    S    
C5    C41   A    
C28   H4    S    
Cu1   O1    S    
C16   O6    A    
C8    C42   A    
C36   H16   S    
C10   C13   A    
C37   H17   S    
C25   C27   A    
C23   C38   A    
C26   C28   A    
C24   H2    S    
C28   C30   A    
C29   C31   A    
C25   C39   S    
C30   C32   A    
C13   H20   S    
C13   N1    A    
C1    O1    A    
C14   H19   S    
Cu2   O8    S    
C15   H18   S    
C16   O8    A    
Cu2   O3    S    
C12   O5    A    
C20   C36   S    
C21   C37   S    
C31   H1    S    
C21   C24   A    
C35   H8    S    
C32   H12   S    
C11   H21   S    
C20   C31   A    
