data_mof_unit_59653.cif
_audit_creation_date              2012-12-11T15:16:41-0500
_audit_creation_method            fapswitch 2.2
_symmetry_space_group_name_H-M    P1
_symmetry_Int_Tables_number       1
_space_group_crystal_system       triclinic
_cell_length_a                    25.596617
_cell_length_b                    7.213387
_cell_length_c                    21.52877
_cell_angle_alpha                 90.005524
_cell_angle_beta                  110.337251
_cell_angle_gamma                 90.001647
_cell_volume                      3727.2444646

loop_
_atom_site_label
_atom_site_type_symbol
_atom_type_description
_atom_site_fract_x
_atom_site_fract_y
_atom_site_fract_z
_atom_type_partial_charge
O1    O     O_R   0.554350 0.505270 0.581390 -0.531001
O2    O     O_R   0.445650 0.005270 0.418610 -0.531005
O3    O     O_R   0.553380 0.177580 0.454800 -0.540924
O4    O     O_R   0.446620 0.677580 0.545200 -0.540916
C1    C     C_R   0.565544 0.344933 0.437998 0.702158
C2    C     C_R   0.434459 0.844937 0.562006 0.702204
O5    O     O_R   0.560970 0.175640 0.583140 -0.532470
O6    O     O_R   0.439030 0.675640 0.416860 -0.532465
O7    O     O_R   0.453290 0.004120 0.547860 -0.539254
O8    O     O_R   0.546710 0.504120 0.452140 -0.539250
C3    C     C_R   0.575876 0.343735 0.608247 0.672815
C4    C     C_R   0.424121 0.843713 0.391754 0.672807
O9    O     O_3   0.464660 0.338800 0.488280 -0.371810
O10   O     O_3   0.535340 0.838800 0.511720 -0.371823
V1    V     V_3+5 0.506560 0.064420 0.502170 1.426250
V2    V     V_3+5 0.493440 0.564420 0.497830 1.426297
C5    C     C_R   0.154479 0.001304 0.291506 -0.120511
C6    C     C_R   0.845560 0.500515 0.708465 -0.120476
H1    H     H_    0.072082 0.042953 0.226741 0.092913
H2    H     H_    0.927968 0.542079 0.773223 0.092995
H3    H     H_    0.142839 0.043111 0.333104 0.156693
H4    H     H_    0.857222 0.541953 0.666848 0.156695
C7    C     C_R   0.123479 0.943696 0.173116 -0.032492
C8    C     C_R   0.876522 0.443579 0.826889 -0.032470
C9    C     C_R   0.394504 0.805604 0.270481 -0.157273
C10   C     C_R   0.605464 0.306150 0.729536 -0.157314
C11   C     C_R   0.354465 0.797744 0.207259 -0.115881
C12   C     C_R   0.645491 0.298499 0.792768 -0.115869
C13   C     C_R   0.298432 0.830523 0.197318 -0.151774
C14   C     C_R   0.701535 0.331078 0.802705 -0.151758
C15   C     C_R   0.280720 0.872898 0.251008 0.076213
C16   C     C_R   0.719269 0.373027 0.749001 0.076195
C17   C     C_R   0.322403 0.882382 0.315931 0.034489
C18   C     C_R   0.677599 0.382278 0.684066 0.034492
C19   C     C_R   0.223275 0.907564 0.242368 0.045613
C20   C     C_R   0.776724 0.407493 0.757637 0.045619
C21   C     C_R   0.209617 0.955572 0.299181 0.094359
C22   C     C_R   0.790407 0.455042 0.700803 0.094359
C23   C     C_R   0.251271 0.959774 0.362632 0.136289
C24   C     C_R   0.748762 0.459032 0.637344 0.136251
C25   C     C_R   0.306417 0.923326 0.370314 -0.206068
C26   C     C_R   0.693605 0.422802 0.629669 -0.206059
C27   C     C_R   0.178794 0.898220 0.179492 -0.200096
C28   C     C_R   0.821192 0.398374 0.820526 -0.200043
C29   C     C_R   0.112811 0.999279 0.229621 -0.181798
C30   C     C_R   0.887220 0.498670 0.770357 -0.181892
C31   C     C_R   0.379492 0.848379 0.325356 -0.068492
C32   C     C_R   0.620499 0.348489 0.674646 -0.068460
H5    H     H_    0.185843 0.859692 0.134678 0.088333
H6    H     H_    0.814124 0.360196 0.865359 0.088254
H7    H     H_    0.437618 0.777278 0.276723 0.104334
H8    H     H_    0.562340 0.278014 0.723298 0.104330
H9    H     H_    0.270042 0.822261 0.146934 0.102308
H10   H     H_    0.729915 0.323004 0.853098 0.102296
H11   H     H_    0.366969 0.764973 0.165369 0.123432
H12   H     H_    0.632970 0.266064 0.834669 0.123435
H13   H     H_    0.337013 0.928651 0.419863 0.138697
H14   H     H_    0.663017 0.427955 0.580114 0.138616
C33   C     C_R   0.115830 0.767297 0.872077 0.313134
C34   C     C_R   0.884210 0.267370 0.127977 0.313210
C35   C     C_R   0.152386 0.759760 0.835748 0.379909
C36   C     C_R   0.847693 0.259904 0.164357 0.379960
C37   C     C_R   0.184768 0.916202 0.832750 -0.218673
C38   C     C_R   0.815312 0.416338 0.167357 -0.218762
C39   C     C_R   0.178094 0.079780 0.864394 -0.299358
C40   C     C_R   0.821966 0.579876 0.135688 -0.299131
H15   H     H_    0.202426 0.201318 0.862652 0.214862
H16   H     H_    0.797634 0.701409 0.137433 0.214825
C41   C     C_R   0.142032 0.088634 0.901013 0.387319
C42   C     C_R   0.858002 0.588678 0.099037 0.387342
C43   C     C_R   0.108401 0.934260 0.903528 -0.339631
C44   C     C_R   0.891621 0.434294 0.096502 -0.339705
N1    N     N_R   0.237918 0.063843 0.768813 -0.298162
N2    N     N_R   0.751261 0.246128 0.211267 -0.235283
N3    N     N_R   0.270367 0.053793 0.731949 -0.302269
N4    N     N_R   0.719193 0.235817 0.248417 -0.228258
C45   C     C_R   0.291593 0.888692 0.721361 0.529191
C46   C     C_R   0.708490 0.388786 0.278746 0.529305
N5    N     N_R   0.280881 0.735703 0.751666 -0.228167
N6    N     N_R   0.729735 0.553891 0.268193 -0.302266
N7    N     N_R   0.248817 0.745995 0.788823 -0.235300
N8    N     N_R   0.762188 0.563964 0.231335 -0.298146
C47   C     C_R   0.225638 0.909377 0.797210 0.559633
C48   C     C_R   0.774453 0.409512 0.202910 0.559712
C49   C     C_R   0.329774 0.709295 0.644840 0.452550
C50   C     C_R   0.670303 0.209374 0.355249 0.452773
C51   C     C_R   0.366507 0.699568 0.608664 -0.254389
C52   C     C_R   0.633541 0.199610 0.391391 -0.254462
H17   H     H_    0.371439 0.569396 0.586316 0.125708
H18   H     H_    0.628608 0.069454 0.413740 0.125571
C53   C     C_R   0.396116 0.856152 0.600587 -0.074233
C54   C     C_R   0.603902 0.356155 0.399436 -0.074072
C55   C     C_R   0.389103 0.023732 0.630192 -0.147382
C56   C     C_R   0.610905 0.523722 0.369827 -0.147552
H19   H     H_    0.411009 0.147854 0.624947 0.133076
H20   H     H_    0.588975 0.647812 0.375045 0.133041
C57   C     C_R   0.354969 0.032939 0.668664 -0.205649
C58   C     C_R   0.645062 0.532955 0.331383 -0.205858
H21   H     H_    0.351916 0.163346 0.692116 0.178679
H22   H     H_    0.648104 0.663343 0.307921 0.178549
C59   C     C_R   0.326032 0.875864 0.677970 -0.039046
C60   C     C_R   0.674034 0.375931 0.322116 -0.038776
O11   O     O_R   0.953220 0.285790 0.047790 -0.520022
O12   O     O_R   0.046780 0.785790 0.952210 -0.520018
O13   O     O_R   0.939020 0.617570 0.916840 -0.543152
O14   O     O_R   0.060980 0.117570 0.083160 -0.543174
C61   C     C_R   0.922784 0.448550 0.892490 0.650375
C62   C     C_R   0.077215 0.948574 0.107513 0.650348
O15   O     O_R   0.946600 0.615450 0.045180 -0.510615
O16   O     O_R   0.053400 0.115450 0.954820 -0.510548
O17   O     O_R   0.054370 0.786770 0.081410 -0.535665
O18   O     O_R   0.945630 0.286770 0.918590 -0.535657
C63   C     C_R   0.933083 0.446150 0.060638 0.727428
C64   C     C_R   0.066922 0.946143 0.939368 0.727527
O19   O     O_3   0.035300 0.454160 0.011680 -0.368850
O20   O     O_3   0.964700 0.954160 0.988320 -0.368868
V3    V     V_3+5 0.993450 0.728620 0.997830 1.458773
V4    V     V_3+5 0.006550 0.228620 0.002170 1.458831
O21   O     O_3   0.159325 0.591713 0.808320 -0.519683
C65   C     C_3   0.130441 0.594244 0.739009 0.112741
H23   H     H_    0.141945 0.715169 0.714400 0.111234
H24   H     H_    0.084799 0.598116 0.727353 0.101733
C66   C     C_3   0.144310 0.418672 0.708848 -0.640355
H25   H     H_    0.132828 0.294322 0.731637 0.214776
H26   H     H_    0.120779 0.416284 0.654741 0.158261
H27   H     H_    0.189625 0.414315 0.717386 0.272086
O22   O     O_3   0.840789 0.091920 0.191837 -0.519697
C67   C     C_3   0.869686 0.094670 0.261145 0.112520
H28   H     H_    0.858276 0.215900 0.285711 0.111092
H29   H     H_    0.915328 0.098126 0.272774 0.101840
C68   C     C_3   0.855716 0.919432 0.291389 -0.639983
H30   H     H_    0.867158 0.794840 0.268678 0.214795
H31   H     H_    0.879221 0.917254 0.345504 0.158234
H32   H     H_    0.810392 0.915350 0.282820 0.272122
O23   O     O_3   0.139681 0.251679 0.933667 -0.501521
C69   C     C_3   0.183678 0.252239 0.995432 0.178569
H33   H     H_    0.224879 0.235335 0.989239 0.099216
H34   H     H_    0.177912 0.139197 0.027748 0.074559
C70   C     C_3   0.184199 0.436782 0.029904 -0.633892
H35   H     H_    0.144208 0.457502 0.038233 0.234584
H36   H     H_    0.218676 0.438499 0.078552 0.146934
H37   H     H_    0.190431 0.552238 0.999060 0.221312
O24   O     O_3   0.860333 0.751683 0.066362 -0.501532
C71   C     C_3   0.816352 0.752059 0.004584 0.178487
H38   H     H_    0.775147 0.735002 0.010755 0.099163
H39   H     H_    0.822168 0.639030 0.972287 0.074565
C72   C     C_3   0.815790 0.936591 0.970102 -0.633875
H40   H     H_    0.855790 0.957472 0.961808 0.234614
H41   H     H_    0.781333 0.938156 0.921437 0.146991
H42   H     H_    0.809501 0.052026 0.000924 0.221272
O25   O     O_3   0.298328 0.556712 0.649893 -0.549779
C73   C     C_3   0.269390 0.479534 0.586747 0.092522
H43   H     H_    0.295544 0.371316 0.575156 0.151701
H44   H     H_    0.257389 0.585527 0.546413 0.146989
C74   C     C_3   0.215996 0.389420 0.587565 -0.648009
H45   H     H_    0.188998 0.495633 0.598452 0.212400
H46   H     H_    0.193202 0.326915 0.538470 0.205433
H47   H     H_    0.225712 0.279171 0.625796 0.249064
O26   O     O_3   0.701778 0.056852 0.350202 -0.549800
C75   C     C_3   0.730544 0.979171 0.413306 0.092542
H48   H     H_    0.704317 0.870684 0.424613 0.151546
H49   H     H_    0.742415 0.084785 0.453772 0.147128
C76   C     C_3   0.784025 0.889369 0.412642 -0.648073
H50   H     H_    0.811129 0.995889 0.402126 0.212375
H51   H     H_    0.806645 0.826225 0.461672 0.205592
H52   H     H_    0.774440 0.779660 0.374220 0.249099
I1    I     I_    0.235700 0.018157 0.451685 -0.527147
I2    I     I_    0.764363 0.516768 0.548269 -0.527134
O27   O     O_3   0.091148 0.603696 0.880740 -0.499541
C77   C     C_3   0.039467 0.580517 0.829043 0.209428
H53   H     H_    0.032140 0.675843 0.786032 0.025892
H54   H     H_    0.006286 0.609259 0.849382 0.120394
C78   C     C_3   0.033786 0.380411 0.804730 -0.673189
H55   H     H_    0.025853 0.288138 0.841635 0.223404
H56   H     H_    0.998673 0.367148 0.757005 0.146167
H57   H     H_    0.072370 0.334607 0.796983 0.248256
O28   O     O_3   0.908862 0.103738 0.119286 -0.499528
C79   C     C_3   0.960559 0.080552 0.170952 0.209350
H58   H     H_    0.967904 0.175817 0.213988 0.025908
H59   H     H_    0.993720 0.109350 0.150588 0.120415
C80   C     C_3   0.966251 0.880436 0.195228 -0.673080
H60   H     H_    0.974069 0.788193 0.158236 0.223638
H61   H     H_    0.001451 0.867088 0.242866 0.146131
H62   H     H_    0.927720 0.834697 0.203121 0.248104

loop_
_geom_bond_atom_site_label_1
_geom_bond_atom_site_label_2
_ccdc_geom_bond_type
C40   H16   S    
C37   C39   A    
C7    C29   A    
C51   C53   A    
C74   H46   S    
O27   C77   S    
C45   C59   S    
C72   H40   S    
O1    C3    A    
C68   H32   S    
O2    C4    A    
C67   H28   S    
C26   H14   S    
C2    O7    A    
C9    H7    S    
C79   H58   S    
C12   H12   S    
O15   V3    S    
C66   H25   S    
C23   C25   A    
C78   H55   S    
O20   V3    S    
O5    C3    A    
C14   H10   S    
C42   O24   S    
N2    N4    A    
C16   C20   A    
C76   H51   S    
C5    C29   A    
C69   C70   S    
C36   O22   S    
C70   H37   S    
C46   N6    A    
C66   H26   S    
C35   O21   S    
C77   H53   S    
C56   C58   A    
O24   C71   S    
C7    C27   A    
C11   C13   A    
C34   C36   A    
C61   O18   A    
C41   C43   A    
C38   C48   S    
C36   C38   A    
C57   H21   S    
C76   H50   S    
C12   C14   A    
C39   H15   S    
C18   C26   A    
O13   V3    S    
O25   C73   S    
C15   C17   A    
O11   C63   A    
C19   C27   A    
C50   O26   S    
C9    C31   A    
C65   C66   S    
C10   C32   A    
O14   C62   A    
C24   C26   A    
C41   O23   S    
C55   H19   S    
C22   C24   A    
O14   V4    S    
C74   H47   S    
C13   C15   A    
N1    N3    A    
O16   V4    S    
C3    C32   S    
C4    C31   S    
C6    C30   A    
C54   C56   A    
N7    C47   A    
C65   H24   S    
C78   H56   S    
C70   H35   S    
C33   C35   A    
C42   C44   A    
C49   C51   A    
N4    C46   A    
C1    C54   S    
C71   C72   S    
C52   C54   A    
O23   C69   S    
C76   H52   S    
C71   H39   S    
C75   C76   S    
C80   H61   S    
N5    N7    A    
C27   H5    S    
C66   H27   S    
O3    C1    A    
C34   O28   S    
C80   H60   S    
C44   C63   S    
C5    H3    S    
C43   C64   S    
C37   C47   S    
C16   C18   A    
O4    V2    S    
C49   O25   S    
C10   H8    S    
C53   C55   A    
O13   C61   A    
O26   C75   S    
C73   C74   S    
O6    C4    A    
O19   V4    S    
C72   H42   S    
C35   C37   A    
C45   N5    A    
O1    V2    S    
C5    C21   A    
C56   H20   S    
O2    V1    S    
N3    C45   A    
C38   C40   A    
O12   C64   A    
O4    C2    A    
C52   H18   S    
N8    C48   A    
C51   H17   S    
C8    C28   A    
C15   C19   A    
C20   C28   A    
O11   V4    S    
C18   C32   A    
O22   C67   S    
C50   C60   A    
C67   C68   S    
C55   C57   A    
C49   C59   A    
C65   H23   S    
C69   H34   S    
O12   V3    S    
C73   H44   S    
C80   H62   S    
C28   H6    S    
C39   C41   A    
O16   C64   A    
C19   C21   A    
C6    H4    S    
C10   C12   A    
N2    C48   A    
C71   H38   S    
C68   H31   S    
C67   H29   S    
C79   H59   S    
O21   C65   S    
H1    C29   S    
O15   C63   A    
C9    C11   A    
C72   H41   S    
C58   H22   S    
C62   O17   A    
O17   V3    S    
C17   C25   A    
C75   H48   S    
C20   C22   A    
C8    C61   S    
O7    V1    S    
C8    C30   A    
C1    O8    A    
C21   C23   A    
C58   C60   A    
C14   C16   A    
C70   H36   S    
C40   C42   A    
C13   H9    S    
C17   C31   A    
C7    C62   S    
C50   C52   A    
O5    V1    S    
C78   H57   S    
N6    N8    A    
C11   H11   S    
C34   C44   A    
C6    C22   A    
C68   H30   S    
H2    C30   S    
C24   I2    S    
C79   C80   S    
C25   H13   S    
C23   I1    S    
C73   H43   S    
O6    V2    S    
O28   C79   S    
O9    V2    S    
C33   C43   A    
C74   H45   S    
O18   V4    S    
O10   V1    S    
C69   H33   S    
O3    V1    S    
O8    V2    S    
C46   C60   S    
C77   H54   S    
C33   O27   S    
N1    C47   A    
C57   C59   A    
C2    C53   S    
C75   H49   S    
C77   C78   S    
