data_mof_unit_63934.cif
_audit_creation_date              2012-10-26T17:55:15-0400
_audit_creation_method            fapswitch 2.2
_symmetry_space_group_name_H-M    P1
_symmetry_Int_Tables_number       1
_space_group_crystal_system       triclinic
_cell_length_a                    21.718186
_cell_length_b                    21.71815
_cell_length_c                    29.395933
_cell_angle_alpha                 90.001016
_cell_angle_beta                  90.000494
_cell_angle_gamma                 90.00003
_cell_volume                      13865.439025

loop_
_atom_site_label
_atom_site_type_symbol
_atom_type_description
_atom_site_fract_x
_atom_site_fract_y
_atom_site_fract_z
_atom_type_partial_charge
C1    C     C_R   0.381029 0.000000 1.000000 0.558127
C2    C     C_R   0.119907 1.000000 0.000000 0.655984
C3    C     C_3   0.886220 0.188441 0.926108 0.027176
C4    C     C_3   0.833524 0.145296 0.913055 -0.229279
C5    C     C_3   0.821574 0.146310 0.861925 -0.502142
C6    C     C_3   0.811557 0.886142 0.926177 0.027165
C7    C     C_3   0.854679 0.833415 0.913151 -0.229260
C8    C     C_3   0.853663 0.821419 0.862027 -0.502149
C9    C     C_3   0.113745 0.811611 0.926114 0.027161
C10   C     C_3   0.166521 0.854667 0.913075 -0.229239
C11   C     C_3   0.178395 0.853742 0.861934 -0.502134
C12   C     C_3   0.811555 0.113880 0.073810 0.027163
C13   C     C_R   0.000011 0.119907 0.000000 0.655962
C14   C     C_3   0.854684 0.166605 0.086829 -0.229268
C15   C     C_3   0.853658 0.178625 0.137950 -0.502156
C16   C     C_3   0.113606 0.188288 0.073944 0.027151
C17   C     C_3   0.166428 0.145296 0.086995 -0.229213
C18   C     C_3   0.178097 0.146025 0.138163 -0.502119
C19   C     C_3   0.188445 0.886134 0.073813 0.027163
C20   C     C_3   0.145324 0.833405 0.086835 -0.229256
C21   C     C_3   0.146343 0.821404 0.137958 -0.502140
C22   C     C_3   0.886162 0.811527 0.073858 0.027176
C23   C     C_3   0.833474 0.854687 0.086903 -0.229278
C24   C     C_R   0.880093 1.000000 1.000000 0.656086
C25   C     C_3   0.821462 0.853622 0.138024 -0.502147
C26   C     C_3   0.688470 0.613881 0.426182 0.027165
C27   C     C_3   0.645321 0.666586 0.413154 -0.229270
C28   C     C_3   0.646379 0.678618 0.362035 -0.502147
C29   C     C_3   0.386194 0.688432 0.426137 0.027164
C30   C     C_3   0.333467 0.645316 0.413097 -0.229262
C31   C     C_3   0.321513 0.646314 0.361968 -0.502141
C32   C     C_3   0.311560 0.386158 0.426164 0.027161
C33   C     C_3   0.354680 0.333431 0.413133 -0.229261
C34   C     C_3   0.353675 0.321453 0.362007 -0.502139
C35   C     C_R   0.500000 0.380093 0.500000 0.656040
C36   C     C_3   0.613809 0.311557 0.426137 0.027166
C37   C     C_3   0.666530 0.354679 0.413096 -0.229262
C38   C     C_3   0.678492 0.353667 0.361967 -0.502141
C39   C     C_3   0.311528 0.613880 0.573824 0.027168
C40   C     C_3   0.354684 0.666577 0.586855 -0.229276
C41   C     C_3   0.353617 0.678616 0.637973 -0.502146
C42   C     C_3   0.613801 0.688434 0.573867 0.027164
C43   C     C_3   0.666529 0.645322 0.586908 -0.229259
C44   C     C_3   0.678480 0.646320 0.638038 -0.502138
C45   C     C_3   0.688489 0.386102 0.573815 0.027167
C46   C     C_R   0.619907 0.500001 0.500000 0.656076
C47   C     C_3   0.645319 0.333415 0.586844 -0.229278
C48   C     C_3   0.646413 0.321352 0.637959 -0.502150
C49   C     C_3   0.386182 0.311559 0.573857 0.027165
C50   C     C_3   0.333461 0.354682 0.586895 -0.229263
C51   C     C_3   0.321491 0.353670 0.638022 -0.502139
C52   C     C_R   0.500000 0.619907 0.500000 0.656039
C53   C     C_R   0.380093 0.499997 0.500000 0.656053
C54   C     C_R   0.500000 0.000000 0.084644 0.541416
C55   C     C_R   0.000000 0.500000 0.084644 0.541407
C56   C     C_R   0.500000 1.000000 0.915356 0.541415
C57   C     C_R   0.000000 0.381029 0.000000 0.558114
C58   C     C_R   1.000000 0.500000 0.915356 0.541407
C59   C     C_R   1.000000 0.500000 0.584644 0.541415
C60   C     C_R   0.500000 1.000000 0.584644 0.541410
C61   C     C_R   1.000000 0.499999 0.415356 0.541416
C62   C     C_R   0.500000 0.000000 0.415356 0.541411
C63   C     C_1   0.500000 0.000001 0.135916 -0.044636
C64   C     C_1   0.000001 0.500000 0.135916 -0.044642
C65   C     C_1   0.500000 0.999999 0.864084 -0.044637
C66   C     C_1   0.999999 0.500000 0.864084 -0.044642
C67   C     C_1   1.000000 0.500001 0.635916 -0.044641
C68   C     C_R   0.618971 0.000000 0.000000 0.558131
C69   C     C_1   0.500001 1.000000 0.635916 -0.044643
C70   C     C_1   0.000000 0.499999 0.364084 -0.044640
C71   C     C_1   0.499999 0.000000 0.364084 -0.044642
C72   C     C_1   0.500000 0.000001 0.178383 -0.045255
C73   C     C_1   0.000001 0.499999 0.178383 -0.045260
C74   C     C_1   0.500000 0.999998 0.821617 -0.045256
C75   C     C_1   0.999999 0.500001 0.821617 -0.045261
C76   C     C_1   0.999999 0.500001 0.678383 -0.045260
C77   C     C_1   0.500001 0.999999 0.678383 -0.045261
C78   C     C_1   0.000000 0.499998 0.321617 -0.045259
C79   C     C_R   0.000000 0.618971 1.000000 0.558123
C80   C     C_1   0.499999 0.000001 0.321617 -0.045260
C81   C     C_1   0.499999 0.000001 0.228766 -0.009307
C82   C     C_1   0.000001 0.499999 0.228766 -0.009310
C83   C     C_1   0.500001 0.999999 0.771234 -0.009308
C84   C     C_1   0.999999 0.500001 0.771234 -0.009310
C85   C     C_1   0.999999 0.500001 0.728766 -0.009310
C86   C     C_1   0.500001 0.999999 0.728766 -0.009309
C87   C     C_1   0.000001 0.499999 0.271234 -0.009309
C88   C     C_1   0.499999 0.000001 0.271234 -0.009309
C89   C     C_R   0.281950 0.052885 0.986510 -0.147909
C90   C     C_R   0.881029 0.500000 0.500000 0.558134
C91   C     C_R   0.947141 0.281950 0.986461 -0.147998
C92   C     C_R   0.718049 0.947119 0.986501 -0.147994
C93   C     C_R   0.052869 0.718046 0.986474 -0.147953
C94   C     C_R   0.718050 0.052882 0.013496 -0.147979
C95   C     C_R   0.052861 0.281956 0.013545 -0.147894
C96   C     C_R   0.281951 0.947118 0.013494 -0.147962
C97   C     C_R   0.947132 0.718050 0.013522 -0.148009
C98   C     C_R   0.781951 0.552880 0.486500 -0.147993
C99   C     C_R   0.447129 0.781951 0.486480 -0.147993
C100  C     C_R   0.218048 0.447122 0.486494 -0.147978
C101  C     C_R   0.500000 0.881029 0.500000 0.558127
C102  C     C_R   0.552870 0.218048 0.486480 -0.148004
C103  C     C_R   0.218050 0.552878 0.513504 -0.147998
C104  C     C_R   0.552870 0.781952 0.513522 -0.147991
C105  C     C_R   0.781950 0.447120 0.513500 -0.148009
C106  C     C_R   0.447129 0.218049 0.513518 -0.147982
C107  C     C_R   0.217834 0.052526 0.985162 0.181337
C108  C     C_R   0.947504 0.217834 0.985114 0.181350
C109  C     C_R   0.782165 0.947479 0.985151 0.181309
C110  C     C_R   0.052509 0.782161 0.985124 0.181269
C111  C     C_R   0.782166 0.052523 0.014844 0.181332
C112  C     C_R   0.118971 0.500000 0.500000 0.558132
C113  C     C_R   0.052503 0.217843 0.014894 0.181245
C114  C     C_R   0.217835 0.947477 0.014843 0.181322
C115  C     C_R   0.947494 0.782166 0.014871 0.181330
C116  C     C_R   0.717835 0.552521 0.485151 0.181311
C117  C     C_R   0.447490 0.717836 0.485131 0.181308
C118  C     C_R   0.282164 0.447481 0.485144 0.181303
C119  C     C_R   0.552510 0.282163 0.485130 0.181304
C120  C     C_R   0.282166 0.552517 0.514853 0.181327
C121  C     C_R   0.552509 0.717837 0.514871 0.181300
C122  C     C_R   0.717834 0.447481 0.514850 0.181321
C123  C     C_R   0.500000 0.118971 0.500000 0.558129
C124  C     C_R   0.447489 0.282164 0.514867 0.181306
C125  C     C_R   0.186208 0.000001 0.000001 0.027172
C126  C     C_R   0.000006 0.186209 0.000003 0.027121
C127  C     C_R   0.813792 0.000000 0.999999 0.027270
C128  C     C_R   0.000003 0.813791 0.999998 0.027203
C129  C     C_R   0.686208 0.500001 0.500000 0.027284
C130  C     C_R   0.499999 0.686209 0.500001 0.027240
C131  C     C_R   0.313792 0.499999 0.499999 0.027256
C132  C     C_R   0.500000 0.313791 0.499999 0.027244
C133  C     C_R   0.314068 0.000000 0.000000 -0.066993
C134  C     C_R   0.000006 0.880093 1.000000 0.656027
C135  C     C_R   0.000000 0.314070 0.000001 -0.066995
C136  C     C_R   0.685932 0.000000 1.000000 -0.066978
C137  C     C_R   0.000000 0.685931 0.999999 -0.066974
C138  C     C_R   0.814068 0.500000 0.500000 -0.066965
C139  C     C_R   0.500000 0.814069 0.500000 -0.066972
C140  C     C_R   0.185931 0.500000 0.500000 -0.066973
C141  C     C_R   0.500000 0.185931 0.499999 -0.066970
C142  C     C_3   0.188444 0.113893 0.926205 0.027157
C143  C     C_3   0.145324 0.166628 0.913193 -0.229260
C144  C     C_3   0.146349 0.178655 0.862074 -0.502138
Cu1   Cu    Cu3+1 0.500000 0.938190 0.000000 0.922435
Cu2   Cu    Cu3+1 0.000000 0.000000 0.042460 0.925475
Cu3   Cu    Cu3+1 0.500000 0.500000 0.457540 0.925540
Cu4   Cu    Cu3+1 0.500000 0.500000 0.542460 0.925567
Cu5   Cu    Cu3+1 0.061810 0.500000 0.000000 0.922468
Cu6   Cu    Cu3+1 0.500000 0.061810 0.000000 0.922451
Cu7   Cu    Cu3+1 0.938190 0.500000 0.000000 0.922430
Cu8   Cu    Cu3+1 0.000000 0.438190 0.500000 0.922426
Cu9   Cu    Cu3+1 0.561810 0.000000 0.500000 0.922429
Cu10  Cu    Cu3+1 1.000000 0.561810 0.500000 0.922425
Cu11  Cu    Cu3+1 0.438190 0.000000 0.500000 0.922433
Cu12  Cu    Cu3+1 1.000000 1.000000 0.957540 0.925513
H1    H     H_    0.306409 0.094243 0.976629 0.145419
H2    H     H_    0.405781 0.806410 0.476575 0.145392
H3    H     H_    0.636805 0.368859 0.343163 0.143279
H4    H     H_    0.326491 0.571515 0.592257 0.129109
H5    H     H_    0.263834 0.626145 0.584377 0.119525
H6    H     H_    0.402442 0.654868 0.576439 0.191961
H7    H     H_    0.340602 0.709161 0.568624 0.190760
H8    H     H_    0.306473 0.691524 0.649105 0.148810
H9    H     H_    0.385458 0.717039 0.646200 0.148309
H10   H     H_    0.368731 0.636940 0.656823 0.143284
H11   H     H_    0.571428 0.673402 0.592259 0.129177
H12   H     H_    0.625998 0.736129 0.584462 0.119493
H13   H     H_    0.193589 0.405768 0.476601 0.145401
H14   H     H_    0.654897 0.597565 0.576437 0.192033
H15   H     H_    0.709126 0.659485 0.568728 0.190665
H16   H     H_    0.691298 0.693463 0.649226 0.148797
H17   H     H_    0.716936 0.614522 0.646269 0.148311
H18   H     H_    0.636794 0.631110 0.656834 0.143278
H19   H     H_    0.673547 0.428466 0.592260 0.129088
H20   H     H_    0.736182 0.373817 0.584355 0.119537
H21   H     H_    0.597559 0.345149 0.576446 0.191945
H22   H     H_    0.659373 0.290834 0.568597 0.190792
H23   H     H_    0.693556 0.308412 0.649070 0.148813
H24   H     H_    0.594219 0.193588 0.476577 0.145387
H25   H     H_    0.614556 0.282943 0.646185 0.148311
H26   H     H_    0.631334 0.363028 0.656825 0.143287
H27   H     H_    0.428553 0.326576 0.592258 0.129161
H28   H     H_    0.373969 0.263865 0.584442 0.119500
H29   H     H_    0.345110 0.402438 0.576436 0.192015
H30   H     H_    0.290867 0.340536 0.568703 0.190688
H31   H     H_    0.308654 0.306527 0.649197 0.148801
H32   H     H_    0.283042 0.385477 0.646253 0.148311
H33   H     H_    0.363175 0.368859 0.656830 0.143280
H34   H     H_    0.193591 0.594233 0.523394 0.145372
H35   H     H_    0.594218 0.806411 0.523427 0.145394
H36   H     H_    0.806410 0.405764 0.523385 0.145363
H37   H     H_    0.405780 0.193589 0.523420 0.145390
H38   H     H_    0.173428 0.071540 0.907779 0.129153
H39   H     H_    0.236140 0.126115 0.915629 0.119509
H40   H     H_    0.097565 0.154966 0.923637 0.191962
H41   H     H_    0.905798 0.306408 0.976542 0.145369
H42   H     H_    0.159465 0.209202 0.931413 0.190739
H43   H     H_    0.193495 0.191506 0.850912 0.148807
H44   H     H_    0.114543 0.217113 0.853863 0.148313
H45   H     H_    0.131165 0.136992 0.843237 0.143279
H46   H     H_    0.928605 0.173447 0.907713 0.129151
H47   H     H_    0.873990 0.236131 0.915526 0.119503
H48   H     H_    0.845190 0.097543 0.923513 0.192020
H49   H     H_    0.790916 0.159420 0.931238 0.190683
H50   H     H_    0.808703 0.193445 0.850753 0.148807
H51   H     H_    0.783154 0.114473 0.853682 0.148301
H52   H     H_    0.693590 0.905763 0.976614 0.145398
H53   H     H_    0.863277 0.131157 0.843124 0.143274
H54   H     H_    0.826573 0.928505 0.907764 0.129157
H55   H     H_    0.763862 0.873924 0.915595 0.119503
H56   H     H_    0.902436 0.845071 0.923604 0.191999
H57   H     H_    0.840536 0.790830 0.931354 0.190696
H58   H     H_    0.806519 0.808574 0.850856 0.148805
H59   H     H_    0.885471 0.782968 0.853805 0.148307
H60   H     H_    0.868849 0.863094 0.843207 0.143274
H61   H     H_    0.071372 0.826731 0.907761 0.129258
H62   H     H_    0.125861 0.763915 0.915473 0.119456
H63   H     H_    0.094215 0.693587 0.976564 0.145435
H64   H     H_    0.154977 0.902423 0.923601 0.192086
H65   H     H_    0.209121 0.840405 0.931208 0.190577
H66   H     H_    0.191107 0.806596 0.850687 0.148787
H67   H     H_    0.216898 0.885482 0.853705 0.148317
H68   H     H_    0.136710 0.869066 0.843187 0.143265
H69   H     H_    0.826562 0.071522 0.092232 0.129144
H70   H     H_    0.763861 0.126110 0.084385 0.119508
H71   H     H_    0.902442 0.154935 0.076385 0.191966
H72   H     H_    0.840554 0.209185 0.068613 0.190717
H73   H     H_    0.806515 0.191485 0.149110 0.148812
H74   H     H_    0.693591 0.094240 0.023382 0.145395
H75   H     H_    0.885472 0.217075 0.146166 0.148301
H76   H     H_    0.868832 0.136956 0.156782 0.143269
H77   H     H_    0.071212 0.173040 0.092211 0.129400
H78   H     H_    0.125603 0.235979 0.084676 0.119399
H79   H     H_    0.155036 0.097560 0.076332 0.192250
H80   H     H_    0.209066 0.159734 0.068987 0.190339
H81   H     H_    0.190618 0.193158 0.149556 0.148768
H82   H     H_    0.216662 0.114364 0.146399 0.148307
H83   H     H_    0.136383 0.130489 0.156780 0.143241
H84   H     H_    0.173429 0.928494 0.092229 0.129168
H85   H     H_    0.094199 0.306414 0.023476 0.145508
H86   H     H_    0.236140 0.873916 0.084393 0.119504
H87   H     H_    0.097566 0.845061 0.076384 0.192000
H88   H     H_    0.159467 0.790822 0.068628 0.190712
H89   H     H_    0.193487 0.808559 0.149127 0.148803
H90   H     H_    0.114537 0.782950 0.146177 0.148313
H91   H     H_    0.131157 0.863076 0.156782 0.143279
H92   H     H_    0.928537 0.826487 0.092282 0.129112
H93   H     H_    0.873898 0.763834 0.084413 0.119521
H94   H     H_    0.845181 0.902445 0.076483 0.191979
H95   H     H_    0.790880 0.840608 0.068683 0.190749
H96   H     H_    0.306410 0.905760 0.023377 0.145409
H97   H     H_    0.808554 0.806481 0.149159 0.148809
H98   H     H_    0.783047 0.885468 0.146261 0.148308
H99   H     H_    0.863150 0.868732 0.156863 0.143282
H100  H     H_    0.673496 0.571518 0.407750 0.129118
H101  H     H_    0.736164 0.626137 0.415625 0.119522
H102  H     H_    0.597562 0.654887 0.423577 0.191970
H103  H     H_    0.659415 0.709169 0.431382 0.190749
H104  H     H_    0.693523 0.691511 0.350897 0.148808
H105  H     H_    0.614546 0.717048 0.353811 0.148310
H106  H     H_    0.631248 0.636944 0.343190 0.143283
H107  H     H_    0.905784 0.693591 0.023427 0.145358
H108  H     H_    0.428567 0.673402 0.407743 0.129177
H109  H     H_    0.373994 0.736126 0.415543 0.119493
H110  H     H_    0.345103 0.597561 0.423567 0.192027
H111  H     H_    0.290871 0.659478 0.431279 0.190665
H112  H     H_    0.308693 0.693456 0.350781 0.148800
H113  H     H_    0.283058 0.614514 0.353736 0.148309
H114  H     H_    0.363199 0.631106 0.343170 0.143276
H115  H     H_    0.326582 0.428524 0.407758 0.129166
H116  H     H_    0.263866 0.373947 0.415577 0.119501
H117  H     H_    0.402436 0.345078 0.423596 0.192012
H118  H     H_    0.806410 0.594236 0.476614 0.145379
H119  H     H_    0.340528 0.290841 0.431327 0.190684
H120  H     H_    0.306532 0.308619 0.350827 0.148803
H121  H     H_    0.385479 0.282999 0.353782 0.148310
H122  H     H_    0.368872 0.363132 0.343197 0.143279
H123  H     H_    0.571436 0.326575 0.407739 0.129167
H124  H     H_    0.626019 0.263862 0.415549 0.119498
H125  H     H_    0.654883 0.402435 0.423557 0.192026
H126  H     H_    0.709126 0.340531 0.431284 0.190677
H127  H     H_    0.691325 0.306524 0.350789 0.148800
H128  H     H_    0.716940 0.385474 0.353735 0.148310
O1    O     O_R   0.409820 0.947800 0.000000 -0.506666
O2    O     O_R   0.552200 0.909820 0.500000 -0.506661
O3    O     O_R   0.090180 0.552200 0.500000 -0.506664
O4    O     O_R   0.447800 0.090180 0.500000 -0.506662
O5    O     O_R   0.090180 0.447800 0.500000 -0.506664
O6    O     O_R   0.447800 0.909820 0.500000 -0.506661
O7    O     O_R   0.909820 0.552200 0.500000 -0.506666
O8    O     O_R   0.552200 0.090180 0.500000 -0.506663
O9    O     O_R   0.499990 0.947800 0.061980 -0.490433
O10   O     O_R   0.052200 0.499990 0.061980 -0.490427
O11   O     O_R   0.500010 0.052200 0.061980 -0.490428
O12   O     O_R   0.052200 0.409820 0.000000 -0.506653
O13   O     O_R   0.947800 0.500010 0.061980 -0.490436
O14   O     O_R   0.500010 0.947800 0.938020 -0.490432
O15   O     O_R   0.947800 0.499990 0.938020 -0.490435
O16   O     O_R   0.499990 0.052200 0.938020 -0.490431
O17   O     O_R   0.052200 0.500010 0.938020 -0.490429
O18   O     O_R   0.999990 0.447800 0.561980 -0.490433
O19   O     O_R   0.552200 0.999990 0.561980 -0.490432
O20   O     O_R   0.000010 0.552200 0.561980 -0.490432
O21   O     O_R   0.447800 0.000010 0.561980 -0.490432
O22   O     O_R   0.000010 0.447800 0.438020 -0.490432
O23   O     O_R   0.590180 0.052200 0.000000 -0.506665
O24   O     O_R   0.447800 0.999990 0.438020 -0.490432
O25   O     O_R   0.999990 0.552200 0.438020 -0.490433
O26   O     O_R   0.552200 0.000010 0.438020 -0.490433
O27   O     O_R   0.000010 0.909720 0.964150 -0.516698
O28   O     O_R   0.090280 0.000010 0.964150 -0.516648
O29   O     O_R   0.999990 0.090280 0.964150 -0.516597
O30   O     O_R   0.909720 0.999990 0.964150 -0.516647
O31   O     O_R   0.999990 0.909720 0.035850 -0.516595
O32   O     O_R   0.909720 0.000010 0.035850 -0.516644
O33   O     O_R   0.000010 0.090280 0.035850 -0.516776
O34   O     O_R   0.947800 0.590180 0.000000 -0.506661
O35   O     O_R   0.090280 0.999990 0.035850 -0.516648
O36   O     O_R   0.500010 0.409720 0.464150 -0.516651
O37   O     O_R   0.590280 0.500010 0.464150 -0.516642
O38   O     O_R   0.499990 0.590280 0.464150 -0.516660
O39   O     O_R   0.409720 0.499990 0.464150 -0.516664
O40   O     O_R   0.499990 0.409720 0.535850 -0.516659
O41   O     O_R   0.409720 0.500010 0.535850 -0.516626
O42   O     O_R   0.500010 0.590280 0.535850 -0.516660
O43   O     O_R   0.590280 0.499990 0.535850 -0.516619
O44   O     O_3   0.185645 0.105248 0.973736 -0.533374
O45   O     O_R   0.590180 0.947800 0.000000 -0.506667
O46   O     O_3   0.894800 0.185641 0.973646 -0.533383
O47   O     O_3   0.814353 0.894761 0.973711 -0.533410
O48   O     O_3   0.105220 0.814342 0.973658 -0.533412
O49   O     O_3   0.814356 0.105243 0.026278 -0.533400
O50   O     O_3   0.105210 0.185673 0.026383 -0.533424
O51   O     O_3   0.185647 0.894759 0.026280 -0.533390
O52   O     O_3   0.894786 0.814360 0.026327 -0.533390
O53   O     O_3   0.685644 0.605237 0.473712 -0.533404
O54   O     O_3   0.394779 0.685648 0.473674 -0.533407
O55   O     O_3   0.314351 0.394765 0.473699 -0.533408
O56   O     O_R   0.947800 0.409820 0.000000 -0.506654
O57   O     O_3   0.605220 0.314351 0.473673 -0.533410
O58   O     O_3   0.314358 0.605233 0.526294 -0.533396
O59   O     O_3   0.605220 0.685650 0.526330 -0.533410
O60   O     O_3   0.685641 0.394765 0.526287 -0.533400
O61   O     O_3   0.394778 0.314353 0.526321 -0.533403
O62   O     O_R   0.409820 0.052200 0.000000 -0.506661
O63   O     O_R   0.052200 0.590180 0.000000 -0.506661
O64   O     O_R   0.909820 0.447800 0.500000 -0.506666

loop_
_geom_bond_atom_site_label_1
_geom_bond_atom_site_label_2
_ccdc_geom_bond_type
C9    H62   S    
Cu2   O33   S    
Cu12  O30   S    
C15   H76   S    
C68   O23   A    
C19   C20   S    
C74   C83   S    
C12   O49   S    
C46   C129  S    
C7    H56   S    
C62   C71   S    
C21   H91   S    
C56   O16   A    
C19   O51   S    
C98   C138  A    
C38   H3    S    
C8    H58   S    
C92   C109  A    
C54   C63   S    
C82   C87   T    
C94   C111  A    
C52   O38   A    
C143  H42   S    
C118  C131  A    
C55   O10   A    
C105  C138  A    
C109  C127  A    
Cu6   O23   S    
C24   C127  S    
C102  C141  A    
C36   O57   S    
C97   C115  A    
C18   H81   S    
C93   C110  A    
C59   O18   A    
C34   H122  S    
C96   C114  A    
C121  O59   S    
C101  O6    A    
C43   H14   S    
C119  O57   S    
C45   C47   S    
Cu7   O15   S    
C114  O51   S    
Cu3   O38   S    
C24   O30   A    
C11   H67   S    
Cu5   O10   S    
C43   C44   S    
C44   H16   S    
C36   H123  S    
C40   H6    S    
C37   C38   S    
C5    H51   S    
C49   H28   S    
C144  H44   S    
C90   O7    A    
C123  C141  S    
C142  H38   S    
C103  H34   S    
C123  O8    A    
Cu4   O42   S    
C35   O36   A    
C38   H127  S    
C22   H93   S    
C79   C137  S    
Cu5   O17   S    
Cu7   O56   S    
C97   H107  S    
C42   H11   S    
C25   H97   S    
C4    C5    S    
C8    H60   S    
C89   H1    S    
C6    C7    S    
C6    H55   S    
C47   H22   S    
C80   C88   S    
C22   H92   S    
C48   H25   S    
C26   H101  S    
C16   H77   S    
C143  H40   S    
C58   O17   A    
C123  O4    A    
C115  C128  A    
C83   C86   T    
C20   C21   S    
C41   H8    S    
C106  C124  A    
C3    H46   S    
C3    H47   S    
C57   C135  S    
C32   H115  S    
C108  O46   S    
C30   H111  S    
C108  C126  A    
C68   O45   A    
C35   C132  S    
C102  C119  A    
C143  C144  S    
C110  C128  A    
C78   C87   S    
C20   H87   S    
C39   H4    S    
C102  H24   S    
C112  C140  S    
C69   C77   T    
Cu3   Cu4   S    
Cu7   O13   S    
C121  C130  A    
C24   O32   A    
Cu8   O18   S    
C101  C139  S    
C57   O56   A    
C7    C8    S    
C14   H72   S    
C46   O43   A    
Cu5   O12   S    
C36   C37   S    
C122  O60   S    
C23   H94   S    
Cu5   Cu7   S    
C75   C84   S    
Cu9   O8    S    
C28   H105  S    
Cu10  O7    S    
C124  C132  A    
C51   H32   S    
C98   H118  S    
C59   C67   S    
C60   O21   A    
C61   O25   A    
Cu11  O21   S    
C64   C73   T    
C9    C10   S    
Cu1   Cu6   S    
C112  O5    A    
C99   C139  A    
C35   O40   A    
C1    C133  S    
C97   C137  A    
C90   C138  S    
C33   C34   S    
C16   O50   S    
C89   C133  A    
C81   C88   T    
C107  C125  A    
C39   C40   S    
C42   O59   S    
C43   H15   S    
C113  C126  A    
C39   O58   S    
Cu7   O34   S    
C65   C74   T    
Cu3   O39   S    
C29   C30   S    
C128  C134  S    
C99   C117  A    
C12   H70   S    
C53   O41   A    
C41   H10   S    
C31   H114  S    
C17   C18   S    
C63   C72   T    
Cu1   O45   S    
Cu8   O64   S    
Cu8   O22   S    
C3    C4    S    
C50   H30   S    
C37   H125  S    
C109  O47   S    
C94   H74   S    
C17   H80   S    
C9    H61   S    
C3    O46   S    
C15   H75   S    
C22   C23   S    
Cu8   Cu10  S    
C21   H90   S    
C62   O26   A    
C5    H53   S    
Cu3   O36   S    
C93   H63   S    
C103  C140  A    
C33   H117  S    
C60   C69   S    
C76   C85   S    
C105  C122  A    
Cu12  O28   S    
C107  O44   S    
C10   C11   S    
C144  H45   S    
C2    C125  S    
C49   C50   S    
Cu5   O63   S    
C14   C15   S    
Cu11  O4    S    
C142  O44   S    
C134  O31   A    
C18   H82   S    
C61   C70   S    
C120  C131  A    
C29   H109  S    
C103  C120  A    
C1    O1    A    
C25   H99   S    
C4    H49   S    
C26   C27   S    
Cu6   O11   S    
Cu3   O37   S    
C26   O53   S    
C30   C31   S    
Cu2   O31   S    
C29   H108  S    
C36   H124  S    
C23   H95   S    
C5    H50   S    
C49   H27   S    
C55   O13   A    
C49   O61   S    
C16   C17   S    
C28   H104  S    
C142  H39   S    
C116  O53   S    
C53   C131  S    
C112  O3    A    
Cu9   Cu11  S    
Cu1   O1    S    
C122  C129  A    
C72   C81   S    
C51   H33   S    
C38   H128  S    
C134  O27   A    
C22   O52   S    
Cu12  O29   S    
C15   H73   S    
C92   C136  A    
C117  O54   S    
C42   H12   S    
C62   O24   A    
C13   O33   A    
C84   C85   T    
C110  O48   S    
Cu1   O14   S    
C33   H119  S    
C104  H35   S    
C34   H120  S    
C79   O34   A    
Cu9   O19   S    
Cu10  O20   S    
C89   C107  A    
C52   O42   A    
C50   C51   S    
C6    O47   S    
C13   C126  S    
C34   H121  S    
Cu11  O6    S    
C32   H116  S    
C100  C118  A    
C42   C43   S    
C96   H96   S    
C73   C82   S    
Cu9   O26   S    
C106  C141  A    
C20   H88   S    
C27   H102  S    
C100  H13   S    
C91   C108  A    
C44   H18   S    
C11   H68   S    
C104  C139  A    
C32   C33   S    
C45   H19   S    
Cu6   O62   S    
C57   O12   A    
C26   H100  S    
C144  H43   S    
C28   H106  S    
C66   C75   T    
C101  O2    A    
Cu4   O41   S    
C51   H31   S    
C91   C135  A    
Cu11  O24   S    
C46   O37   A    
Cu9   O2    S    
C142  C143  S    
C70   C78   T    
C111  O49   S    
C90   O64   A    
Cu8   O5    S    
C8    H59   S    
C113  O50   S    
C58   O15   A    
C10   H64   S    
C61   O22   A    
C115  O52   S    
C4    H48   S    
C56   C65   S    
C2    O35   A    
C32   O55   S    
C100  C140  A    
C10   H65   S    
C58   C66   S    
C116  C129  A    
C41   H9    S    
C31   H113  S    
C94   C136  A    
C30   H110  S    
C16   H78   S    
C39   H5    S    
C19   H86   S    
C54   O11   A    
C29   O54   S    
C2    O28   A    
C105  H36   S    
C11   H66   S    
C71   C80   T    
C106  H37   S    
C17   H79   S    
C53   O39   A    
Cu2   O35   S    
C68   C136  S    
C44   H17   S    
C40   H7    S    
C45   H20   S    
C114  C125  A    
C124  O61   S    
C21   H89   S    
C104  C121  A    
C56   O14   A    
Cu6   O16   S    
Cu4   O43   S    
C1    O62   A    
C92   H52   S    
C98   C116  A    
C47   C48   S    
C55   C64   S    
C95   C135  A    
C119  C132  A    
Cu10  O3    S    
C117  C130  A    
C7    H57   S    
C40   C41   S    
C95   H85   S    
C77   C86   S    
C111  C127  A    
C13   O29   A    
C18   H83   S    
C59   O20   A    
C60   O19   A    
C31   H112  S    
Cu12  O27   S    
C118  O55   S    
C25   H98   S    
C96   C133  A    
C6    H54   S    
C9    O48   S    
C27   H103  S    
C79   O63   A    
C52   C130  S    
C12   C14   S    
C14   H71   S    
C47   H21   S    
Cu1   O9    S    
C19   H84   S    
C48   H26   S    
C12   H69   S    
C95   C113  A    
Cu2   O32   S    
C23   C25   S    
C93   C137  A    
C54   O9    A    
C120  O58   S    
C91   H41   S    
Cu10  O25   S    
C45   O60   S    
Cu2   Cu12  S    
C99   H2    S    
C27   C28   S    
C67   C76   T    
C50   H29   S    
C37   H126  S    
Cu4   O40   S    
C48   H23   S    
