data_mof_unit_59957.cif
_audit_creation_date              2012-12-11T14:33:50-0500
_audit_creation_method            fapswitch 2.2
_symmetry_space_group_name_H-M    P1
_symmetry_Int_Tables_number       1
_space_group_crystal_system       triclinic
_cell_length_a                    13.92439
_cell_length_b                    14.020067
_cell_length_c                    27.437712
_cell_angle_alpha                 90.002967
_cell_angle_beta                  89.854516
_cell_angle_gamma                 119.638594
_cell_volume                      4655.57238315

loop_
_atom_site_label
_atom_site_type_symbol
_atom_type_description
_atom_site_fract_x
_atom_site_fract_y
_atom_site_fract_z
_atom_type_partial_charge
C1    C     C_R   0.235717 0.785611 0.569459 0.550086
C2    C     C_1   0.693518 0.854582 0.862922 0.049347
C3    C     C_2   0.701606 0.991185 0.399575 0.578765
C4    C     C_2   0.008360 0.717112 0.400296 0.577431
C5    C     C_2   0.275747 0.281147 0.407947 0.580132
C6    C     C_2   0.825512 0.159181 0.227563 0.566597
C7    C     C_2   0.838841 0.683456 0.229201 0.566167
C8    C     C_2   0.297644 0.118796 0.240166 0.567910
C9    C     C_1   0.131244 0.859441 0.857683 0.044763
C10   C     C_1   0.133980 0.271703 0.857774 0.044486
C11   C     C_1   0.608625 0.803675 0.661998 0.000696
C12   C     C_1   0.191804 0.804064 0.660662 -0.000188
C13   C     C_1   0.190658 0.387826 0.660921 -0.001818
C14   C     C_1   0.587976 0.789287 0.619074 0.026800
C15   C     C_1   0.208106 0.797628 0.618157 0.030837
C16   C     C_1   0.200173 0.410669 0.618364 0.027396
C17   C     C_R   0.071552 0.161622 0.097322 0.533587
C18   C     C_R   0.213997 0.450068 0.569585 0.553228
C19   C     C_R   0.777998 0.885454 0.087935 0.549414
C20   C     C_R   0.114955 0.892941 0.087943 0.559560
C21   C     C_R   0.076026 0.171203 0.942664 0.527557
C22   C     C_R   0.779567 0.886867 0.951021 0.551909
C23   C     C_R   0.095250 0.923222 0.942821 0.523543
C24   C     C_R   0.655402 0.899545 0.363907 0.040367
C25   C     C_R   0.099693 0.756953 0.364064 0.041384
C26   C     C_R   0.234134 0.326347 0.369637 0.041699
C27   C     C_R   0.674909 0.918543 0.313241 -0.030113
C28   C     C_R   0.079874 0.756501 0.313426 -0.026053
C29   C     C_R   0.549357 0.763477 0.569843 0.551453
C30   C     C_R   0.227106 0.295192 0.320079 -0.030492
C31   C     C_R   0.721761 0.952209 0.212628 -0.020324
C32   C     C_R   0.045982 0.771831 0.213018 -0.015818
C33   C     C_R   0.195793 0.223363 0.222317 -0.001504
C34   C     C_R   0.235561 0.785909 0.430447 0.568428
C35   C     C_R   0.213115 0.447068 0.431332 0.577450
C36   C     C_R   0.550949 0.764326 0.430568 0.569171
C37   C     C_R   0.762193 0.043318 0.244551 0.041132
C38   C     C_R   0.954839 0.726811 0.245499 0.046708
C39   C     C_R   0.247285 0.185858 0.255541 0.048180
C40   C     C_3   0.686388 0.745905 0.789856 0.420974
C41   C     C_R   0.740951 0.024757 0.294487 -0.102680
C42   C     C_R   0.973549 0.722591 0.295287 -0.101358
C43   C     C_R   0.257853 0.218556 0.304372 -0.106309
C44   C     C_R   0.757131 0.963885 0.164261 -0.101317
C45   C     C_R   0.035225 0.797652 0.164916 -0.107714
C46   C     C_R   0.161498 0.176075 0.176105 -0.113686
C47   C     C_R   0.722017 0.872162 0.134136 -0.023122
C48   C     C_R   0.127513 0.850371 0.134320 -0.028427
C49   C     C_R   0.110416 0.214662 0.144295 -0.026288
C50   C     C_R   0.543648 0.703307 0.347554 -0.136839
C51   C     C_3   0.239156 0.951396 0.783783 0.423346
C52   C     C_R   0.295894 0.830771 0.346647 -0.128176
C53   C     C_R   0.163768 0.449224 0.347622 -0.138329
C54   C     C_R   0.560336 0.721233 0.298009 -0.002718
C55   C     C_R   0.276995 0.828152 0.297069 0.006576
C56   C     C_R   0.159226 0.421560 0.299178 -0.008057
C57   C     C_R   0.627752 0.828574 0.280529 0.026118
C58   C     C_R   0.169414 0.793426 0.280143 0.032496
C59   C     C_R   0.187491 0.341952 0.285224 0.022587
C60   C     C_R   0.510220 0.632294 0.265951 -0.082120
C61   C     C_R   0.365511 0.862624 0.264453 -0.080208
C62   C     C_3   0.039209 0.290283 0.784556 0.421465
C63   C     C_R   0.125263 0.472187 0.264779 -0.077756
C64   C     C_R   0.533039 0.647326 0.215971 0.264530
C65   C     C_R   0.350357 0.871859 0.214588 0.251755
C66   C     C_R   0.109997 0.438054 0.216218 0.273975
C67   C     C_R   0.607186 0.753202 0.198522 0.088342
C68   C     C_R   0.244744 0.845502 0.197726 0.075445
C69   C     C_R   0.128456 0.351460 0.202833 0.079176
C70   C     C_3   0.525483 0.804691 0.742727 -0.291954
C71   C     C_3   0.191917 0.730108 0.743673 -0.291235
C72   C     C_3   0.263036 0.460345 0.744092 -0.291158
C73   C     C_3   0.651708 0.724783 0.734440 0.135748
C74   C     C_R   0.650868 0.844982 0.230470 0.004104
C75   C     C_R   0.152860 0.801289 0.230148 0.005708
C76   C     C_R   0.171928 0.306468 0.236684 0.003838
C77   C     C_R   0.643906 0.768252 0.150300 -0.081165
C78   C     C_R   0.230666 0.869884 0.149766 -0.085299
C79   C     C_R   0.099146 0.305402 0.156748 -0.060681
C80   C     C_R   0.590685 0.790713 0.380559 -0.006854
C81   C     C_R   0.209112 0.797122 0.380173 -0.004310
C82   C     C_R   0.198494 0.401083 0.382823 -0.000034
C83   C     C_3   0.727774 0.930436 0.726544 -0.156577
C84   C     C_3   0.265313 0.932117 0.730041 0.138088
C85   C     C_3   0.059444 0.796505 0.722240 -0.157485
C86   C     C_3   0.194629 0.262881 0.722282 -0.156822
C87   C     C_3   0.744205 0.948183 0.782420 0.082531
C88   C     C_3   0.038991 0.799902 0.777578 0.082922
C89   C     C_3   0.189803 0.238701 0.777422 0.085884
C90   C     C_1   0.727429 0.869286 0.904236 0.033496
C91   C     C_1   0.114867 0.885561 0.897330 0.042520
C92   C     C_1   0.111661 0.228571 0.897264 0.036755
C93   C     C_3   0.628445 0.815774 0.715067 0.001590
C94   C     C_3   0.177300 0.815460 0.712846 -0.002212
C95   C     C_3   0.059101 0.333749 0.730327 0.135069
C96   C     C_3   0.176951 0.361788 0.713125 -0.000397
C97   C     C_3   0.542441 0.804865 0.799177 -0.053094
C98   C     C_3   0.190809 0.754639 0.799328 -0.052949
C99   C     C_3   0.237838 0.435095 0.799699 -0.053443
C100  C     C_3   0.665896 0.839369 0.810306 0.073069
C101  C     C_3   0.148914 0.839292 0.806456 0.070683
C102  C     C_3   0.151920 0.309865 0.806702 0.069897
C103  C     C_2   0.500588 0.870291 0.826999 0.579395
C104  C     C_2   0.132084 0.651607 0.830043 0.580324
C105  C     C_2   0.341319 0.477943 0.830291 0.583519
Cr1   Cr    Cr6+3 0.164410 0.584450 0.499910 1.080929
Cr2   Cr    Cr6+3 0.415550 0.579960 0.499910 1.076835
Cr3   Cr    Cr6+3 0.420040 0.835590 0.499910 1.083571
Cr4   Cr    Cr6+3 0.155170 0.075460 0.019960 1.085046
Cr5   Cr    Cr6+3 0.924540 0.079710 0.019960 1.064753
Cr6   Cr    Cr6+3 0.920290 0.844830 0.019960 1.068036
H1    H     H_    0.450533 0.726838 0.732191 0.079260
H2    H     H_    0.776793 0.094879 0.318546 0.200302
H3    H     H_    0.903582 0.693063 0.319726 0.197743
H4    H     H_    0.291846 0.184256 0.329750 0.200191
H5    H     H_    0.617080 0.698869 0.125912 0.183843
H6    H     H_    0.300431 0.909384 0.125043 0.187862
H7    H     H_    0.063636 0.337705 0.130956 0.206832
H8    H     H_    0.455662 0.550537 0.280006 0.104210
H9    H     H_    0.447373 0.886531 0.278055 0.105783
H10   H     H_    0.107388 0.536004 0.276007 0.103711
H11   H     H_    0.510832 0.872560 0.731310 0.173573
H12   H     H_    0.271444 0.733757 0.734277 0.080858
H13   H     H_    0.125072 0.646019 0.734303 0.174424
H14   H     H_    0.347670 0.476534 0.734835 0.171166
H15   H     H_    0.489445 0.620275 0.360427 0.144561
H16   H     H_    0.378999 0.856238 0.359255 0.143889
H17   H     H_    0.142672 0.511444 0.357957 0.140764
H18   H     H_    0.804193 0.938514 0.709630 0.131731
H19   H     H_    0.048512 0.860463 0.703083 0.133641
H20   H     H_    0.130055 0.189201 0.702986 0.135876
H21   H     H_    0.714348 0.995393 0.709958 0.187270
H22   H     H_    0.997016 0.716062 0.706739 0.185827
H23   H     H_    0.260065 0.536103 0.734746 0.082945
H24   H     H_    0.275686 0.279773 0.706906 0.184533
H25   H     H_    0.831398 0.972775 0.790990 0.128727
H26   H     H_    0.009552 0.859379 0.783672 0.120541
H27   H     H_    0.127730 0.151305 0.783348 0.132954
H28   H     H_    0.573049 0.644931 0.731059 0.135861
H29   H     H_    0.347202 0.935490 0.729174 0.142341
H30   H     H_    0.055513 0.411592 0.728806 0.139450
H31   H     H_    0.420383 0.879319 0.886622 0.369414
H32   H     H_    0.136923 0.570669 0.889944 0.370062
H33   H     H_    0.426430 0.568830 0.888238 0.370597
H34   H     H_    0.489907 0.718864 0.811809 0.172508
H35   H     H_    0.842717 0.828827 0.771122 0.320296
H36   H     H_    0.149527 0.013497 0.758702 0.320202
H37   H     H_    0.971333 0.137528 0.761023 0.320591
H38   H     H_    0.713056 0.133487 0.421923 0.356838
H39   H     H_    0.862002 0.593180 0.423468 0.355999
H40   H     H_    0.249344 0.206820 0.473438 0.353604
H41   H     H_    0.848507 0.271511 0.176146 0.367829
H42   H     H_    0.721356 0.598089 0.179108 0.364296
H43   H     H_    0.384082 0.089094 0.189038 0.364423
H44   H     H_    0.436379 0.491966 0.202272 0.336764
H45   H     H_    0.277915 0.795065 0.811663 0.174270
H46   H     H_    0.506371 0.928871 0.200363 0.337407
H47   H     H_    0.064813 0.544255 0.197555 0.336527
H48   H     H_    0.758786 0.058784 0.829325 0.362430
H49   H     H_    0.931878 0.705235 0.826077 0.368497
H50   H     H_    0.282601 0.220372 0.825317 0.367091
H51   H     H_    0.729779 0.648825 0.714063 0.353876
H52   H     H_    0.339359 0.082057 0.705925 0.351190
H53   H     H_    0.908487 0.257979 0.706165 0.351022
H54   H     H_    0.642235 0.594148 0.805415 0.378003
H55   H     H_    0.388311 0.067481 0.798939 0.377142
H56   H     H_    0.197850 0.482552 0.812178 0.175806
H57   H     H_    0.926404 0.329759 0.799515 0.374290
H58   H     H_    0.820472 0.042711 0.150894 0.170218
H59   H     H_    0.956987 0.786522 0.152096 0.177814
H60   H     H_    0.168798 0.105694 0.165242 0.156216
O1    O     O_R   0.137150 0.468200 0.553200 -0.490722
O2    O     O_R   0.140110 0.470540 0.446010 -0.496248
O3    O     O_R   0.529460 0.669570 0.446010 -0.500939
O4    O     O_R   0.330430 0.859890 0.446010 -0.493421
O5    O     O_R   0.176710 0.690910 0.450560 -0.488369
O6    O     O_R   0.309090 0.485800 0.450560 -0.491858
O7    O     O_R   0.514200 0.823290 0.450560 -0.485494
O8    O     O_3   0.333333 0.666667 0.499990 -0.318481
O9    O     O_R   0.176750 0.985260 0.074180 -0.504502
O10   O     O_R   0.014740 0.191490 0.074180 -0.494336
O11   O     O_R   0.808510 0.823250 0.074180 -0.503193
O12   O     O_R   0.531800 0.668950 0.553200 -0.491632
O13   O     O_R   0.146100 0.172630 0.068980 -0.450621
O14   O     O_R   0.827370 0.973470 0.068980 -0.510804
O15   O     O_R   0.026530 0.853900 0.068980 -0.489695
O16   O     O_3   0.000000 0.000000 0.020040 -0.298069
O17   O     O_R   0.148270 0.170520 0.969620 -0.484609
O18   O     O_R   0.829480 0.977750 0.969620 -0.517105
O19   O     O_R   0.022250 0.851730 0.969620 -0.479059
O20   O     O_2   0.514446 0.957767 0.811285 -0.447797
O21   O     O_R   0.445273 0.829360 0.871247 -0.656312
O22   O     O_2   0.042954 0.575081 0.817578 -0.444470
O23   O     O_R   0.331050 0.862850 0.553200 -0.491493
O24   O     O_R   0.182430 0.643515 0.872657 -0.646546
O25   O     O_2   0.414405 0.457458 0.819615 -0.441023
O26   O     O_R   0.353651 0.543479 0.870816 -0.656450
O27   O     O_3   0.797903 0.774940 0.796527 -0.684423
O28   O     O_3   0.202090 0.028209 0.785704 -0.697621
O29   O     O_3   0.958963 0.178102 0.787587 -0.687357
O30   O     O_2   0.757814 0.989981 0.433488 -0.472455
O31   O     O_R   0.677740 0.076659 0.395218 -0.686617
O32   O     O_2   0.013747 0.776226 0.434178 -0.476614
O33   O     O_R   0.918174 0.610976 0.396446 -0.689302
O34   O     O_R   0.179100 0.982980 0.967000 -0.483153
O35   O     O_2   0.367067 0.289466 0.403907 -0.502955
O36   O     O_R   0.211774 0.232953 0.449578 -0.660314
O37   O     O_2   0.896591 0.228770 0.253717 -0.513563
O38   O     O_R   0.800129 0.190284 0.183134 -0.684524
O39   O     O_2   0.773901 0.695567 0.254964 -0.518952
O40   O     O_R   0.802228 0.624312 0.185717 -0.682735
O41   O     O_2   0.302577 0.054762 0.268883 -0.516356
O42   O     O_R   0.346604 0.134520 0.194129 -0.683301
O43   O     O_3   0.486720 0.559723 0.184019 -0.696721
O44   O     O_3   0.437988 0.910696 0.182237 -0.698951
O45   O     O_R   0.017020 0.196120 0.967000 -0.462568
O46   O     O_3   0.073229 0.484946 0.181962 -0.696802
O47   O     O_3   0.726356 0.034619 0.796401 -0.619040
O48   O     O_3   0.955572 0.696100 0.793086 -0.623465
O49   O     O_3   0.293219 0.255586 0.792878 -0.619527
O50   O     O_3   0.732362 0.718898 0.705571 -0.704323
O51   O     O_3   0.270603 0.013020 0.697951 -0.703973
O52   O     O_3   0.978166 0.257872 0.698518 -0.704110
O53   O     O_3   0.621397 0.648974 0.816448 -0.658165
O54   O     O_3   0.336180 0.993157 0.811746 -0.653168
O55   O     O_3   0.000557 0.349063 0.812237 -0.650375
O56   O     O_R   0.803880 0.820900 0.967000 -0.492517
O57   O     O_R   0.173970 0.688730 0.549930 -0.496904
O58   O     O_R   0.311270 0.485240 0.549930 -0.498510
O59   O     O_R   0.514760 0.826030 0.549930 -0.493469

loop_
_geom_bond_atom_site_label_1
_geom_bond_atom_site_label_2
_ccdc_geom_bond_type
C35   O6    A    
C105  O25   D    
C83   C87   S    
H41   O38   S    
Cr3   O4    S    
Cr5   O14   S    
C36   O3    A    
C21   O45   A    
C89   C102  S    
C32   C45   A    
H36   O28   S    
C95   C96   S    
C67   C77   A    
C24   C27   A    
C73   C93   S    
C45   H59   S    
C7    O39   D    
C32   C75   A    
C4    C25   S    
C20   O9    A    
C6    O38   S    
C54   C60   A    
C40   C73   S    
C25   C28   A    
C46   C49   A    
C33   C39   A    
C60   H8    S    
C64   O43   S    
C7    O40   S    
C29   O59   A    
C65   O44   S    
C66   O46   S    
H55   O54   S    
H57   O55   S    
C11   C14   T    
C19   C47   S    
C86   H20   S    
H52   O51   S    
C66   C69   A    
C72   C99   S    
C83   C93   S    
C79   H7    S    
C46   H60   S    
C69   C76   A    
C87   O47   S    
C48   C78   A    
C2    C90   T    
C27   C41   A    
C44   H58   S    
C34   O4    A    
C17   O13   A    
C43   H4    S    
C5    O35   D    
C24   C80   A    
Cr1   O2    S    
H33   O26   S    
Cr5   O10   S    
C51   O54   S    
C104  O22   D    
C12   C15   T    
C1    C15   S    
C34   C81   S    
C32   C38   A    
C77   H5    S    
C6    O37   D    
C52   C55   A    
H48   O47   S    
C105  O26   S    
C63   C66   A    
C10   C92   T    
C26   C82   A    
C62   C95   S    
Cr2   O6    S    
C61   H9    S    
C25   C81   A    
C33   C46   A    
C12   C94   S    
C3    C24   S    
C97   H34   S    
H43   O42   S    
C19   O11   A    
C70   H1    S    
C63   H10   S    
C35   C82   S    
C42   H3    S    
C58   C75   A    
C88   C101  S    
C99   H56   S    
Cr4   O17   S    
C68   C78   A    
C99   C105  S    
C71   C98   S    
C98   H45   S    
Cr5   O16   S    
C6    C37   S    
C104  O24   S    
H46   O44   S    
C31   C44   A    
C13   C96   S    
C35   O2    A    
C64   C67   A    
C71   H13   S    
C10   C102  S    
C78   H6    S    
C36   O7    A    
C8    O42   S    
C36   C80   S    
C17   C49   S    
C71   C94   S    
H37   O29   S    
C4    O32   D    
Cr3   O59   S    
C22   O56   A    
C73   H28   S    
C62   O55   S    
C20   O15   A    
C18   O58   A    
Cr6   O11   S    
Cr4   O16   S    
C31   C37   A    
Cr3   O8    S    
Cr2   O12   S    
C53   C82   A    
C68   C75   A    
C57   C74   A    
H35   O27   S    
H44   O43   S    
Cr5   O45   S    
C88   O48   S    
H38   O31   S    
C53   H17   S    
C61   C65   A    
C85   H19   S    
C5    O36   S    
C85   C94   S    
C70   H11   S    
C33   C76   A    
C72   H23   S    
H50   O49   S    
H51   O50   S    
C21   C92   S    
C65   C68   A    
H31   O21   S    
C30   C59   A    
C70   C93   S    
C22   C90   S    
C56   C63   A    
Cr3   O7    S    
C67   C74   A    
C84   C94   S    
C86   C96   S    
C22   O18   A    
Cr4   O34   S    
H49   O48   S    
C20   C48   S    
C51   O28   S    
C50   H15   S    
C26   C30   A    
C1    O57   A    
C9    C101  S    
C8    C39   S    
C70   C97   S    
C40   O53   S    
C95   H30   S    
C28   C58   A    
Cr2   O58   S    
C27   C57   A    
C3    O30   D    
Cr1   O57   S    
C30   C43   A    
C69   C79   A    
C52   H16   S    
C47   C77   A    
C14   C29   S    
Cr3   O23   S    
Cr1   O8    S    
C97   C100  S    
C49   C79   A    
Cr4   O13   S    
C21   O17   A    
H42   O40   S    
C87   C100  S    
C45   C48   A    
C71   H12   S    
Cr6   O15   S    
C29   O12   A    
Cr2   O8    S    
Cr1   O1    S    
C87   H25   S    
C51   C84   S    
C41   H2    S    
C31   C74   A    
C86   C89   S    
C50   C80   A    
C40   C100  S    
C39   C43   A    
C44   C47   A    
Cr4   O9    S    
Cr2   O3    S    
C18   O1    A    
C51   C101  S    
C98   C101  S    
Cr5   O18   S    
Cr6   O16   S    
C56   C59   A    
C73   O50   S    
C72   H14   S    
C60   C64   A    
Cr6   O56   S    
C1    O23   A    
C62   O29   S    
C83   H21   S    
C50   C54   A    
C84   O51   S    
C19   O14   A    
C89   O49   S    
H53   O52   S    
C11   C93   S    
H39   O33   S    
C55   C58   A    
C40   O27   S    
C4    O33   S    
H47   O46   S    
C83   H18   S    
C55   C61   A    
C28   C42   A    
C7    C38   S    
C23   C91   S    
C85   C88   S    
C37   C41   A    
C52   C81   A    
C97   C103  S    
C95   O52   S    
C88   H26   S    
C34   O5    A    
C2    C100  S    
C5    C26   S    
C72   C96   S    
C38   C42   A    
C17   O10   A    
C86   H24   S    
C99   C102  S    
C103  O20   D    
C9    C91   T    
C84   H29   S    
Cr6   O19   S    
C16   C18   S    
C89   H27   S    
C13   C16   T    
C53   C56   A    
C3    O31   S    
Cr1   O5    S    
C103  O21   S    
H40   O36   S    
C8    O41   D    
C59   C76   A    
C98   C104  S    
C23   O19   A    
C23   O34   A    
H32   O24   S    
H54   O53   S    
C85   H22   S    
C62   C102  S    
C54   C57   A    
