data_mof_unit_21936.cif
_audit_creation_date              2012-12-10T16:44:40-0500
_audit_creation_method            fapswitch 2.2
_symmetry_space_group_name_H-M    P1
_symmetry_Int_Tables_number       1
_space_group_crystal_system       triclinic
_cell_length_a                    15.008566
_cell_length_b                    9.045689
_cell_length_c                    7.516667
_cell_angle_alpha                 103.459254
_cell_angle_beta                  95.761415
_cell_angle_gamma                 98.849357
_cell_volume                      970.744415518

loop_
_atom_site_label
_atom_site_type_symbol
_atom_type_description
_atom_site_fract_x
_atom_site_fract_y
_atom_site_fract_z
_atom_type_partial_charge
C1    C     C_R   0.495621 0.199731 0.453069 0.859357
C2    C     C_R   0.503203 0.799994 0.547042 0.859873
C3    C     C_R   0.018636 0.234453 0.531358 -0.240255
C4    C     C_R   0.982436 0.765514 0.479280 -0.286731
C5    C     C_2   0.489642 0.031848 0.426739 -0.041954
C6    C     C_2   0.506367 0.967292 0.574078 -0.050039
C7    C     C_R   0.328182 0.489886 0.497024 0.807379
C8    C     C_R   0.672175 0.508487 0.503069 0.805192
C9    C     C_R   0.826102 0.625041 0.452566 -0.312318
C10   C     C_R   0.173449 0.362711 0.520890 -0.306430
C11   C     C_R   0.770122 0.511030 0.510216 -0.065133
C12   C     C_R   0.231399 0.490225 0.492923 -0.064131
C13   C     C_R   0.810472 0.408537 0.592938 0.094393
C14   C     C_R   0.196716 0.618523 0.460330 0.122290
C15   C     C_R   0.897221 0.383332 0.554629 0.056928
C16   C     C_R   0.107555 0.630926 0.493346 0.117294
C17   C     C_R   0.955103 0.504055 0.512045 0.002325
C18   C     C_R   0.047711 0.499275 0.507987 -0.017295
C19   C     C_R   0.920746 0.631743 0.476207 0.123864
C20   C     C_R   0.080229 0.364342 0.520484 0.097040
C21   C     C_R   0.927534 0.243060 0.555356 0.160022
C22   C     C_R   0.076205 0.772003 0.519756 0.138910
Cu1   Cu    Cu3+1 0.510010 0.517380 0.684380 0.927780
Cu2   Cu    Cu3+1 0.489990 0.482620 0.315620 0.928163
H1    H     H_    0.797180 0.714882 0.406973 0.134509
H2    H     H_    0.200727 0.262126 0.539017 0.126695
H3    H     H_    0.040409 0.125252 0.512037 0.135819
H4    H     H_    0.958861 0.868177 0.467714 0.162327
N1    N     N_2   0.474890 0.456420 0.038520 -0.048356
N2    N     N_2   0.525110 0.543580 0.961480 -0.046170
O1    O     O_R   0.506510 0.286130 0.619770 -0.599046
O2    O     O_R   0.493490 0.713870 0.380230 -0.597881
O3    O     O_R   0.489600 0.256770 0.308360 -0.583360
O4    O     O_R   0.510400 0.743230 0.691640 -0.583864
O5    O     O_R   0.378710 0.514640 0.655720 -0.596677
O6    O     O_R   0.621290 0.485360 0.344280 -0.595278
O7    O     O_R   0.361800 0.485290 0.344300 -0.589632
O8    O     O_R   0.638200 0.514710 0.655700 -0.585692
C23   C     C_3   0.774181 0.362869 0.756270 -0.827519
H5    H     H_    0.712316 0.272483 0.709979 0.229041
H6    H     H_    0.826491 0.325639 0.840758 0.235318
H7    H     H_    0.759420 0.465692 0.853059 0.239284
C24   C     C_3   0.251064 0.731405 0.373288 -0.857160
H8    H     H_    0.208900 0.805418 0.318433 0.219677
H9    H     H_    0.309446 0.804158 0.473648 0.228455
H10   H     H_    0.275883 0.667115 0.249484 0.244531
C25   C     C_3   0.861129 0.095814 0.547370 -0.401034
C26   C     C_3   0.877745 0.033728 0.719118 -0.836758
H11   H     H_    0.950785 0.032756 0.756297 0.251489
H12   H     H_    0.854400 0.102692 0.841127 0.245186
H13   H     H_    0.838785 0.914579 0.692700 0.242786
H14   H     H_    0.789092 0.109160 0.527134 0.209773
H15   H     H_    0.865558 0.009033 0.419485 0.174309
C27   C     C_3   0.136063 0.923335 0.633414 -0.402963
C28   C     C_3   0.194767 0.905698 0.803797 -0.820280
H16   H     H_    0.152276 0.842088 0.884616 0.253391
H17   H     H_    0.251198 0.844489 0.765588 0.258885
H18   H     H_    0.225707 0.021952 0.893669 0.226084
H19   H     H_    0.178849 0.980803 0.548387 0.192386
H20   H     H_    0.092303 0.003861 0.692477 0.199224
C29   C     C_3   0.462630 0.936565 0.226896 -0.824021
H21   H     H_    0.442357 0.004512 0.129594 0.232285
H22   H     H_    0.520770 0.885726 0.176077 0.243692
H23   H     H_    0.402081 0.845943 0.214120 0.251082
C30   C     C_3   0.528361 0.061404 0.775220 -0.816860
H24   H     H_    0.545025 0.993205 0.874624 0.233980
H25   H     H_    0.589361 0.152349 0.795618 0.246253
H26   H     H_    0.468668 0.111313 0.818356 0.240719
C31   C     C_3   0.385308 0.380179 0.944526 -0.382294
H27   H     H_    0.356554 0.296785 0.020344 0.149306
H28   H     H_    0.339521 0.465775 0.946620 0.180473
H29   H     H_    0.387030 0.311273 0.803669 0.178901
C32   C     C_3   0.614089 0.621687 0.056817 -0.397167
H30   H     H_    0.659861 0.536960 0.059603 0.178805
H31   H     H_    0.643442 0.703255 0.979334 0.151708
H32   H     H_    0.611347 0.692326 0.196183 0.179113

loop_
_geom_bond_atom_site_label_1
_geom_bond_atom_site_label_2
_ccdc_geom_bond_type
C28   H16   S    
C29   H23   S    
C32   H30   S    
C9    H1    S    
C22   C27   S    
C27   H20   S    
Cu2   O6    S    
C1    C5    S    
C5    C6    D    
C1    O1    A    
C2    O2    A    
C8    O6    A    
C29   H22   S    
Cu2   N1    S    
C4    C19   A    
C9    C19   A    
C6    C30   S    
C10   C20   A    
C30   H25   S    
Cu1   Cu2   S    
C25   H15   S    
C10   H2    S    
C26   H12   S    
C32   H31   S    
C31   H27   S    
C8    O8    A    
C4    H4    S    
C17   C18   A    
C23   H7    S    
N1    C31   S    
C27   H19   S    
C26   H13   S    
C7    C12   S    
C31   H28   S    
C1    O3    A    
Cu1   N2    S    
C23   H6    S    
C23   H5    S    
N2    C32   S    
C2    C6    S    
Cu1   O1    S    
C31   H29   S    
C24   H8    S    
Cu2   O2    S    
N1    N2    D    
C4    C22   A    
C25   C26   S    
C30   H26   S    
Cu2   O7    S    
C7    O7    A    
C5    C29   S    
C3    C20   A    
C9    C11   A    
C10   C12   A    
C26   H11   S    
C12   C14   A    
Cu1   O5    S    
C13   C15   A    
C32   H32   S    
C14   C16   A    
C3    C21   A    
C15   C17   A    
C27   C28   S    
Cu1   O4    S    
C16   C22   A    
C7    O5    A    
C25   H14   S    
Cu1   O8    S    
Cu2   O3    S    
C28   H17   S    
C24   H9    S    
C11   C13   A    
C2    O4    A    
C8    C11   S    
C3    H3    S    
C17   C19   A    
C18   C20   A    
C29   H21   S    
C24   H10   S    
C13   C23   S    
C15   C21   A    
C16   C18   A    
C30   H24   S    
C28   H18   S    
C14   C24   S    
C21   C25   S    
