data_mof_unit_57151.cif
_audit_creation_date              2012-12-10T17:12:02-0500
_audit_creation_method            fapswitch 2.2
_symmetry_space_group_name_H-M    P1
_symmetry_Int_Tables_number       1
_space_group_crystal_system       triclinic
_cell_length_a                    11.82783
_cell_length_b                    13.009465
_cell_length_c                    15.561144
_cell_angle_alpha                 96.418891
_cell_angle_beta                  74.688834
_cell_angle_gamma                 100.329883
_cell_volume                      2266.78366556

loop_
_atom_site_label
_atom_site_type_symbol
_atom_type_description
_atom_site_fract_x
_atom_site_fract_y
_atom_site_fract_z
_atom_type_partial_charge
C1    C     C_R   0.521346 0.700733 0.501288 0.835249
C2    C     C_R   0.478368 0.299272 0.499523 0.843676
C3    C     C_R   0.391453 0.340181 0.059117 -0.128184
C4    C     C_R   0.662959 0.440659 0.895966 -0.100594
C5    C     C_R   0.299941 0.341821 0.016172 -0.103928
C6    C     C_R   0.744647 0.469917 0.950025 -0.075184
C7    C     C_R   0.466478 0.185340 0.497817 -0.103567
C8    C     C_R   0.532661 0.814656 0.504628 -0.102859
C9    C     C_R   0.617298 0.986033 0.557305 0.181209
C10   C     C_R   0.380547 0.013707 0.446857 0.176898
C11   C     C_R   0.615036 0.878292 0.545231 -0.179472
C12   C     C_R   0.382688 0.121262 0.458968 -0.166496
C13   C     C_R   0.455266 0.859629 0.471738 -0.190034
C14   C     C_R   0.544099 0.140570 0.530773 -0.178944
C15   C     C_R   0.458422 0.967916 0.479915 0.078452
C16   C     C_R   0.540274 0.032090 0.523437 0.070839
C17   C     C_R   0.952621 0.622869 0.559784 0.119770
C18   C     C_R   0.045653 0.376607 0.442861 0.113902
C19   C     C_R   0.829507 0.599641 0.567915 0.284916
C20   C     C_R   0.168717 0.399053 0.434516 0.279157
C21   C     C_R   0.857198 0.450411 0.466905 0.309159
C22   C     C_R   0.143166 0.550164 0.533136 0.323157
C23   C     C_R   0.428275 0.492946 0.668545 0.823490
C24   C     C_R   0.571943 0.502878 0.330957 0.814013
C25   C     C_R   0.974618 0.455424 0.478094 -0.149248
C26   C     C_R   0.024974 0.545015 0.522983 -0.133989
C27   C     C_R   0.388788 0.470600 0.763768 -0.074690
C28   C     C_R   0.615587 0.497047 0.232286 -0.065382
C29   C     C_R   0.239966 0.395791 0.889164 -0.115144
C30   C     C_R   0.779199 0.517788 0.099905 -0.122396
C31   C     C_R   0.270380 0.433650 0.804237 -0.156499
C32   C     C_R   0.736461 0.525975 0.192444 -0.147153
C33   C     C_R   0.474796 0.473825 0.811320 -0.155626
C34   C     C_R   0.538295 0.458366 0.177380 -0.143947
C35   C     C_R   0.448758 0.426687 0.892663 0.111832
C36   C     C_R   0.580848 0.444173 0.083741 0.126059
C37   C     C_R   0.328272 0.388448 0.933475 0.044868
C38   C     C_R   0.702394 0.478133 0.044146 0.052803
C39   C     C_R   0.538780 0.424721 0.937589 -0.014338
C40   C     C_R   0.502707 0.404015 0.028427 -0.016358
Cu1   Cu    Cu3+1 0.386820 0.492450 0.493500 1.012251
Cu2   Cu    Cu3+1 0.613180 0.507550 0.506500 1.014630
H1    H     H_    0.444427 0.440297 0.207464 0.165942
H2    H     H_    0.563039 0.513459 0.783712 0.171382
H3    H     H_    0.798392 0.556409 0.232889 0.176482
H4    H     H_    0.201602 0.431840 0.769660 0.188408
H5    H     H_    0.147014 0.370029 0.918359 0.209247
H6    H     H_    0.872867 0.543731 0.072622 0.160265
H7    H     H_    0.607832 0.191189 0.561320 0.202284
H8    H     H_    0.392161 0.809218 0.440477 0.193488
H9    H     H_    0.320937 0.154536 0.434986 0.203300
H10   H     H_    0.675311 0.844330 0.570574 0.200676
N1    N     N_R   0.216750 0.481110 0.483710 -0.239598
N2    N     N_R   0.783250 0.518890 0.516290 -0.245804
O1    O     O_R   0.419950 0.645670 0.495380 -0.564384
O2    O     O_R   0.580050 0.354330 0.504620 -0.563291
O3    O     O_R   0.611110 0.658410 0.506370 -0.571188
O4    O     O_R   0.388890 0.341590 0.493630 -0.569318
O5    O     O_R   0.350820 0.490050 0.621260 -0.564393
O6    O     O_R   0.649180 0.509950 0.378740 -0.564322
O7    O     O_R   0.541970 0.502800 0.632250 -0.563827
O8    O     O_R   0.458030 0.497200 0.367750 -0.566628
C41   C     C_2   0.175705 0.296772 0.058666 0.931383
O9    O     O_2   0.130265 0.325125 0.135770 -0.537350
O10   O     O_R   0.112026 0.220347 0.011494 -0.721290
H11   H     H_    0.028760 0.195519 0.047941 0.362395
C42   C     C_2   0.873914 0.489394 0.908728 0.885665
O11   O     O_2   0.936079 0.426371 0.914942 -0.603035
O12   O     O_R   0.924340 0.580760 0.864597 -0.685859
H12   H     H_    0.013392 0.585733 0.840262 0.350422
I1    I     I_    0.274398 0.305604 0.338024 -0.251171
I2    I     I_    0.721049 0.688526 0.669798 -0.234000
I3    I     I_    0.023027 0.786692 0.566136 -0.183876
I4    I     I_    0.971781 0.213307 0.440047 -0.186788
C43   C     C_2   0.384534 0.251387 0.115359 0.901189
O13   O     O_2   0.472395 0.238059 0.137601 -0.561382
O14   O     O_R   0.281448 0.177529 0.136888 -0.703524
H13   H     H_    0.290331 0.119764 0.172187 0.366350
C44   C     C_2   0.706911 0.405080 0.800032 0.862799
O15   O     O_2   0.654272 0.326123 0.768844 -0.558956
O16   O     O_R   0.807128 0.460978 0.745412 -0.723436
H14   H     H_    0.827754 0.427467 0.682378 0.336525
I5    I     I_    0.733109 0.070204 0.633837 -0.188550
I6    I     I_    0.262708 0.929591 0.371909 -0.260932
I7    I     I_    0.190117 0.644183 0.644596 -0.242634
I8    I     I_    0.811502 0.356407 0.354953 -0.204962

loop_
_geom_bond_atom_site_label_1
_geom_bond_atom_site_label_2
_ccdc_geom_bond_type
C41   O10   S    
C8    C13   A    
C5    C37   A    
C1    C8    S    
C32   H3    S    
C2    C7    S    
O16   H14   S    
O14   H13   S    
C27   C33   A    
C23   O5    A    
C5    C41   S    
C29   H5    S    
C17   C26   A    
C30   H6    S    
C35   C37   A    
C9    C16   A    
Cu1   O4    S    
C10   C15   A    
C21   N2    A    
C14   H7    S    
C15   C16   A    
C30   C38   A    
Cu1   Cu2   S    
C22   I7    S    
Cu1   O1    S    
C11   H10   S    
Cu2   O2    S    
C7    C14   A    
C31   H4    S    
C6    C38   A    
C20   I1    S    
C23   C27   S    
C3    C43   S    
C34   C36   A    
C28   C34   A    
C18   I4    S    
C17   I3    S    
C19   I2    S    
C18   C25   A    
Cu1   O8    S    
Cu2   O3    S    
C22   N1    A    
C7    C12   A    
C27   C31   A    
C42   O11   D    
C36   C40   A    
C44   O15   D    
Cu1   O5    S    
C4    C44   S    
C4    C6    A    
Cu2   O6    S    
C39   C40   A    
C44   O16   S    
C17   C19   A    
C25   C26   A    
C41   O9    D    
C42   O12   S    
C35   C39   A    
C43   O13   D    
C1    O3    A    
C9    C11   A    
C4    C39   A    
C28   C32   A    
C24   O6    A    
C43   O14   S    
Cu2   O7    S    
Cu1   N1    S    
C10   C12   A    
C9    I5    S    
C19   N2    A    
C6    C42   S    
C3    C40   A    
C13   C15   A    
C14   C16   A    
C12   H9    S    
C21   C25   A    
C21   I8    S    
C24   O8    A    
C33   H2    S    
C34   H1    S    
C24   C28   S    
C20   N1    A    
C3    C5    A    
C2    O4    A    
C36   C38   A    
C1    O1    A    
C29   C31   A    
C2    O2    A    
Cu2   N2    S    
C30   C32   A    
C8    C11   A    
C10   I6    S    
C33   C35   A    
C18   C20   A    
O12   H12   S    
C13   H8    S    
C23   O7    A    
O10   H11   S    
C22   C26   A    
C29   C37   A    
