data_mof_unit_26352.cif
_audit_creation_date              2012-12-10T17:57:28-0500
_audit_creation_method            fapswitch 2.2
_symmetry_space_group_name_H-M    P1
_symmetry_Int_Tables_number       1
_space_group_crystal_system       triclinic
_cell_length_a                    9.519019
_cell_length_b                    10.818466
_cell_length_c                    13.428516
_cell_angle_alpha                 90.112161
_cell_angle_beta                  72.477209
_cell_angle_gamma                 89.763226
_cell_volume                      1318.69614869

loop_
_atom_site_label
_atom_site_type_symbol
_atom_type_description
_atom_site_fract_x
_atom_site_fract_y
_atom_site_fract_z
_atom_type_partial_charge
C1    C     C_R   0.498038 0.737871 0.503449 0.811045
C2    C     C_R   0.433013 0.481872 0.979452 0.014835
C3    C     C_R   0.467952 0.448524 0.872379 -0.053198
C4    C     C_R   0.541484 0.464932 0.031613 0.068716
C5    C     C_R   0.676770 0.405295 0.979342 0.054624
C6    C     C_R   0.699990 0.358140 0.879117 -0.297045
C7    C     C_R   0.595638 0.375959 0.827141 0.593245
C8    C     C_R   0.519889 0.505812 0.134321 -0.170299
C9    C     C_R   0.758323 0.425986 0.133106 -0.202189
C10   C     C_R   0.372385 0.487366 0.814937 -0.070381
C11   C     C_R   0.625018 0.935199 0.458395 -0.213162
C12   C     C_R   0.421224 0.493039 0.700103 0.850733
C13   C     C_R   0.626762 0.062898 0.457614 -0.243114
C14   C     C_R   0.497914 0.128835 0.506093 -0.159296
C15   C     C_R   0.367849 0.067206 0.559297 0.631515
C16   C     C_R   0.365029 0.938197 0.562003 0.063252
C17   C     C_R   0.494761 0.872083 0.508348 -0.107018
C18   C     C_R   0.895482 0.569864 0.570386 -0.009732
C19   C     C_R   0.044137 0.569345 0.570678 -0.147116
C20   C     C_R   0.103990 0.429209 0.430119 0.728067
C21   C     C_R   0.955251 0.429501 0.430142 -0.096476
C22   C     C_R   0.499538 0.262310 0.501563 0.893627
C23   C     C_R   0.578780 0.498240 0.299858 0.790249
C24   C     C_R   0.785218 0.388868 0.029628 -0.152148
C25   C     C_R   0.623458 0.481258 0.186520 -0.049863
C26   C     C_R   0.232440 0.535011 0.868060 -0.191855
C27   C     C_R   0.190494 0.552078 0.975297 -0.148635
C28   C     C_R   0.290100 0.529055 0.030412 -0.127253
Cu1   Cu    Cu3+1 0.359340 0.499980 0.500000 1.027565
Cu2   Cu    Cu3+1 0.640660 0.500020 0.500000 0.987295
H1    H     H_    0.839825 0.406422 0.172532 0.151931
H2    H     H_    0.727843 0.110182 0.416936 0.180193
H3    H     H_    0.815384 0.625990 0.626762 0.140133
H4    H     H_    0.075659 0.624129 0.627810 0.144329
H5    H     H_    0.922775 0.372877 0.374386 0.137791
H6    H     H_    0.798470 0.304947 0.841311 0.189750
H7    H     H_    0.888821 0.343561 0.989997 0.151718
H8    H     H_    0.421901 0.555501 0.176814 0.143753
H9    H     H_    0.156264 0.562578 0.826254 0.150752
H10   H     H_    0.250170 0.546477 0.113184 0.132734
H11   H     H_    0.081735 0.587886 0.015547 0.145211
H12   H     H_    0.725136 0.885556 0.417959 0.173706
N1    N     N_R   0.147940 0.499970 0.499970 -0.203986
N2    N     N_R   0.852060 0.500060 0.499990 -0.182263
O1    O     O_R   0.381250 0.680340 0.500010 -0.589561
O2    O     O_R   0.618820 0.680370 0.500010 -0.593153
O3    O     O_R   0.323240 0.499950 0.650980 -0.595750
O4    O     O_R   0.560810 0.499980 0.650980 -0.539758
O5    O     O_R   0.381180 0.319630 0.499990 -0.489314
O6    O     O_R   0.618750 0.319660 0.499990 -0.561175
O7    O     O_R   0.439190 0.500020 0.349020 -0.537935
O8    O     O_R   0.676760 0.500050 0.349020 -0.604631
F1    F     F_    0.244855 0.133034 0.609790 -0.655858
C29   C     C_3   0.225441 0.873819 0.623801 -0.767092
H13   H     H_    0.250889 0.802566 0.675370 0.204110
H14   H     H_    0.144114 0.938358 0.674866 0.272174
H15   H     H_    0.172315 0.830528 0.569471 0.233858
F2    F     F_    0.202891 0.356678 0.360573 -0.660944
F3    F     F_    0.614807 0.312226 0.736803 -0.646711

loop_
_geom_bond_atom_site_label_1
_geom_bond_atom_site_label_2
_ccdc_geom_bond_type
C2    C4    A    
C6    H6    S    
C9    C24   A    
C6    C7    A    
C21   H5    S    
C18   N2    A    
C21   N2    A    
C4    C8    A    
C27   H11   S    
C13   H2    S    
C1    C17   S    
C22   O6    A    
C12   O4    A    
Cu2   N2    S    
C10   C26   A    
C16   C29   S    
C12   O3    A    
C24   H7    S    
C23   O8    A    
C9    C25   A    
C3    C10   A    
Cu1   O5    S    
C13   C14   A    
Cu1   N1    S    
C8    C25   A    
C11   C13   A    
C1    O1    A    
C26   C27   A    
Cu1   Cu2   S    
C5    C24   A    
C8    H8    S    
Cu1   O3    S    
C22   O5    A    
C10   C12   S    
Cu2   O4    S    
C19   N1    A    
C2    C3    A    
C9    H1    S    
C3    C7    A    
C23   C25   S    
Cu2   O6    S    
C5    C6    A    
C1    O2    A    
C18   H3    S    
C29   H14   S    
C26   H9    S    
C28   H10   S    
C20   F2    S    
C15   C16   A    
C15   F1    S    
C4    C5    A    
C20   N1    A    
C20   C21   A    
C11   H12   S    
C14   C22   S    
C18   C19   A    
Cu1   O7    S    
C7    F3    S    
C27   C28   A    
Cu2   O8    S    
C29   H13   S    
C11   C17   A    
C2    C28   A    
C14   C15   A    
C23   O7    A    
C19   H4    S    
Cu1   O1    S    
C16   C17   A    
C29   H15   S    
Cu2   O2    S    
