data_mof_unit_65674.cif
_audit_creation_date              2012-12-10T17:24:49-0500
_audit_creation_method            fapswitch 2.2
_symmetry_space_group_name_H-M    P1
_symmetry_Int_Tables_number       1
_space_group_crystal_system       triclinic
_cell_length_a                    10.120089
_cell_length_b                    10.51947
_cell_length_c                    19.162383
_cell_angle_alpha                 90.361602
_cell_angle_beta                  81.396437
_cell_angle_gamma                 94.010837
_cell_volume                      2012.07474832

loop_
_atom_site_label
_atom_site_type_symbol
_atom_type_description
_atom_site_fract_x
_atom_site_fract_y
_atom_site_fract_z
_atom_type_partial_charge
C1    C     C_R   0.553843 0.734298 0.491129 0.953058
C2    C     C_R   0.500711 0.502690 0.365013 0.913023
C3    C     C_R   0.419980 0.603750 0.750430 0.172050
C4    C     C_R   0.621671 0.512721 0.239522 0.200141
C5    C     C_R   0.424002 0.613082 0.822239 -0.190683
C6    C     C_R   0.616615 0.532991 0.168577 -0.190924
C7    C     C_R   0.513683 0.545260 0.853213 -0.009824
C8    C     C_R   0.497303 0.560989 0.145304 -0.022950
C9    C     C_R   0.601707 0.466910 0.812498 0.197575
C10   C     C_R   0.380600 0.571851 0.194343 0.204672
C11   C     C_R   0.596449 0.455222 0.740699 -0.243722
C12   C     C_R   0.445904 0.265563 0.500172 0.952944
C13   C     C_R   0.384094 0.548615 0.265222 -0.215738
C14   C     C_R   0.504819 0.521424 0.709445 -0.132450
C15   C     C_R   0.503127 0.518415 0.288877 -0.141797
C16   C     C_R   0.497214 0.568968 0.069495 0.325599
C17   C     C_R   0.508805 0.554121 0.928574 0.317543
C18   C     C_2   0.578526 0.869114 0.475335 -0.388173
C19   C     C_2   0.420142 0.130250 0.489066 -0.404220
C20   C     C_2   0.492261 0.930267 0.442631 0.171700
C21   C     C_2   0.503399 0.067584 0.441563 0.165030
C22   C     C_2   0.926800 0.511085 0.505873 -0.105068
C23   C     C_2   0.073417 0.489738 0.493656 -0.099258
C24   C     C_R   0.501309 0.505499 0.634363 0.900621
H1    H     H_    0.358007 0.674915 0.854087 0.184998
H2    H     H_    0.881401 0.383661 0.434934 0.200170
H3    H     H_    0.706868 0.524478 0.131020 0.194625
H4    H     H_    0.662408 0.392573 0.709523 0.185500
H5    H     H_    0.293019 0.557185 0.302098 0.203112
H6    H     H_    0.337509 0.079332 0.522701 0.164807
H7    H     H_    0.662815 0.921041 0.494239 0.156962
H8    H     H_    0.110682 0.420761 0.454523 0.170117
H9    H     H_    0.889670 0.580572 0.544729 0.168756
H10   H     H_    0.118495 0.615926 0.565286 0.193854
I1    I     I_    0.290278 0.726098 0.709712 -0.313177
I2    I     I_    0.815828 0.477039 0.262300 -0.225658
I3    I     I_    0.737618 0.357550 0.856525 -0.261024
I4    I     I_    0.198031 0.632903 0.168181 -0.215147
I5    I     I_    0.655106 0.151929 0.363026 -0.253955
I6    I     I_    0.336169 0.843472 0.390993 -0.274594
N1    N     N_R   0.616467 0.602458 0.956625 -0.120696
N2    N     N_R   0.389675 0.521256 0.040981 -0.117434
N3    N     N_R   0.610818 0.609305 0.026168 -0.144219
N4    N     N_R   0.394811 0.515202 0.971505 -0.131495
N5    N     N_2   0.842710 0.448880 0.471430 -0.176099
N6    N     N_2   0.157290 0.551120 0.528570 -0.174740
O1    O     O_R   0.431050 0.692470 0.505750 -0.572158
O2    O     O_R   0.568950 0.307530 0.494250 -0.580160
O3    O     O_R   0.651120 0.659650 0.487410 -0.602270
O4    O     O_R   0.348880 0.340350 0.512590 -0.603108
O5    O     O_R   0.389930 0.516430 0.611030 -0.579335
O6    O     O_R   0.610070 0.483570 0.388970 -0.573209
O7    O     O_R   0.610000 0.483610 0.592700 -0.621065
O8    O     O_R   0.390000 0.516390 0.407300 -0.616122
Zn1   Zn    Zn3+2 0.353060 0.521920 0.512240 1.001975
Zn2   Zn    Zn3+2 0.646940 0.478080 0.487760 1.001639

loop_
_geom_bond_atom_site_label_1
_geom_bond_atom_site_label_2
_ccdc_geom_bond_type
N6    Zn1   S    
C12   O4    A    
C4    I2    S    
H10   N6    S    
O3    Zn2   S    
N1    N3    A    
C18   C20   D    
C6    H3    S    
C21   I5    S    
C3    I1    S    
C10   I4    S    
C23   H8    S    
C4    C15   A    
C9    I3    S    
C17   N4    A    
C5    C7    A    
C8    C16   S    
C23   N6    D    
C2    C15   S    
C9    C11   A    
C16   N3    A    
C1    C18   S    
C3    C14   A    
C2    O6    A    
C11   H4    S    
C24   O5    A    
C5    H1    S    
C12   C19   S    
C8    C10   A    
C19   C21   D    
C12   O2    A    
O5    Zn1   S    
C13   C15   A    
C20   I6    S    
C11   C14   A    
C17   N1    A    
C4    C6    A    
C14   C24   S    
C16   N2    A    
C22   N5    D    
C20   C21   S    
O6    Zn2   S    
O2    Zn2   S    
C2    O8    A    
O7    Zn2   S    
C13   H5    S    
C7    C9    A    
O1    Zn1   S    
C22   C23   S    
C1    O1    A    
C6    C8    A    
C18   H7    S    
H2    N5    S    
C3    C5    A    
C24   O7    A    
O8    Zn1   S    
C19   H6    S    
C1    O3    A    
N2    N4    A    
O4    Zn1   S    
N5    Zn2   S    
C7    C17   S    
C10   C13   A    
C22   H9    S    
