data_mof_unit_30221.cif
_audit_creation_date              2012-12-11T17:00:17-0500
_audit_creation_method            fapswitch 2.2
_symmetry_space_group_name_H-M    P1
_symmetry_Int_Tables_number       1
_space_group_crystal_system       triclinic
_cell_length_a                    6.962322
_cell_length_b                    13.593399
_cell_length_c                    20.252051
_cell_angle_alpha                 103.048892
_cell_angle_beta                  89.237914
_cell_angle_gamma                 91.138061
_cell_volume                      1866.74896876

loop_
_atom_site_label
_atom_site_type_symbol
_atom_type_description
_atom_site_fract_x
_atom_site_fract_y
_atom_site_fract_z
_atom_type_partial_charge
O1    O     O_R   0.506770 0.599700 0.449550 -0.538583
O2    O     O_R   0.179980 0.595740 0.587960 -0.545388
O3    O     O_R   0.004580 0.400300 0.550450 -0.539693
C1    C     C_R   0.347738 0.616246 0.615526 0.700077
O4    O     O_R   0.177380 0.611700 0.452380 -0.540211
O5    O     O_R   0.001970 0.416370 0.413900 -0.542377
C2    C     C_R   0.348216 0.638319 0.435771 0.696937
O6    O     O_R   0.509390 0.583630 0.586100 -0.538180
O7    O     O_3   0.337530 0.435890 0.487530 -0.371431
V1    V     V_3+5 0.064660 0.511890 0.502310 1.411450
O8    O     O_R   0.671950 0.404260 0.412040 -0.541245
C3    C     C_R   0.840805 0.382961 0.384707 0.692625
O9    O     O_R   0.674540 0.388300 0.547620 -0.541398
C4    C     C_R   0.840954 0.361750 0.564406 0.693613
V2    V     V_3+5 0.564030 0.488110 0.497690 1.413851
O10   O     O_3   0.841030 0.564110 0.512470 -0.370041
C5    C     C_R   0.722042 0.120547 0.616205 -0.155688
H1    H     H_    0.723027 0.168447 0.522488 0.103167
H2    H     H_    0.643459 0.006670 0.703451 0.147053
H3    H     H_    0.659970 0.047255 0.593169 0.111475
C6    C     C_R   0.837811 0.284257 0.604073 -0.036191
C7    C     C_R   0.950906 0.312149 0.927716 -0.156908
C8    C     C_R   0.983702 0.385571 0.890853 -0.122438
C9    C     C_R   0.946105 0.364924 0.821664 -0.157300
C10   C     C_R   0.869729 0.269887 0.787648 0.079484
C11   C     C_R   0.825755 0.197001 0.826760 0.049662
C12   C     C_R   0.837465 0.244255 0.716137 0.071507
C13   C     C_R   0.757241 0.147682 0.686037 0.122652
C14   C     C_R   0.708239 0.079550 0.725912 -0.161984
C15   C     C_R   0.740660 0.104040 0.795109 -0.171400
C16   C     C_R   0.879546 0.311279 0.673311 -0.216664
C17   C     C_R   0.759700 0.188889 0.575736 -0.164749
C18   C     C_R   0.872665 0.217773 0.896541 -0.079541
H4    H     H_    0.935930 0.386588 0.692433 0.092331
H5    H     H_    0.989635 0.328424 0.980789 0.100601
H6    H     H_    0.979308 0.424965 0.796408 0.101122
H7    H     H_    0.043609 0.458420 0.915771 0.112260
H8    H     H_    0.696200 0.049508 0.823762 0.152479
C19   C     C_R   0.708084 0.181605 0.227814 0.102502
C20   C     C_R   0.865615 0.183555 0.184340 -0.107830
C21   C     C_R   0.022388 0.247205 0.210055 -0.180949
H9    H     H_    0.146037 0.252022 0.178121 0.133926
C22   C     C_R   0.015800 0.310497 0.275524 -0.177770
H10   H     H_    0.134593 0.362180 0.292084 0.127212
C23   C     C_R   0.851889 0.312339 0.317250 -0.107514
C24   C     C_R   0.701456 0.244542 0.292657 0.099092
C25   C     C_3   0.494872 0.266602 0.286307 -0.408062
C26   C     C_3   0.502069 0.198882 0.215754 -0.411876
H11   H     H_    0.471810 0.347317 0.286334 0.166527
H12   H     H_    0.402578 0.235513 0.322215 0.175856
H13   H     H_    0.484114 0.240286 0.174801 0.169901
H14   H     H_    0.411398 0.129607 0.210903 0.171576
C27   C     C_R   0.507869 0.750189 0.705071 0.027877
C28   C     C_R   0.351461 0.685393 0.683539 -0.112584
C29   C     C_R   0.193921 0.689562 0.728491 -0.150054
H15   H     H_    0.071686 0.639331 0.714384 0.115946
C30   C     C_R   0.198073 0.753323 0.793836 -0.120825
H16   H     H_    0.079604 0.750350 0.828374 0.121190
C31   C     C_R   0.358965 0.815505 0.815996 -0.156324
C32   C     C_R   0.512086 0.813620 0.769906 0.096482
C33   C     C_3   0.717694 0.789901 0.778346 0.173195
C34   C     C_3   0.712882 0.722786 0.707579 -0.364087
H17   H     H_    0.740863 0.748360 0.819097 0.065010
H18   H     H_    0.729973 0.641389 0.706889 0.118672
H19   H     H_    0.802446 0.751290 0.669765 0.195403
C35   C     C_R   0.473685 0.881135 0.385994 -0.159258
H20   H     H_    0.469430 0.831526 0.479272 0.105201
H21   H     H_    0.538537 0.000258 0.300777 0.126834
H22   H     H_    0.529733 0.955365 0.410055 0.110132
C36   C     C_R   0.365777 0.715190 0.395892 -0.033752
C37   C     C_R   0.277551 0.688442 0.071388 -0.165908
C38   C     C_R   0.242652 0.614702 0.107836 -0.118488
C39   C     C_R   0.272867 0.635669 0.177529 -0.158539
C40   C     C_R   0.341258 0.731899 0.212752 0.077695
C41   C     C_R   0.382483 0.806179 0.174571 0.069414
C42   C     C_R   0.369211 0.757105 0.284471 0.072509
C43   C     C_R   0.441239 0.854968 0.315896 0.143046
C44   C     C_R   0.482831 0.925723 0.277186 -0.207894
C45   C     C_R   0.454142 0.901798 0.207726 -0.203078
C46   C     C_R   0.329787 0.688492 0.326290 -0.217826
C47   C     C_R   0.438349 0.811197 0.425569 -0.168810
C48   C     C_R   0.347743 0.783854 0.103915 -0.077313
H23   H     H_    0.276423 0.612795 0.306363 0.091763
H24   H     H_    0.248368 0.671309 0.017524 0.097396
H25   H     H_    0.240747 0.574811 0.202144 0.104256
H26   H     H_    0.189105 0.540888 0.081999 0.113440
H27   H     H_    0.490017 0.958975 0.180007 0.124825
O11   O     O_R   0.203450 0.916320 0.913910 -0.538420
O12   O     O_R   0.535520 0.888300 0.047620 -0.540980
O13   O     O_R   0.710860 0.083650 0.086100 -0.538874
C49   C     C_R   0.364777 0.861672 0.064292 0.687576
O14   O     O_R   0.532860 0.904250 0.912040 -0.552815
O15   O     O_R   0.708190 0.099710 0.949550 -0.543410
C50   C     C_R   0.364934 0.882174 0.884952 0.695419
O16   O     O_R   0.206120 0.900260 0.050460 -0.536368
O17   O     O_3   0.375280 0.064080 0.012470 -0.369771
V3    V     V_3+5 0.648180 0.988110 0.997690 1.395328
O18   O     O_R   0.038220 0.111740 0.952370 -0.537087
C51   C     C_R   0.871565 0.138147 0.935255 0.683724
O19   O     O_R   0.040880 0.095790 0.087940 -0.543833
C52   C     C_R   0.872159 0.117678 0.115090 0.696378
V4    V     V_3+5 0.148800 0.011950 0.002300 1.412040
O20   O     O_3   0.871820 0.935920 0.987530 -0.376815
O21   O     O_3   0.838114 0.874480 0.781406 -0.637350
H28   H     H_    0.864792 0.901878 0.830151 0.296185

loop_
_geom_bond_atom_site_label_1
_geom_bond_atom_site_label_2
_ccdc_geom_bond_type
C29   H15   S    
O17   V4    S    
C21   H9    S    
C1    O6    A    
C2    C36   S    
C45   H27   S    
C25   H11   S    
C43   C44   A    
C7    H5    S    
C6    C16   A    
C9    H6    S    
C40   C42   A    
C4    C6    S    
C13   C14   A    
H20   C47   S    
O5    C3    A    
C30   C31   A    
C35   H22   S    
V2    O10   S    
C5    H3    S    
C15   H8    S    
C39   C40   A    
C33   H17   S    
C36   C47   A    
C34   H18   S    
C20   C52   S    
C28   C29   A    
O8    V2    S    
C26   H13   S    
C8    C9    A    
O1    V2    S    
C31   C50   S    
O12   C49   A    
O7    V1    S    
O15   C51   A    
O13   V3    S    
O16   V4    S    
C37   C48   A    
C31   C32   A    
O9    C4    A    
C21   C22   A    
V4    O20   S    
C46   H23   S    
O19   V4    S    
O21   H28   S    
C27   C32   A    
O14   V3    S    
C25   H12   S    
H21   C44   S    
C6    C17   A    
O11   C50   A    
C40   C41   A    
C12   C16   A    
C33   O21   S    
C9    C10   A    
C19   C20   A    
O4    C2    A    
C44   C45   A    
C3    C23   S    
C10   C11   A    
O18   V4    S    
C36   C46   A    
C48   C49   S    
O12   V3    S    
C32   C33   S    
C18   C51   S    
O2    C1    A    
C22   H10   S    
O13   C52   A    
C14   C15   A    
C8    H7    S    
C27   C34   S    
C11   C18   A    
O11   V4    S    
C25   C26   S    
O17   V3    S    
O14   C50   A    
C16   H4    S    
C42   C43   A    
C22   C23   A    
C39   H25   S    
V3    O20   S    
O3    C4    A    
C19   C24   A    
C20   C21   A    
C11   C15   A    
O6    V2    S    
O9    V2    S    
H1    C17   S    
O2    V1    S    
O15   V3    S    
C37   H24   S    
C7    C18   A    
C24   C25   S    
C34   H19   S    
C1    C28   S    
O1    C2    A    
C5    C13   A    
C42   C46   A    
C38   C39   A    
O5    V1    S    
C38   H26   S    
O8    C3    A    
C41   C48   A    
C27   C28   A    
C10   C12   A    
C29   C30   A    
O7    V2    S    
O4    V1    S    
O3    V1    S    
V1    O10   S    
C35   C47   A    
C30   H16   S    
O19   C52   A    
C35   C43   A    
C33   C34   S    
C49   O16   A    
C23   C24   A    
C26   H14   S    
C37   C38   A    
O18   C51   A    
C12   C13   A    
C5    C17   A    
C7    C8    A    
C41   C45   A    
C19   C26   S    
H2    C14   S    
