data_mof_unit_23906.cif
_audit_creation_date              2013-03-05T16:48:13-0500
_audit_creation_method            fapswitch 2.2
_symmetry_space_group_name_H-M    P1
_symmetry_Int_Tables_number       1
_space_group_crystal_system       triclinic
_cell_length_a                    23.40292
_cell_length_b                    8.908828
_cell_length_c                    8.085721
_cell_angle_alpha                 89.837327
_cell_angle_beta                  89.998644
_cell_angle_gamma                 90.064363
_cell_volume                      1685.80504616

loop_
_atom_site_label
_atom_site_type_symbol
_atom_site_description
_atom_site_fract_x
_atom_site_fract_y
_atom_site_fract_z
_atom_type_partial_charge
O1    O     O_R   0.500000 0.285350 0.636850 -0.622942
O2    O     O_R   0.500000 0.714650 0.363150 -0.613414
O3    O     O_R   0.500000 0.714650 0.636850 -0.621971
O4    O     O_R   0.500000 0.285350 0.363150 -0.615255
C1    C     C_R   0.500120 0.217947 0.500153 0.925915
C2    C     C_R   0.500016 0.782049 0.499847 0.928539
O5    O     O_R   0.416160 0.500000 0.636910 -0.629964
O6    O     O_R   0.583840 0.500000 0.363090 -0.612192
O7    O     O_R   0.583840 0.500000 0.636910 -0.629925
O8    O     O_R   0.416160 0.500000 0.363090 -0.618900
C3    C     C_R   0.207871 0.504687 0.553924 -0.065537
C4    C     C_R   0.791237 0.541770 0.532165 -0.072838
C5    C     C_R   0.388788 0.493442 0.500095 0.934527
C6    C     C_R   0.610801 0.505244 0.500118 0.930969
Zn1   Zn    Zn3+2 0.500000 0.500000 0.682780 0.963579
Zn2   Zn    Zn3+2 0.500000 0.500000 0.317220 0.973900
C7    C     C_R   0.291142 0.548760 0.380144 -0.033344
C8    C     C_R   0.707680 0.420218 0.415155 -0.046436
C9    C     C_R   0.299690 0.409730 0.642964 -0.033377
C10   C     C_R   0.697496 0.641426 0.595297 -0.040035
C11   C     C_R   0.326027 0.481030 0.504369 -0.272457
C12   C     C_R   0.672639 0.522896 0.502176 -0.254836
C13   C     C_R   0.882315 0.668971 0.514083 0.730219
C14   C     C_R   0.116426 0.389372 0.612994 0.728281
C15   C     C_R   0.877492 0.418917 0.621543 0.720888
C16   C     C_R   0.121473 0.653074 0.559770 0.729562
N1    N     N_R   0.851738 0.543861 0.557238 -0.336832
N2    N     N_R   0.147375 0.516442 0.579185 -0.337610
C17   C     C_R   0.937084 0.411371 0.632106 -0.233772
C18   C     C_R   0.061756 0.663117 0.556145 -0.236559
C19   C     C_R   0.941755 0.671591 0.534580 -0.241361
C20   C     C_R   0.057039 0.397175 0.630744 -0.240822
C21   C     C_R   0.969351 0.539268 0.587909 -0.159752
C22   C     C_R   0.029418 0.533601 0.593074 -0.164096
C23   C     C_R   0.965197 0.279248 0.682367 0.644714
C24   C     C_R   0.033677 0.797087 0.512128 0.650241
C25   C     C_R   0.974373 0.800666 0.498996 0.639347
C26   C     C_R   0.024532 0.271550 0.679264 0.644763
C27   C     C_1   0.500165 0.065215 0.500228 -0.199149
C28   C     C_1   0.500130 0.934769 0.499791 -0.197233
C29   C     C_R   0.231834 0.551699 0.403836 0.616901
C30   C     C_R   0.767000 0.434495 0.427252 0.626554
C31   C     C_R   0.242192 0.438848 0.674941 0.624221
C32   C     C_R   0.756724 0.644257 0.615625 0.624973
N3    N     N_1   0.500000 0.500000 0.073640 -0.039542
N4    N     N_1   0.500000 0.500000 0.926360 -0.041100
O9    O     O_2   0.855189 0.788824 0.448642 -0.399859
O10   O     O_2   0.142968 0.255281 0.624032 -0.398166
O11   O     O_2   0.845217 0.302219 0.673319 -0.416334
O12   O     O_2   0.153657 0.777858 0.541662 -0.413256
F1    F     F_    0.935679 0.154924 0.729528 -0.512820
F2    F     F_    0.063361 0.923361 0.473004 -0.513258
F3    F     F_    0.949335 0.931065 0.450599 -0.517101
F4    F     F_    0.049809 0.141086 0.726258 -0.520906
F5    F     F_    0.196923 0.605673 0.283150 -0.608597
F6    F     F_    0.801647 0.340249 0.341440 -0.600303
F7    F     F_    0.218924 0.398889 0.822756 -0.617621
F8    F     F_    0.781130 0.746441 0.718407 -0.604237
C33   C     C_3   0.314882 0.621655 0.224054 -0.274924
C34   C     C_3   0.339638 0.777108 0.259562 -0.795955
H1    H     H_    0.374085 0.771893 0.353545 0.248025
H2    H     H_    0.357627 0.825393 0.143975 0.241773
H3    H     H_    0.305443 0.852808 0.305209 0.277830
H4    H     H_    0.346595 0.548351 0.162657 0.208430
H5    H     H_    0.281024 0.636126 0.129112 0.267885
C35   C     C_3   0.683547 0.291270 0.314342 -0.320857
C36   C     C_3   0.680753 0.332036 0.130971 -0.705492
H6    H     H_    0.653383 0.432259 0.111497 0.253651
H7    H     H_    0.724225 0.355915 0.082363 0.293734
H8    H     H_    0.662356 0.236735 0.060485 0.233555
H9    H     H_    0.710748 0.189990 0.330019 0.254516
H10   H     H_    0.640511 0.257024 0.358075 0.182341
C37   C     C_3   0.330207 0.297366 0.755178 -0.342094
C38   C     C_3   0.302284 0.141999 0.747944 -0.719189
H11   H     H_    0.327747 0.061308 0.822512 0.224580
H12   H     H_    0.258293 0.143790 0.798863 0.331222
H13   H     H_    0.300867 0.101478 0.618146 0.251256
H14   H     H_    0.375145 0.278032 0.719233 0.214302
H15   H     H_    0.329917 0.339032 0.884618 0.229220
C39   C     C_3   0.663114 0.769553 0.669964 -0.317386
C40   C     C_3   0.672191 0.915099 0.572845 -0.791945
H16   H     H_    0.717735 0.949990 0.575822 0.324891
H17   H     H_    0.658680 0.899913 0.442217 0.242956
H18   H     H_    0.646085 0.006104 0.628164 0.230614
H19   H     H_    0.616667 0.748304 0.671954 0.208455
H20   H     H_    0.676056 0.786379 0.800877 0.244222

loop_
_geom_bond_atom_site_label_1
_geom_bond_atom_site_label_2
_geom_bond_distance
_ccdc_geom_bond_type
C37   C38   1.531252 S    
O3    C2    1.258532 A    
C40   H16   1.110202 S    
N3    N4    1.190864 T    
C33   H4    1.107557 S    
C38   H12   1.108914 S    
C34   H3    1.110891 S    
O1    C1    1.259380 A    
C24   C25   1.392320 A    
C9    C11   1.426270 A    
C8    C30   1.397393 A    
C17   C21   1.411357 A    
C34   H2    1.110431 S    
C29   F5    1.359870 S    
C39   H20   1.111530 S    
C10   C32   1.396034 A    
C35   H10   1.109584 S    
C32   F8    1.359703 S    
C38   H13   1.111310 S    
C4    C30   1.399325 A    
C37   H14   1.104919 S    
C19   C21   1.411215 A    
C3    C31   1.394460 A    
O1    Zn1   1.949043 S    
C13   N1    1.368249 A    
O2    Zn2   1.949042 S    
C24   F2    1.358100 S    
C25   F3    1.358310 S    
O5    Zn1   1.996859 S    
C35   C36   1.526941 S    
C33   C34   1.528568 S    
O6    Zn2   1.996856 S    
O2    C2    1.259357 A    
C40   H17   1.111135 S    
C9    C31   1.394990 A    
C7    C29   1.401408 A    
C15   C17   1.398924 A    
C13   O9    1.349595 S    
C38   H11   1.110820 S    
C10   C39   1.523426 S    
C4    N1    1.430439 S    
C36   H6    1.110307 S    
C14   O10   1.349797 S    
C9    C37   1.527031 S    
C23   C26   1.390620 A    
C27   C28   1.162133 T    
C18   C22   1.410430 A    
O4    C1    1.258556 A    
C7    C11   1.427308 A    
C19   C25   1.408524 A    
C34   H1    1.108803 S    
C36   H7    1.110764 S    
C13   C19   1.401099 A    
O4    Zn2   1.946973 S    
O7    C6    1.274080 A    
C14   C20   1.399033 A    
C39   H19   1.103260 S    
C35   H9    1.111779 S    
C26   F4    1.358035 S    
C21   C22   1.407332 A    
C37   H15   1.111510 S    
C5    C11   1.473241 S    
C30   F6    1.359657 S    
C7    C33   1.522434 S    
C10   C12   1.422505 A    
C16   C18   1.400830 A    
C20   C26   1.407406 A    
C1    C27   1.360663 S    
C23   F1    1.358383 S    
C2    C28   1.360556 S    
C8    C35   1.518886 S    
C40   H18   1.110775 S    
O3    Zn1   1.946972 S    
O6    C6    1.275989 A    
C8    C12   1.417613 A    
C14   N2    1.370128 A    
C39   C40   1.528616 S    
O8    C5    1.280800 A    
Zn2   N3    1.969520 S    
C15   N1    1.367801 A    
C17   C23   1.408026 A    
C16   N2    1.369062 A    
C18   C24   1.407954 A    
C36   H8    1.110387 S    
C6    C12   1.455651 S    
C16   O12   1.349724 S    
O7    Zn1   1.996839 S    
C4    C32   1.395196 A    
O8    Zn2   1.996841 S    
C33   H5    1.110631 S    
C3    N2    1.434425 S    
C3    C29   1.399720 A    
C15   O11   1.349960 S    
C31   F7    1.359718 S    
O5    C5    1.279784 A    
Zn1   N4    1.969520 S    
C20   C22   1.409777 A    
