data_mof_unit_57293.cif
_audit_creation_date              2012-12-11T14:08:31-0500
_audit_creation_method            fapswitch 2.2
_symmetry_space_group_name_H-M    P1
_symmetry_Int_Tables_number       1
_space_group_crystal_system       triclinic
_cell_length_a                    10.935571
_cell_length_b                    10.937483
_cell_length_c                    18.730269
_cell_angle_alpha                 90.002088
_cell_angle_beta                  89.491014
_cell_angle_gamma                 60.279216
_cell_volume                      1945.47538571

loop_
_atom_site_label
_atom_site_type_symbol
_atom_type_description
_atom_site_fract_x
_atom_site_fract_y
_atom_site_fract_z
_atom_type_partial_charge
Br1   Br    Br    0.871097 0.064548 0.307229 -0.516099
C1    C     C_R   0.237369 0.644973 0.609196 0.548444
C2    C     C_2   0.774435 0.170670 0.706685 -0.159385
C3    C     C_2   0.184977 0.660503 0.682496 -0.126117
C4    C     C_R   0.655813 0.625220 0.599647 0.532101
C5    C     C_2   0.198801 0.661815 0.840313 -0.129087
C6    C     C_2   0.201848 0.557573 0.801411 -0.179312
C7    C     C_2   0.229659 0.546127 0.724216 -0.178914
C8    C     C_2   0.666887 0.683752 0.330748 -0.107990
C9    C     C_2   0.673841 0.683696 0.173926 -0.101749
C10   C     C_2   0.787077 0.635159 0.216783 -0.136889
C11   C     C_2   0.782523 0.607887 0.292022 -0.152663
C12   C     C_3   0.625626 0.593178 0.800290 -0.249125
C13   C     C_2   0.677388 0.132000 0.335309 0.148789
C14   C     C_2   0.649109 0.149803 0.178004 -0.061114
C15   C     C_2   0.612884 0.075249 0.221583 -0.118026
C16   C     C_R   0.627511 0.228534 0.602005 0.545356
C17   C     C_2   0.589317 0.107501 0.296756 -0.146735
C18   C     C_2   0.188331 0.661378 0.326603 -0.049655
C19   C     C_2   0.181281 0.644851 0.173423 -0.106436
C20   C     C_2   0.238103 0.711572 0.206559 -0.145353
C21   C     C_2   0.267699 0.689852 0.281713 -0.122827
C22   C     C_R   0.704714 0.100658 0.896976 0.544760
C23   C     C_3   0.707745 0.672060 0.810416 0.067437
C24   C     C_R   0.726793 0.688666 0.887228 0.546575
C25   C     C_R   0.120593 0.705697 0.907853 0.538076
C26   C     C_R   0.674848 0.106689 0.104527 0.549542
C27   C     C_R   0.698923 0.692560 0.098621 0.552242
C28   C     C_R   0.224909 0.648226 0.400461 0.559072
C29   C     C_R   0.098687 0.705649 0.110812 0.562796
C30   C     C_R   0.644769 0.627058 0.396027 0.550116
C31   C     C_R   0.621465 0.222554 0.397448 0.573407
C32   C     C_3   0.620005 0.821349 0.775211 -0.243587
C33   C     C_3   0.587988 0.808217 0.696424 -0.257431
C34   C     C_3   0.673860 0.651936 0.674338 0.056667
C35   C     C_3   0.855708 0.590714 0.770143 -0.088151
C36   C     C_3   0.949835 0.431929 0.788711 -0.401300
C37   C     C_3   0.953336 0.048661 0.803632 -0.358363
C38   C     C_3   0.831027 0.602492 0.689104 -0.218847
C39   C     C_3   0.620741 0.567212 0.720117 -0.210179
C40   C     C_2   0.674548 0.159822 0.670810 -0.130816
C41   C     C_2   0.691419 0.167030 0.827410 -0.103950
C42   C     C_2   0.801500 0.132275 0.782194 -0.054192
Cr1   Cr    Cr6+3 0.393010 0.398050 0.501480 1.018755
Cr2   Cr    Cr6+3 0.398820 0.707980 0.501630 1.027910
Cr3   Cr    Cr6+3 0.708140 0.393940 0.496850 1.045750
Cr4   Cr    Cr6+3 0.937950 0.938450 0.008940 1.029831
Cr5   Cr    Cr6+3 0.626180 0.937030 0.994750 1.014195
Cr6   Cr    Cr6+3 0.937790 0.625760 0.001410 1.009267
H1    H     H_    0.679952 0.878944 0.778274 0.123711
H2    H     H_    0.518115 0.885781 0.803982 0.138511
H3    H     H_    0.126129 0.765825 0.705066 0.102047
H4    H     H_    0.891619 0.600954 0.194935 0.162231
H5    H     H_    0.873320 0.516181 0.314004 0.163426
H6    H     H_    0.567868 0.719585 0.193905 0.079941
H7    H     H_    0.579612 0.779993 0.309864 0.101619
H8    H     H_    0.589448 0.996235 0.200982 0.150024
H9    H     H_    0.486381 0.131676 0.317164 0.135470
H10   H     H_    0.671539 0.230086 0.197530 0.132267
H11   H     H_    0.248817 0.794915 0.180841 0.161056
H12   H     H_    0.686829 0.453128 0.708739 0.135326
H13   H     H_    0.473279 0.847343 0.690418 0.141541
H14   H     H_    0.349572 0.709710 0.301421 0.147223
H15   H     H_    0.180384 0.554673 0.197318 0.096653
H16   H     H_    0.105184 0.641755 0.309114 0.094193
H17   H     H_    0.615801 0.874038 0.662069 0.113747
H18   H     H_    0.916843 0.644130 0.783143 0.142777
H19   H     H_    0.858815 0.679901 0.666507 0.102115
H20   H     H_    0.674748 0.491814 0.829738 0.127109
H21   H     H_    0.516562 0.657556 0.821836 0.112588
H22   H     H_    0.510738 0.597157 0.705837 0.128846
H23   H     H_    0.903087 0.501252 0.661777 0.152309
H24   H     H_    0.046794 0.385413 0.755005 0.106431
H25   H     H_    0.988540 0.412222 0.844038 0.170596
H26   H     H_    0.895833 0.370858 0.778149 0.137418
H27   H     H_    0.024994 0.038717 0.758803 0.103709
H28   H     H_    0.975020 0.100694 0.848774 0.156344
H29   H     H_    0.976721 0.941249 0.817852 0.162735
H30   H     H_    0.838300 0.208605 0.680526 0.149093
H31   H     H_    0.584727 0.230156 0.807744 0.094298
H32   H     H_    0.614843 0.116354 0.696247 0.097116
H33   H     H_    0.175949 0.483016 0.825526 0.149074
H34   H     H_    0.286735 0.440815 0.701475 0.157368
H35   H     H_    0.233477 0.730603 0.816910 0.101199
O1    O     O_R   0.507110 0.256280 0.580300 -0.522967
O2    O     O_R   0.837080 0.593860 0.915300 -0.529621
O3    O     O_R   0.064770 0.636080 0.932550 -0.502308
O4    O     O_R   0.280830 0.527190 0.577940 -0.499394
O5    O     O_R   0.068250 0.829200 0.092940 -0.493882
O6    O     O_R   0.799650 0.057040 0.080330 -0.474314
O7    O     O_R   0.586130 0.079760 0.077080 -0.520258
O8    O     O_R   0.627700 0.809630 0.066580 -0.498405
O9    O     O_R   0.816140 0.597180 0.075920 -0.509459
O10   O     O_R   0.045360 0.639170 0.081440 -0.512338
O11   O     O_3   0.833980 0.833750 0.001700 -0.252948
O12   O     O_R   0.524640 0.695370 0.425100 -0.509373
O13   O     O_R   0.261360 0.738990 0.584270 -0.514063
O14   O     O_R   0.532590 0.694780 0.574370 -0.507968
O15   O     O_R   0.744470 0.503750 0.577000 -0.535157
O16   O     O_R   0.698520 0.277230 0.571620 -0.499763
O17   O     O_R   0.498530 0.256920 0.419280 -0.538595
O18   O     O_R   0.272880 0.527780 0.428680 -0.502479
O19   O     O_R   0.252780 0.739630 0.423250 -0.493358
O20   O     O_R   0.735890 0.504390 0.415980 -0.498091
O21   O     O_R   0.690560 0.277820 0.422350 -0.457907
O22   O     O_3   0.499990 0.499990 0.499980 -0.257898
O23   O     O_R   0.089190 0.825870 0.932320 -0.532148
O24   O     O_R   0.819070 0.053960 0.931440 -0.500474
O25   O     O_R   0.607070 0.076440 0.916460 -0.523164
O26   O     O_R   0.647110 0.806550 0.917690 -0.510575

loop_
_geom_bond_atom_site_label_1
_geom_bond_atom_site_label_2
_ccdc_geom_bond_type
Cr5   O26   S    
Cr3   O15   S    
C41   H31   S    
Cr5   O11   S    
C7    H34   S    
C38   H19   S    
Cr6   O3    S    
C1    C3    S    
C3    C7    D    
C2    H30   S    
C33   H17   S    
C36   H25   S    
C35   H18   S    
C6    C7    S    
C37   H27   S    
C2    C42   S    
C23   C35   S    
C22   C41   S    
C3    H3    S    
C16   O1    A    
C35   C36   S    
C39   H22   S    
Cr2   O14   S    
C4    O14   A    
C12   H21   S    
C14   C15   D    
Cr3   O21   S    
Cr3   O22   S    
C33   H13   S    
C28   O19   A    
C26   O6    A    
C33   C34   S    
C13   C17   D    
C12   C39   S    
C36   H24   S    
Cr2   O19   S    
C21   H14   S    
C17   H9    S    
C4    O15   A    
C1    O13   A    
C25   O3    A    
Cr5   O7    S    
C38   H23   S    
C26   O7    A    
Cr6   O10   S    
C10   H4    S    
Cr5   O25   S    
C36   H26   S    
C20   C21   S    
Cr4   O5    S    
C29   O5    A    
C8    C11   D    
C22   O25   A    
C5    H35   S    
C18   C21   D    
C23   C24   S    
C20   H11   S    
Cr1   O18   S    
C19   C29   S    
C37   H29   S    
C32   H1    S    
Cr3   O20   S    
C39   H12   S    
C12   C23   S    
C27   O9    A    
C19   H15   S    
C34   C38   S    
C14   C26   S    
Cr1   O17   S    
C40   H32   S    
C32   C33   S    
C27   O8    A    
C8    H7    S    
Cr6   O11   S    
C1    O4    A    
C9    H6    S    
C24   O26   A    
Cr4   O23   S    
C31   O21   A    
Cr4   O6    S    
C41   C42   D    
Cr1   O1    S    
C18   C28   S    
Cr2   O22   S    
C9    C27   S    
Cr3   O16   S    
C2    C40   D    
C14   H10   S    
Cr6   O2    S    
C35   C38   S    
C13   C31   S    
C25   O23   A    
C10   C11   S    
C5    C6    D    
C37   H28   S    
Cr1   O22   S    
C32   H2    S    
C23   C32   S    
C30   O20   A    
C34   C39   S    
C37   C42   S    
C29   O10   A    
Cr2   O13   S    
C5    C25   S    
C12   H20   S    
C22   O24   A    
C4    C34   S    
C24   O2    A    
C28   O18   A    
C18   H16   S    
C15   H8    S    
C16   O16   A    
C16   C40   S    
C9    C10   D    
C8    C30   S    
C6    H33   S    
C19   C20   D    
C15   C17   S    
Cr4   O24   S    
Cr5   O8    S    
Cr4   O11   S    
C31   O17   A    
Br1   C13   S    
Cr6   O9    S    
Cr1   O4    S    
Cr2   O12   S    
C11   H5    S    
C30   O12   A    
