data_mof_unit_6870.cif
_audit_creation_date              2012-12-10T20:31:53-0500
_audit_creation_method            fapswitch 2.2
_symmetry_space_group_name_H-M    P1
_symmetry_Int_Tables_number       1
_space_group_crystal_system       triclinic
_cell_length_a                    9.919214
_cell_length_b                    10.582034
_cell_length_c                    15.459115
_cell_angle_alpha                 91.288006
_cell_angle_beta                  68.126925
_cell_angle_gamma                 90.539529
_cell_volume                      1505.47777108

loop_
_atom_site_label
_atom_site_type_symbol
_atom_type_description
_atom_site_fract_x
_atom_site_fract_y
_atom_site_fract_z
_atom_type_partial_charge
C1    C     C_R   0.500238 0.739307 0.500983 0.868456
C2    C     C_R   0.423033 0.473220 0.909782 0.086031
C3    C     C_R   0.300378 0.396591 0.959597 0.008337
C4    C     C_R   0.530386 0.503038 0.947053 0.040663
C5    C     C_R   0.499999 0.481999 0.041090 0.059075
C6    C     C_R   0.378900 0.407629 0.091148 -0.143538
C7    C     C_R   0.282873 0.361458 0.051417 0.248106
C8    C     C_R   0.670556 0.545975 0.891724 -0.240809
C9    C     C_R   0.777420 0.569521 0.928692 0.336819
C10   C     C_R   0.743271 0.558625 0.026261 -0.034564
C11   C     C_R   0.597724 0.525956 0.081951 -0.030549
C12   C     C_R   0.409015 0.494223 0.675520 0.893398
C13   C     C_R   0.842962 0.578090 0.072570 0.263782
C14   C     C_R   0.797811 0.551839 0.168708 -0.145649
C15   C     C_R   0.549334 0.542992 0.178274 0.225369
C16   C     C_R   0.578747 0.932217 0.419397 0.084743
C17   C     C_R   0.503736 0.871055 0.502009 -0.072237
C18   C     C_R   0.443111 0.937481 0.586639 -0.203994
C19   C     C_R   0.441428 0.068155 0.585719 -0.157054
C20   C     C_R   0.499411 0.128450 0.500149 -0.076826
C21   C     C_R   0.575283 0.061725 0.418152 0.071640
C22   C     C_3   0.551469 0.059887 0.327995 -0.239728
C23   C     C_R   0.500124 0.260480 0.498836 0.889749
C24   C     C_3   0.560837 0.916764 0.328036 -0.489940
C25   C     C_R   0.898564 0.585707 0.553683 0.173335
C26   C     C_R   0.955772 0.412315 0.449854 -0.081889
C27   C     C_R   0.099792 0.412618 0.449082 0.317260
C28   C     C_R   0.041400 0.586252 0.553364 0.177667
C29   C     C_3   0.052996 0.726286 0.541210 -0.273773
C30   C     C_3   0.898141 0.725608 0.544417 -0.503870
C31   C     C_R   0.591047 0.509318 0.324064 0.912123
C32   C     C_R   0.353896 0.471084 0.775452 -0.097727
C33   C     C_R   0.648385 0.533030 0.222570 -0.235713
C34   C     C_R   0.204955 0.357774 0.913661 -0.053170
C35   C     C_R   0.238352 0.387941 0.819594 0.235428
C36   C     C_R   0.436878 0.519016 0.823221 -0.229572
H1    H     H_    0.393575 0.888576 0.651835 0.166479
H2    H     H_    0.391925 0.121577 0.650380 0.175165
H3    H     H_    0.442911 0.094719 0.334764 0.215569
H4    H     H_    0.457291 0.868877 0.334580 0.232785
H5    H     H_    0.659381 0.875031 0.273483 0.219514
H6    H     H_    0.134981 0.754308 0.472759 0.197533
H7    H     H_    0.817057 0.771882 0.607472 0.208567
H8    H     H_    0.890654 0.753953 0.477516 0.227479
H9    H     H_    0.517124 0.590113 0.789415 0.158125
H10   H     H_    0.363156 0.378025 0.160822 0.221231
H11   H     H_    0.703939 0.552285 0.817018 0.174806
N1    N     N_R   0.856900 0.500860 0.500610 -0.143696
N2    N     N_R   0.142540 0.500820 0.500610 -0.128171
O1    O     O_R   0.385310 0.683210 0.499990 -0.621053
O2    O     O_R   0.614650 0.683240 0.500000 -0.620256
O3    O     O_R   0.319830 0.499970 0.632240 -0.553007
O4    O     O_R   0.549170 0.500000 0.632250 -0.622954
O5    O     O_R   0.385350 0.316760 0.500000 -0.557894
O6    O     O_R   0.614690 0.316790 0.500010 -0.628718
O7    O     O_R   0.450830 0.500000 0.367750 -0.538189
O8    O     O_R   0.680170 0.500030 0.367760 -0.630777
Zn1   Zn    Zn3+2 0.346870 0.499980 0.499990 1.044523
Zn2   Zn    Zn3+2 0.653130 0.500020 0.500010 0.961391
Br1   Br    Br    0.140639 0.245935 0.129183 -0.463753
Br2   Br    Br    0.037303 0.646142 0.014481 -0.424465
C37   C     C_1   0.671466 0.118945 0.252401 0.284971
N3    N     N_1   0.765452 0.165820 0.192718 -0.125561
C38   C     C_1   0.915127 0.321354 0.393378 0.372605
N4    N     N_1   0.883446 0.247664 0.347857 -0.148232
Br3   Br    Br    0.236347 0.293749 0.368217 -0.486169
C39   C     C_1   0.069384 0.794137 0.620707 0.318842
N5    N     N_1   0.082630 0.848515 0.682844 -0.130023
Br4   Br    Br    0.360373 0.622802 0.239990 -0.481774
C40   C     C_1   0.904921 0.554956 0.211819 0.348710
N6    N     N_1   0.991053 0.557946 0.245793 -0.126577
Br5   Br    Br    0.961643 0.613765 0.835397 -0.444342
C41   C     C_1   0.071122 0.289644 0.959302 0.358382
N7    N     N_1   0.962963 0.235627 0.994220 -0.119598
Br6   Br    Br    0.130929 0.307192 0.751245 -0.472844

loop_
_geom_bond_atom_site_label_1
_geom_bond_atom_site_label_2
_ccdc_geom_bond_type
C8    C9    A    
C16   C21   A    
O6    Zn2   S    
C29   H6    S    
C41   N7    T    
C19   C20   A    
C9    Br5   S    
C4    C8    A    
C14   C33   A    
O4    Zn2   S    
C25   C28   A    
C35   Br6   S    
C26   C27   A    
C37   N3    T    
N1    Zn2   S    
C32   C36   A    
C28   C29   S    
C18   H1    S    
C5    C11   A    
C3    C7    A    
O5    Zn1   S    
C5    C6    A    
O8    Zn2   S    
C34   C35   A    
C26   C38   S    
C29   C39   S    
C11   C15   A    
C16   C17   A    
C31   C33   S    
C40   N6    T    
C31   O7    A    
C1    O1    A    
C12   O4    A    
C26   N1    A    
C16   C24   S    
C21   C22   S    
C12   C32   S    
C24   H5    S    
C14   C40   S    
C30   H8    S    
C12   O3    A    
C15   Br4   S    
C39   N5    T    
O1    Zn1   S    
C32   C35   A    
C18   C19   A    
C3    C34   A    
N2    Zn1   S    
C2    C4    A    
C29   C30   S    
C19   H2    S    
C22   C37   S    
C28   N2    A    
C20   C23   S    
C17   C18   A    
C36   H9    S    
C1    O2    A    
C25   N1    A    
O3    Zn1   S    
C22   C24   S    
C30   H7    S    
O2    Zn2   S    
C7    Br1   S    
C23   O5    A    
C9    C10   A    
C2    C36   A    
C25   C30   S    
C6    H10   S    
C4    C5    A    
C10   C13   A    
C23   O6    A    
C6    C7    A    
C1    C17   S    
C38   N4    T    
C31   O8    A    
C2    C3    A    
C8    H11   S    
C27   Br3   S    
C22   H3    S    
C24   H4    S    
O7    Zn1   S    
C10   C11   A    
C34   C41   S    
C13   Br2   S    
C20   C21   A    
C13   C14   A    
C15   C33   A    
C27   N2    A    
