data_mof_unit_42396.cif
_audit_creation_date              2012-12-10T20:02:20-0500
_audit_creation_method            fapswitch 2.2
_symmetry_space_group_name_H-M    P1
_symmetry_Int_Tables_number       1
_space_group_crystal_system       triclinic
_cell_length_a                    10.763588
_cell_length_b                    14.938877
_cell_length_c                    14.242541
_cell_angle_alpha                 91.2354
_cell_angle_beta                  91.450612
_cell_angle_gamma                 90.821881
_cell_volume                      2288.6223031

loop_
_atom_site_label
_atom_site_type_symbol
_atom_type_description
_atom_site_fract_x
_atom_site_fract_y
_atom_site_fract_z
_atom_type_partial_charge
C1    C     C_R   0.500146 0.327975 0.499136 0.890137
C2    C     C_R   0.461704 0.814431 0.424317 -0.173002
C3    C     C_R   0.505435 0.232357 0.497630 -0.089202
C4    C     C_R   0.506566 0.768441 0.502260 -0.128449
C5    C     C_R   0.579449 0.188919 0.432109 -0.188135
C6    C     C_R   0.561528 0.814452 0.579568 -0.193966
C7    C     C_R   0.590335 0.096765 0.433914 0.425272
C8    C     C_R   0.572297 0.906879 0.578995 0.417818
C9    C     C_R   0.524785 0.048919 0.501027 0.023695
C10   C     C_R   0.525768 0.952648 0.500892 0.015187
C11   C     C_R   0.466743 0.426716 0.100723 -0.263657
C12   C     C_R   0.500654 0.672266 0.500845 0.911819
C13   C     C_R   0.584814 0.551408 0.897653 -0.281688
C14   C     C_R   0.462108 0.426545 0.198905 0.493578
C15   C     C_R   0.584207 0.551140 0.799168 0.495457
C16   C     C_R   0.260011 0.500038 0.498769 0.878921
C17   C     C_R   0.739832 0.497223 0.501193 0.883264
C18   C     C_R   0.532778 0.576668 0.208332 -0.119608
C19   C     C_R   0.411294 0.452141 0.791552 -0.077176
C20   C     C_R   0.528272 0.581944 0.109054 0.029703
C21   C     C_R   0.404091 0.454212 0.890432 0.068127
C22   C     C_R   0.496507 0.504821 0.052911 0.145352
C23   C     C_R   0.872288 0.493706 0.502696 -0.081896
C24   C     C_R   0.493935 0.503780 0.946077 0.173303
C25   C     C_R   0.192263 0.653621 0.218222 0.337758
C26   C     C_R   0.758206 0.322504 0.748927 0.361466
C27   C     C_R   0.155938 0.631233 0.308597 -0.258879
C28   C     C_R   0.808144 0.354558 0.666039 -0.240319
C29   C     C_R   0.110458 0.544974 0.325766 0.059743
C30   C     C_R   0.886896 0.430325 0.668565 0.062791
C31   C     C_R   0.104347 0.480605 0.253019 -0.206813
C32   C     C_R   0.918530 0.471742 0.755341 -0.211191
C33   C     C_R   0.140049 0.502329 0.162502 0.015328
C34   C     C_R   0.127427 0.497886 0.496893 -0.077751
C35   C     C_R   0.869336 0.439975 0.838645 0.006452
C36   C     C_R   0.182576 0.589503 0.144393 0.401425
C37   C     C_R   0.788367 0.365357 0.835597 0.386894
C38   C     C_R   0.930624 0.521544 0.421664 -0.226686
C39   C     C_R   0.069380 0.468593 0.577647 -0.237350
C40   C     C_R   0.941655 0.464786 0.581506 0.071016
C41   C     C_R   0.057641 0.522705 0.417114 0.043996
C42   C     C_R   0.449687 0.092665 0.565602 -0.101332
C43   C     C_R   0.470293 0.906579 0.424040 -0.110873
C44   C     C_R   0.440808 0.184603 0.564448 -0.112552
Cl1   Cl    Cl    0.218451 0.618771 0.028886 -0.557202
Cl2   Cl    Cl    0.725273 0.326263 0.940389 -0.521370
Cl3   Cl    Cl    0.688458 0.043788 0.353342 -0.524996
Cl4   Cl    Cl    0.646223 0.962945 0.675679 -0.470741
Cl5   Cl    Cl    0.395160 0.331134 0.247603 -0.580597
Cl6   Cl    Cl    0.690992 0.621040 0.744192 -0.591166
Cl7   Cl    Cl    0.245278 0.763351 0.198664 -0.550568
Cl8   Cl    Cl    0.658610 0.228178 0.742340 -0.483023
H1    H     H_    0.444639 0.365141 0.062224 0.218545
H2    H     H_    0.123700 0.446259 0.637724 0.161313
H3    H     H_    0.397582 0.055374 0.616288 0.182118
H4    H     H_    0.432588 0.942216 0.364516 0.201954
H5    H     H_    0.383221 0.218408 0.615062 0.167704
H6    H     H_    0.418905 0.779187 0.364364 0.202895
H7    H     H_    0.630763 0.226745 0.381386 0.198292
H8    H     H_    0.598060 0.778701 0.639292 0.232120
H9    H     H_    0.639437 0.689198 0.088433 0.201675
H10   H     H_    0.486439 0.712012 0.092761 0.271305
H11   H     H_    0.306074 0.341049 0.912944 0.208419
H12   H     H_    0.657151 0.588928 0.935680 0.192250
H13   H     H_    0.220015 0.434172 0.904238 0.215968
H14   H     H_    0.038184 0.412679 0.084636 0.223024
H15   H     H_    0.185669 0.382238 0.107645 0.240018
H16   H     H_    0.874217 0.550662 0.922160 0.227255
H17   H     H_    0.998126 0.484392 0.933806 0.222457
H18   H     H_    0.559104 0.635574 0.249971 0.174512
H19   H     H_    0.343232 0.413856 0.749631 0.143787
H20   H     H_    0.160272 0.681357 0.364748 0.182130
H21   H     H_    0.785110 0.320848 0.599610 0.165829
H22   H     H_    0.068810 0.413897 0.266160 0.186971
H23   H     H_    0.980377 0.529692 0.758260 0.192512
H24   H     H_    0.877270 0.542997 0.360688 0.182338
N1    N     N_R   0.500000 0.499980 0.252470 -0.133394
N2    N     N_R   0.500000 0.500020 0.747530 -0.132661
N3    N     N_3   0.550704 0.666527 0.066786 -0.408038
N4    N     N_3   0.302546 0.408807 0.932525 -0.438158
N5    N     N_3   0.130199 0.436114 0.088663 -0.415870
N6    N     N_3   0.901343 0.483951 0.926332 -0.400630
O1    O     O_R   0.500010 0.369070 0.579480 -0.620030
O2    O     O_R   0.499990 0.630930 0.420520 -0.639912
O3    O     O_R   0.500010 0.369060 0.420520 -0.560657
O4    O     O_R   0.499990 0.630940 0.579480 -0.573113
O5    O     O_R   0.316760 0.500010 0.579480 -0.637263
O6    O     O_R   0.683240 0.499990 0.420520 -0.631105
O7    O     O_R   0.316760 0.500000 0.420520 -0.591512
O8    O     O_R   0.683240 0.500000 0.579480 -0.570428
Zn1   Zn    Zn3+2 0.500000 0.500010 0.606140 1.014230
Zn2   Zn    Zn3+2 0.500000 0.499990 0.393860 1.004837

loop_
_geom_bond_atom_site_label_1
_geom_bond_atom_site_label_2
_ccdc_geom_bond_type
C18   H18   S    
N1    Zn2   S    
O5    Zn1   S    
C27   C29   A    
C17   O6    A    
C19   H19   S    
C32   H23   S    
C25   Cl7   S    
C38   H24   S    
C9    C42   A    
C17   C23   S    
C39   H2    S    
C35   C37   A    
O4    Zn1   S    
C11   C14   A    
C15   Cl6   S    
C15   N2    A    
C23   C40   A    
C33   C36   A    
C12   O2    A    
C14   N1    A    
H17   N6    S    
C16   C34   S    
O3    Zn2   S    
O6    Zn2   S    
C16   O5    A    
C31   C33   A    
C4    C12   S    
C9    C10   S    
C2    C43   A    
C11   H1    S    
C16   O7    A    
H13   N4    S    
C34   C41   A    
C42   C44   A    
C28   H21   S    
C35   N6    S    
H11   N4    S    
C1    O3    A    
C3    C44   A    
C5    H7    S    
C34   C39   A    
C32   C35   A    
C6    H8    S    
H10   N3    S    
C38   C41   A    
C4    C6    A    
C39   C40   A    
C5    C7    A    
C31   H22   S    
C6    C8    A    
C13   C24   A    
C1    C3    S    
C7    Cl3   S    
C19   N2    A    
C2    C4    A    
C8    Cl4   S    
C26   Cl8   S    
C42   H3    S    
C44   H5    S    
C30   C40   S    
C36   Cl1   S    
O7    Zn2   S    
C20   C22   A    
H15   N5    S    
C13   C15   A    
C22   C24   S    
C1    O1    A    
C7    C9    A    
C20   N3    S    
C29   C41   S    
C10   C43   A    
C17   O8    A    
C3    C5    A    
C2    H6    S    
C26   C37   A    
N2    Zn1   S    
C25   C27   A    
C23   C38   A    
O1    Zn1   S    
C11   C22   A    
C26   C28   A    
C12   O4    A    
H16   N6    S    
C28   C30   A    
C29   C31   A    
H14   N5    S    
C30   C32   A    
O8    Zn1   S    
C13   H12   S    
H9    N3    S    
C18   N1    A    
C21   N4    S    
C18   C20   A    
C25   C36   A    
C14   Cl5   S    
C43   H4    S    
C8    C10   A    
C21   C24   A    
O2    Zn2   S    
C37   Cl2   S    
C33   N5    S    
C27   H20   S    
C19   C21   A    
