data_mof_unit_39791.cif
_audit_creation_date              2013-03-05T16:50:08-0500
_audit_creation_method            fapswitch 2.2
_symmetry_space_group_name_H-M    P1
_symmetry_Int_Tables_number       1
_space_group_crystal_system       triclinic
_cell_length_a                    27.82733
_cell_length_b                    10.820523
_cell_length_c                    26.400249
_cell_angle_alpha                 90.146055
_cell_angle_beta                  89.927296
_cell_angle_gamma                 89.900607
_cell_volume                      7949.23611972

loop_
_atom_site_label
_atom_site_type_symbol
_atom_site_description
_atom_site_fract_x
_atom_site_fract_y
_atom_site_fract_z
_atom_type_partial_charge
O1    O     O_R   0.500000 0.319660 0.542350 -0.588558
O2    O     O_R   0.500000 0.680340 0.457650 -0.586741
O3    O     O_R   0.500000 0.319630 0.457650 -0.576336
O4    O     O_R   0.500000 0.680370 0.542350 -0.577548
C1    C     C_R   0.498665 0.261960 0.499892 0.800950
C2    C     C_R   0.501334 0.738015 0.500127 0.802364
O5    O     O_R   0.430260 0.500030 0.542340 -0.584326
O6    O     O_R   0.569740 0.499970 0.457660 -0.589869
O7    O     O_R   0.430270 0.500010 0.457650 -0.588546
O8    O     O_R   0.569730 0.499990 0.542350 -0.582906
C3    C     C_R   0.407297 0.499945 0.500015 0.804946
C4    C     C_R   0.592707 0.499893 0.499989 0.806540
Cu1   Cu    Cu3+1 0.500000 0.500020 0.550150 0.950843
Cu2   Cu    Cu3+1 0.500000 0.499980 0.449850 0.949444
O9    O     O_2   0.431243 0.379525 0.786100 -0.544382
O10   O     O_2   0.548642 0.672364 0.213972 -0.543758
C5    C     C_R   0.453842 0.301408 0.054565 0.158339
C6    C     C_R   0.578694 0.610856 0.945189 0.156783
H1    H     H_    0.449485 0.645571 0.629597 0.133302
H2    H     H_    0.553039 0.360517 0.370784 0.132574
C7    C     C_R   0.178480 0.385882 0.490887 0.589017
C8    C     C_R   0.821591 0.617088 0.495061 0.585495
O11   O     O_2   0.204779 0.281769 0.486341 -0.544134
O12   O     O_2   0.795348 0.721830 0.494440 -0.541924
N1    N     N_R   0.202034 0.495350 0.497782 -0.447649
N2    N     N_R   0.797997 0.506705 0.498222 -0.447364
C9    C     C_R   0.178020 0.604661 0.502124 0.582354
C10   C     C_R   0.821994 0.396878 0.498797 0.586494
C11   C     C_R   0.279073 0.510583 0.454454 -0.152527
C12   C     C_R   0.721051 0.511782 0.454429 -0.147387
C13   C     C_R   0.329045 0.512418 0.454524 -0.228176
C14   C     C_R   0.671069 0.509530 0.454300 -0.205501
C15   C     C_R   0.328914 0.484650 0.545586 -0.305665
C16   C     C_R   0.671001 0.493970 0.545852 -0.328007
C17   C     C_R   0.278537 0.482732 0.546102 0.033658
C18   C     C_R   0.721340 0.497592 0.546609 0.036807
C19   C     C_R   0.253538 0.495846 0.499738 0.365654
C20   C     C_R   0.746475 0.505927 0.500082 0.362608
C21   C     C_R   0.102064 0.495792 0.494226 -0.077225
C22   C     C_R   0.897979 0.506789 0.494510 -0.077321
C23   C     C_R   0.127479 0.382515 0.488965 -0.033885
C24   C     C_R   0.872584 0.620701 0.492935 -0.035607
C25   C     C_R   0.100933 0.271742 0.481705 0.165942
C26   C     C_R   0.899142 0.732390 0.488923 0.165686
C27   C     C_R   0.127810 0.607093 0.500537 -0.007062
C28   C     C_R   0.872212 0.394706 0.497236 -0.005649
C29   C     C_R   0.354404 0.499122 0.500037 -0.032140
C30   C     C_R   0.645607 0.500817 0.500004 -0.033567
H3    H     H_    0.348324 0.474286 0.580901 0.156225
H4    H     H_    0.651530 0.486343 0.581288 0.148321
C31   C     C_R   0.973874 0.388991 0.493163 0.065517
C32   C     C_R   0.026163 0.613448 0.496634 0.064908
C33   C     C_R   0.975151 0.616153 0.493157 0.000553
C34   C     C_R   0.024898 0.386895 0.489585 0.000672
C35   C     C_R   0.949126 0.504092 0.493533 0.071075
C36   C     C_R   0.050917 0.498606 0.493400 0.071145
C37   C     C_R   0.946632 0.279361 0.497345 -0.205954
C38   C     C_R   0.053379 0.722064 0.504233 -0.206520
C39   C     C_R   0.896906 0.282405 0.499063 -0.142402
C40   C     C_R   0.103098 0.718748 0.505892 -0.142132
O13   O     O_2   0.797125 0.289997 0.501122 -0.537051
O14   O     O_2   0.202863 0.710730 0.508223 -0.535657
C41   C     C_R   0.050683 0.276153 0.481809 -0.192108
C42   C     C_R   0.949389 0.727936 0.488783 -0.191249
H5    H     H_    0.652400 0.514759 0.418395 0.163523
H6    H     H_    0.347803 0.524664 0.418924 0.153515
H7    H     H_    0.740283 0.518017 0.418840 0.140198
H8    H     H_    0.259937 0.520939 0.419019 0.136783
H9    H     H_    0.877832 0.195515 0.502216 0.184646
H10   H     H_    0.122152 0.804863 0.511767 0.185673
H11   H     H_    0.962634 0.189113 0.501018 0.135179
H12   H     H_    0.037346 0.811410 0.510717 0.137394
H13   H     H_    0.032230 0.190756 0.474187 0.135953
H14   H     H_    0.967866 0.814362 0.483686 0.135512
H15   H     H_    0.390680 0.279861 0.301520 0.168089
H16   H     H_    0.612970 0.722042 0.696677 0.173842
C43   C     C_R   0.389245 0.248188 0.381965 -0.133165
C44   C     C_R   0.613300 0.756428 0.616424 -0.128132
H17   H     H_    0.357062 0.302485 0.387961 0.136458
H18   H     H_    0.646276 0.705790 0.609912 0.132436
C45   C     C_R   0.411800 0.190886 0.422985 -0.087561
C46   C     C_R   0.589589 0.812712 0.575897 -0.092107
H19   H     H_    0.396903 0.201989 0.460654 0.113576
H20   H     H_    0.604345 0.804238 0.538056 0.115472
C47   C     C_R   0.453628 0.120241 0.415329 0.118532
C48   C     C_R   0.546975 0.879607 0.584297 0.118732
C49   C     C_R   0.472068 0.106293 0.366098 -0.175390
C50   C     C_R   0.528721 0.890234 0.633755 -0.169016
H21   H     H_    0.504251 0.052118 0.359506 0.139961
H22   H     H_    0.495923 0.941461 0.640906 0.136464
C51   C     C_R   0.449404 0.163807 0.325232 -0.105992
C52   C     C_R   0.552436 0.833161 0.674112 -0.114753
H23   H     H_    0.463945 0.153177 0.287452 0.178434
H24   H     H_    0.538097 0.840812 0.712113 0.159043
C53   C     C_R   0.408137 0.235118 0.333171 -0.089861
C54   C     C_R   0.594616 0.766064 0.665426 -0.088860
C55   C     C_R   0.481223 0.932979 0.459363 -0.225217
C56   C     C_R   0.518511 0.066901 0.540826 -0.224818
H25   H     H_    0.465637 0.880806 0.428330 0.154673
H26   H     H_    0.534155 0.119031 0.571838 0.153870
C57   C     C_R   0.502221 0.871747 0.500365 -0.083089
C58   C     C_R   0.497602 0.128184 0.499753 -0.082927
C59   C     C_R   0.521585 0.938993 0.541435 0.002103
C60   C     C_R   0.478255 0.060887 0.458680 0.002974
H27   H     H_    0.400738 0.329119 0.873074 0.186714
H28   H     H_    0.569296 0.749279 0.126967 0.184944
H29   H     H_    0.402557 0.321185 0.963991 0.166795
H30   H     H_    0.572484 0.744101 0.036015 0.165570
C61   C     C_R   0.474023 0.407390 0.187870 0.547769
C62   C     C_R   0.537248 0.560682 0.811855 0.546431
O15   O     O_2   0.448031 0.323624 0.213798 -0.588938
O16   O     O_2   0.571264 0.622300 0.785731 -0.576697
N3    N     N_R   0.499158 0.496363 0.213678 -0.443330
N4    N     N_R   0.501254 0.501004 0.786220 -0.444497
C63   C     C_R   0.524713 0.584475 0.187954 0.538805
C64   C     C_R   0.466269 0.437975 0.812023 0.539795
C65   C     C_R   0.530321 0.416791 0.295904 0.089629
C66   C     C_R   0.471381 0.585948 0.704325 0.091709
C67   C     C_R   0.529745 0.420852 0.349248 0.065641
C68   C     C_R   0.471701 0.582260 0.650961 0.065190
C69   C     C_R   0.469932 0.576751 0.348726 0.032225
C70   C     C_R   0.528883 0.419911 0.651035 0.033106
C71   C     C_R   0.469186 0.576306 0.295637 -0.283285
C72   C     C_R   0.529687 0.419580 0.704078 -0.284703
C73   C     C_R   0.499455 0.495994 0.268611 0.370868
C74   C     C_R   0.500698 0.502487 0.731327 0.371162
C75   C     C_R   0.502013 0.490431 0.107429 -0.048236
C76   C     C_R   0.503700 0.493045 0.892416 -0.047720
C77   C     C_R   0.475230 0.402377 0.134391 -0.064929
C78   C     C_R   0.539035 0.558081 0.865364 -0.066634
C79   C     C_R   0.452062 0.307863 0.107664 -0.154061
C80   C     C_R   0.576503 0.614575 0.892056 -0.152313
C81   C     C_R   0.526564 0.583255 0.134464 -0.013680
C82   C     C_R   0.466763 0.433101 0.865471 -0.013444
N5    N     N_R   0.500000 0.499970 0.374520 -0.184304
N6    N     N_R   0.500000 0.500030 0.625480 -0.185089
H31   H     H_    0.446376 0.638578 0.369376 0.132443
H32   H     H_    0.551431 0.355965 0.630221 0.133617
H33   H     H_    0.445196 0.638018 0.275621 0.151489
H34   H     H_    0.552659 0.355020 0.723914 0.151673
H35   H     H_    0.434023 0.234791 0.128267 0.189977
H36   H     H_    0.605591 0.658120 0.871410 0.191333
C83   C     C_R   0.471492 0.413753 0.972875 0.055025
C84   C     C_R   0.534203 0.570014 0.026988 0.055861
C85   C     C_R   0.540064 0.557370 0.973377 0.022523
C86   C     C_R   0.476069 0.398639 0.026443 0.022773
C87   C     C_R   0.505165 0.488019 0.946348 0.032302
C88   C     C_R   0.504114 0.486163 0.053495 0.032107
C89   C     C_R   0.432750 0.363528 0.945200 -0.210823
C90   C     C_R   0.554961 0.668001 0.054747 -0.212622
C91   C     C_R   0.430794 0.371375 0.892517 -0.152642
C92   C     C_R   0.551859 0.673475 0.107462 -0.154876
C93   C     C_2   0.253981 0.466887 0.595646 0.401454
H37   H     H_    0.275238 0.457588 0.629886 0.067526
O17   O     O_2   0.210277 0.463869 0.599278 -0.524130
C94   C     C_2   0.745698 0.493377 0.596599 0.393209
H38   H     H_    0.724450 0.481991 0.630787 0.057919
O18   O     O_2   0.789186 0.503644 0.600692 -0.523923
C95   C     C_3   0.124189 0.146645 0.473618 -0.735849
H39   H     H_    0.097393 0.071980 0.467768 0.189337
H40   H     H_    0.147243 0.148514 0.439280 0.252892
H41   H     H_    0.145533 0.120642 0.507460 0.268886
C96   C     C_3   0.875901 0.858489 0.484442 -0.732780
H42   H     H_    0.902702 0.933815 0.480377 0.187152
H43   H     H_    0.852658 0.861780 0.450323 0.253754
H44   H     H_    0.854751 0.879452 0.519100 0.268842
C97   C     C_3   0.438484 0.180045 0.031281 -0.879957
H45   H     H_    0.450449 0.101863 0.055433 0.237168
H46   H     H_    0.398722 0.176261 0.028386 0.232749
H47   H     H_    0.455428 0.163927 0.993799 0.246579
C98   C     C_3   0.626225 0.647048 0.968468 -0.875122
H48   H     H_    0.656363 0.614040 0.944276 0.239070
H49   H     H_    0.628795 0.749168 0.971447 0.231586
H50   H     H_    0.631898 0.603161 0.005900 0.246841
C99   C     C_3   0.440627 0.678778 0.731800 -0.865599
H51   H     H_    0.421168 0.739896 0.704988 0.223058
H52   H     H_    0.413698 0.630288 0.755537 0.264572
H53   H     H_    0.463495 0.737502 0.756450 0.239044
C100  C     C_3   0.563796 0.329773 0.268749 -0.868788
H54   H     H_    0.586286 0.276503 0.295741 0.223402
H55   H     H_    0.542793 0.263061 0.245757 0.252259
H56   H     H_    0.588013 0.382903 0.243456 0.250667

loop_
_geom_bond_atom_site_label_1
_geom_bond_atom_site_label_2
_geom_bond_distance
_ccdc_geom_bond_type
C13   H6    1.083021 S    
C12   C14   1.391141 A    
C98   H48   1.111419 S    
C27   C40   1.395897 A    
C47   C49   1.404419 A    
C49   C51   1.397426 A    
C28   C39   1.395924 A    
C5    C79   1.404199 A    
C23   C25   1.421757 A    
C3    C29   1.471913 S    
C96   H42   1.111049 S    
C84   C88   1.420698 A    
C6    C85   1.430621 A    
C65   C67   1.408949 A    
H15   C53   1.082081 S    
C99   H52   1.109692 S    
C6    C98   1.510998 S    
C26   C42   1.398998 A    
C83   C87   1.420587 A    
C98   H49   1.110020 S    
C10   C28   1.398129 A    
O1    C1    1.282271 A    
C8    O12   1.347350 S    
C94   H38   1.085749 S    
C17   C19   1.415971 A    
C25   C95   1.513866 S    
C89   C91   1.394792 A    
N4    C74   1.449405 S    
C33   C42   1.410029 A    
C44   H18   1.081303 S    
C71   C73   1.402311 A    
N3    C73   1.450287 S    
Cu2   N5    1.988730 S    
C38   C40   1.384713 A    
C56   C59   1.386660 A    
C71   H33   1.082570 S    
C52   C54   1.397450 A    
C12   C20   1.399839 A    
C2    C57   1.447300 S    
C69   H31   1.081720 S    
O4    Cu1   1.962837 S    
C34   C41   1.410052 A    
C84   C90   1.412146 A    
C61   O15   1.348123 S    
N1    C19   1.434241 S    
C6    C80   1.404808 A    
C50   C52   1.398485 A    
C44   C54   1.397207 A    
C83   C89   1.411892 A    
C32   C38   1.413285 A    
C95   H40   1.110148 S    
C31   C37   1.413369 A    
C26   C96   1.513925 S    
C40   H10   1.083802 S    
C99   H53   1.110199 S    
C62   N4    1.371120 A    
C31   C35   1.422129 A    
C12   H7    1.083004 S    
C79   H35   1.084369 S    
C4    C30   1.472115 S    
C75   C88   1.425618 A    
C21   C27   1.411993 A    
C100  H56   1.110267 S    
C10   O13   1.350266 S    
C9    C27   1.398112 A    
C33   C35   1.413480 A    
C57   C59   1.412171 A    
C13   C29   1.401819 A    
Cu1   Cu2   2.647947 S    
C14   C30   1.401933 A    
O2    C2    1.282583 A    
C81   C92   1.400456 A    
C24   C26   1.421783 A    
O3    Cu2   1.962839 S    
C48   C59   1.482142 S    
C45   H19   1.083258 S    
C45   C47   1.405533 A    
O5    C3    1.287912 A    
C97   H47   1.108849 S    
C86   C88   1.420048 A    
C43   H17   1.081504 S    
C80   H36   1.084334 S    
H27   C91   1.083178 S    
C98   H50   1.108843 S    
C34   C36   1.413538 A    
C16   H4    1.083910 S    
H28   C92   1.083178 S    
C85   C87   1.420196 A    
C48   C50   1.404798 A    
C25   C41   1.399051 A    
C75   C81   1.408878 A    
C96   H44   1.110020 S    
C70   H32   1.081693 S    
C21   C23   1.420466 A    
C55   H25   1.085109 S    
C83   C86   1.429866 A    
C97   H45   1.111469 S    
N2    C20   1.434546 S    
C63   C81   1.413058 A    
C56   C58   1.399279 A    
C43   C53   1.397440 A    
C67   N5    1.362493 A    
C97   H46   1.110021 S    
C68   N6    1.362915 A    
O1    Cu1   1.961902 S    
C78   C80   1.399739 A    
O7    Cu2   1.951038 S    
C75   C77   1.405193 A    
C9    O14   1.350255 S    
C76   C82   1.408909 A    
C51   H23   1.081669 S    
C11   H8    1.082986 S    
C44   C46   1.398109 A    
C22   C24   1.420452 A    
C95   H39   1.111017 S    
C43   C45   1.398179 A    
O6    C4    1.288056 A    
C22   C35   1.423746 A    
C52   H24   1.082129 S    
C95   H41   1.110067 S    
C21   C36   1.423761 A    
C37   H11   1.077228 S    
C58   C60   1.412338 A    
O7    C3    1.287545 A    
C70   N6    1.361855 A    
C47   C60   1.481951 S    
O8    C4    1.287506 A    
C39   H9    1.083810 S    
H30   C90   1.078540 S    
C66   C68   1.409316 A    
O4    C2    1.279262 A    
C50   H22   1.083099 S    
C66   C99   1.503068 S    
C46   H20   1.083256 S    
C7    O11   1.347346 S    
C5    C97   1.511142 S    
C15   C29   1.404576 A    
Cu1   N6    1.988730 S    
C90   C92   1.395361 A    
C93   O17   1.220326 D    
C22   C28   1.411917 A    
C70   C72   1.400569 A    
O10   C63   1.348948 S    
C32   C33   1.422867 A    
C18   C94   1.485182 S    
C72   C74   1.402072 A    
C7    N1    1.366631 A    
C1    C58   1.447882 S    
O6    Cu2   1.951860 S    
C96   H43   1.110163 S    
N2    C10   1.362277 A    
C72   H34   1.082618 S    
C17   C93   1.485407 S    
C84   C85   1.430670 A    
O3    C1    1.279831 A    
O8    Cu1   1.951036 S    
C76   C78   1.405452 A    
H1    C68   1.082109 S    
N4    C64   1.371105 A    
C76   C87   1.425612 A    
C61   N3    1.371319 A    
N1    C9    1.362015 A    
C41   H13   1.076565 S    
C16   C30   1.404398 A    
C56   H26   1.085082 S    
C31   C34   1.423036 A    
C7    C23   1.420709 A    
C94   O18   1.220336 D    
C5    C86   1.430298 A    
C11   C13   1.390784 A    
C99   H51   1.110744 S    
C46   C48   1.405300 A    
H16   C54   1.081975 S    
C61   C77   1.413122 A    
C38   H12   1.077246 S    
C8    C24   1.420650 A    
C65   C73   1.411945 A    
C82   C91   1.400255 A    
C18   C20   1.415883 A    
C15   C17   1.402105 A    
C62   C78   1.413926 A    
C16   C18   1.401577 A    
O2    Cu2   1.961901 S    
C62   O16   1.348753 S    
C69   C71   1.401741 A    
C55   C60   1.386511 A    
C37   C39   1.384768 A    
C51   C53   1.397685 A    
C100  H54   1.110724 S    
H29   C89   1.078612 S    
C65   C100  1.503351 S    
O5    Cu1   1.951860 S    
C64   C82   1.412252 A    
C69   N5    1.362336 A    
C8    N2    1.366656 A    
C11   C19   1.399565 A    
C49   H21   1.083151 S    
C42   H14   1.076637 S    
O9    C64   1.349064 S    
C100  H55   1.109608 S    
C66   C74   1.411206 A    
C77   C79   1.399682 A    
C93   H37   1.085709 S    
C15   H3    1.084056 S    
H2    C67   1.082128 S    
C55   C57   1.398588 A    
C32   C36   1.422071 A    
C14   H5    1.083064 S    
N3    C63   1.371255 A    
