data_mof_unit_37261.cif
_audit_creation_date              2012-12-10T19:18:02-0500
_audit_creation_method            fapswitch 2.2
_symmetry_space_group_name_H-M    P1
_symmetry_Int_Tables_number       1
_space_group_crystal_system       triclinic
_cell_length_a                    24.544323
_cell_length_b                    24.544291
_cell_length_c                    22.40311
_cell_angle_alpha                 89.934862
_cell_angle_beta                  89.934947
_cell_angle_gamma                 89.904603
_cell_volume                      13496.1127737

loop_
_atom_site_label
_atom_site_type_symbol
_atom_type_description
_atom_site_fract_x
_atom_site_fract_y
_atom_site_fract_z
_atom_type_partial_charge
C1    C     C_R   0.228973 0.271028 0.250000 0.010425
C2    C     C_R   0.226769 0.730443 0.253754 -0.012159
C3    C     C_R   0.200733 0.636304 0.269900 0.196353
C4    C     C_R   0.336627 0.172770 0.696021 0.192282
C5    C     C_R   0.653657 0.816290 0.299240 0.192751
C6    C     C_R   0.186574 0.650860 0.702796 0.199203
C7    C     C_R   0.796885 0.367928 0.259518 0.193783
C8    C     C_R   0.350200 0.813433 0.298649 0.196606
C9    C     C_R   0.633158 0.202194 0.732334 0.197733
C10   C     C_R   0.190544 0.353377 0.292263 0.184254
C11   C     C_R   0.800735 0.637912 0.723459 0.192954
C12   C     C_R   0.644853 0.192277 0.288077 0.189065
C13   C     C_R   0.728595 0.771404 0.750000 0.002116
C14   C     C_R   0.363232 0.798804 0.733359 0.195526
C15   C     C_R   0.848361 0.682336 0.298902 0.184025
C16   C     C_R   0.195089 0.357908 0.714132 0.181021
C17   C     C_R   0.147880 0.352120 0.250000 -0.056743
C18   C     C_R   0.852091 0.647908 0.750000 -0.057956
C19   C     C_R   0.350597 0.853865 0.253695 -0.063302
C20   C     C_R   0.646955 0.148427 0.749707 -0.069382
C21   C     C_R   0.853017 0.646981 0.250003 -0.038026
C22   C     C_R   0.147959 0.352042 0.750001 -0.054838
C23   C     C_R   0.646135 0.149404 0.246305 -0.063296
C24   C     C_R   0.271394 0.228606 0.250000 0.006745
C25   C     C_R   0.351572 0.853046 0.750292 -0.069381
C26   C     C_R   0.849665 0.354864 0.753471 -0.068628
C27   C     C_R   0.146504 0.648720 0.253249 -0.057379
C28   C     C_R   0.647674 0.852326 0.750000 -0.036909
C29   C     C_R   0.352326 0.147674 0.250000 -0.056706
C30   C     C_R   0.145136 0.650335 0.746529 -0.068632
C31   C     C_R   0.851280 0.353496 0.246751 -0.057381
C32   C     C_R   0.352464 0.147538 0.750001 -0.061185
C33   C     C_R   0.648093 0.851906 0.250001 -0.058725
C34   C     C_3   0.207667 0.265212 0.103359 -0.017687
C35   C     C_R   0.225042 0.732503 0.747580 -0.013490
C36   C     C_3   0.210533 0.225049 0.051738 -0.398265
C37   C     C_3   0.858728 0.822179 0.741258 -0.010672
C38   C     C_3   0.875032 0.878900 0.761861 -0.385715
C39   C     C_3   0.267894 0.796277 0.107266 0.001182
C40   C     C_3   0.229551 0.778795 0.058143 -0.390236
C41   C     C_3   0.814570 0.146803 0.707177 0.002664
C42   C     C_3   0.873315 0.127596 0.712228 -0.377728
C43   C     C_3   0.693614 0.661521 0.166917 0.007559
C44   C     C_3   0.657613 0.660325 0.111760 -0.374064
C45   C     C_3   0.127728 0.185046 0.779826 0.000024
C46   C     C_R   0.769556 0.273232 0.246249 -0.012157
C47   C     C_3   0.130374 0.124839 0.795484 -0.405337
C48   C     C_3   0.728944 0.235492 0.107321 0.002740
C49   C     C_3   0.726125 0.208497 0.046457 -0.373271
C50   C     C_3   0.185929 0.874954 0.712241 0.005625
C51   C     C_3   0.148684 0.921670 0.730466 -0.365339
C52   C     C_3   0.759324 0.261457 0.887988 -0.018477
C53   C     C_3   0.782861 0.300667 0.933966 -0.377126
C54   C     C_3   0.146222 0.820093 0.298030 0.008974
C55   C     C_3   0.092326 0.850781 0.297962 -0.371358
C56   C     C_3   0.707975 0.761810 0.896216 -0.008835
C57   C     C_R   0.271532 0.228472 0.750003 0.007368
C58   C     C_3   0.739117 0.747439 0.952825 -0.373466
C59   C     C_3   0.188887 0.136167 0.300066 -0.004082
C60   C     C_3   0.128800 0.121231 0.300472 -0.387811
C61   C     C_3   0.193741 0.737523 0.896185 0.018356
C62   C     C_3   0.150436 0.758029 0.939471 -0.355541
C63   C     C_3   0.854587 0.182552 0.283500 0.000754
C64   C     C_3   0.867730 0.122498 0.275087 -0.381773
C65   C     C_3   0.316815 0.269151 0.875323 0.003471
C66   C     C_3   0.301400 0.293849 0.935156 -0.386036
C67   C     C_3   0.807346 0.830884 0.161201 0.008113
C68   C     C_R   0.729500 0.770490 0.250002 -0.020255
C69   C     C_3   0.837771 0.834889 0.102175 -0.374616
C70   C     C_3   0.738188 0.792019 0.603782 -0.008842
C71   C     C_3   0.752563 0.760871 0.547178 -0.373441
C72   C     C_3   0.363830 0.311113 0.199932 -0.004082
C73   C     C_3   0.378765 0.371201 0.199525 -0.387809
C74   C     C_3   0.762487 0.306251 0.603812 0.018356
C75   C     C_3   0.741988 0.349556 0.560523 -0.355548
C76   C     C_3   0.317448 0.645400 0.216518 0.000754
C77   C     C_3   0.377502 0.632257 0.224937 -0.381777
C78   C     C_3   0.230836 0.183201 0.624693 0.003468
C79   C     C_1   0.999971 0.500107 0.473290 -0.039464
C80   C     C_3   0.206139 0.198616 0.564860 -0.386033
C81   C     C_3   0.669102 0.692647 0.338797 0.008110
C82   C     C_3   0.665087 0.662223 0.397823 -0.374610
C83   C     C_3   0.238543 0.740671 0.612010 -0.018475
C84   C     C_3   0.199338 0.717131 0.566031 -0.377124
C85   C     C_3   0.679906 0.353777 0.201966 0.008977
C86   C     C_3   0.649216 0.407672 0.202030 -0.371358
C87   C     C_3   0.264505 0.771061 0.392681 0.002745
C88   C     C_3   0.291499 0.773883 0.453546 -0.373271
C89   C     C_3   0.625046 0.314070 0.787752 0.005625
C90   C     C_1   0.000029 0.500095 0.526704 -0.038961
C91   C     C_3   0.578325 0.351308 0.769523 -0.365338
C92   C     C_3   0.234790 0.292331 0.396639 -0.017685
C93   C     C_3   0.274953 0.289464 0.448259 -0.398263
C94   C     C_3   0.677831 0.641246 0.758737 -0.010656
C95   C     C_3   0.621103 0.624962 0.738139 -0.385709
C96   C     C_3   0.703696 0.232108 0.392740 0.001187
C97   C     C_3   0.721200 0.270447 0.441858 -0.390257
C98   C     C_3   0.353197 0.685432 0.792826 0.002665
C99   C     C_3   0.372404 0.626688 0.787777 -0.377728
C100  C     C_3   0.838453 0.806383 0.333091 0.007600
C101  C     C_1   0.500164 0.999927 0.473289 -0.036988
C102  C     C_3   0.839628 0.842396 0.388243 -0.374047
C103  C     C_3   0.314959 0.372271 0.720184 0.000032
C104  C     C_3   0.375163 0.369639 0.704497 -0.405300
C105  C     C_3   0.070171 0.258574 0.191340 0.051660
C106  C     C_3   0.057746 0.219722 0.139874 -0.244132
C107  C     C_3   0.026594 0.169702 0.161608 -0.495364
C108  C     C_3   0.902084 0.709259 0.868425 0.049487
C109  C     C_3   0.924271 0.761661 0.896334 -0.251384
C110  C     C_3   0.913235 0.763754 0.963284 -0.502333
C111  C     C_3   0.263407 0.936295 0.218064 0.042495
C112  C     C_R   0.770997 0.729003 0.749999 -0.000824
C113  C     C_1   0.500154 0.999984 0.526704 -0.036862
C114  C     C_3   0.205956 0.942129 0.192584 -0.253832
C115  C     C_3   0.169563 0.975056 0.234540 -0.505613
C116  C     C_3   0.710909 0.082705 0.849196 0.048678
C117  C     C_3   0.765882 0.091538 0.879960 -0.265620
C118  C     C_3   0.760886 0.084641 0.947428 -0.512540
C119  C     C_3   0.848598 0.638030 0.106387 0.032453
C120  C     C_3   0.859954 0.593718 0.060125 -0.250510
C121  C     C_3   0.890637 0.616203 0.006287 -0.491959
C122  C     C_3   0.114483 0.312611 0.882266 0.035640
C123  C     C_3   0.065805 0.306848 0.924344 -0.264198
C124  C     C_1   0.500016 0.999845 0.973296 -0.036862
C125  C     C_3   0.080297 0.323216 0.988052 -0.476904
C126  C     C_3   0.728445 0.074597 0.163511 0.039847
C127  C     C_3   0.721592 0.027840 0.119179 -0.244114
C128  C     C_3   0.767446 0.986169 0.125213 -0.475999
C129  C     C_3   0.292487 0.918237 0.852754 0.046878
C130  C     C_3   0.239350 0.905344 0.885900 -0.269909
C131  C     C_3   0.247886 0.904860 0.953411 -0.502669
C132  C     C_3   0.923369 0.265398 0.830783 0.057695
C133  C     C_3   0.931511 0.234847 0.889550 -0.247903
C134  C     C_3   0.966954 0.184292 0.881154 -0.502428
C135  C     C_1   0.500073 0.999836 0.026711 -0.036987
C136  C     C_3   0.067846 0.729681 0.172815 0.046140
C137  C     C_3   0.006766 0.739391 0.164819 -0.252864
C138  C     C_3   0.992345 0.750664 0.099798 -0.509585
C139  C     C_3   0.724254 0.908558 0.857729 0.051494
C140  C     C_3   0.733994 0.917605 0.924321 -0.256195
C141  C     C_3   0.792443 0.935402 0.936846 -0.498990
C142  C     C_3   0.283359 0.079385 0.155884 0.038792
C143  C     C_3   0.226021 0.088839 0.130922 -0.264123
C144  C     C_3   0.222493 0.072057 0.065671 -0.516374
C145  C     C_3   0.055985 0.728044 0.792447 0.039142
C146  C     C_1   0.999908 0.499970 0.973296 -0.038995
C147  C     C_3   0.061820 0.790058 0.797296 -0.274392
C148  C     C_3   0.014955 0.819167 0.766017 -0.510225
C149  C     C_3   0.917187 0.293167 0.146650 0.037867
C150  C     C_3   0.896497 0.243439 0.112055 -0.259545
C151  C     C_3   0.910535 0.247470 0.045894 -0.516571
C152  C     C_3   0.304234 0.093669 0.866944 0.044624
C153  C     C_3   0.252228 0.111284 0.899548 -0.264910
C154  C     C_3   0.216013 0.062383 0.913095 -0.519077
C155  C     C_3   0.646965 0.857614 0.108489 0.037610
C156  C     C_3   0.640955 0.897904 0.056960 -0.264200
C157  C     C_1   0.999896 0.500028 0.026710 -0.039462
C158  C     C_3   0.606175 0.874665 0.006712 -0.481533
C159  C     C_3   0.591440 0.775745 0.642272 0.051499
C160  C     C_3   0.582395 0.766001 0.575681 -0.256188
C161  C     C_3   0.564596 0.707552 0.563160 -0.498986
C162  C     C_3   0.420617 0.216642 0.344114 0.038793
C163  C     C_3   0.411164 0.273979 0.369076 -0.264124
C164  C     C_3   0.427946 0.277507 0.434328 -0.516375
C165  C     C_3   0.771953 0.444011 0.707543 0.039139
C166  C     C_3   0.709940 0.438166 0.702694 -0.274380
C167  C     C_3   0.680823 0.485038 0.733954 -0.510210
C168  C     C_R   0.999941 0.500021 0.090074 0.497051
C169  C     C_3   0.206828 0.582813 0.353356 0.037870
C170  C     C_3   0.256555 0.603503 0.387954 -0.259544
C171  C     C_3   0.252523 0.589462 0.454114 -0.516571
C172  C     C_3   0.406331 0.195768 0.633057 0.044625
C173  C     C_3   0.388717 0.247774 0.600452 -0.264910
C174  C     C_3   0.437619 0.283989 0.586905 -0.519076
C175  C     C_3   0.642390 0.853038 0.391512 0.037597
C176  C     C_3   0.602105 0.859056 0.443043 -0.264204
C177  C     C_3   0.625351 0.893836 0.493287 -0.481546
C178  C     C_3   0.234603 0.576627 0.669225 0.057694
C179  C     C_R   0.999960 0.499979 0.909928 0.498082
C180  C     C_3   0.265157 0.568483 0.610461 -0.247903
C181  C     C_3   0.315708 0.533035 0.618861 -0.502432
C182  C     C_3   0.770320 0.432167 0.327168 0.046143
C183  C     C_3   0.760608 0.493248 0.335151 -0.252856
C184  C     C_3   0.749363 0.507684 0.400175 -0.509574
C185  C     C_3   0.425401 0.771559 0.336498 0.039848
C186  C     C_3   0.472157 0.778417 0.380831 -0.244114
C187  C     C_3   0.513829 0.732563 0.374803 -0.475995
C188  C     C_3   0.581765 0.207511 0.647242 0.046875
C189  C     C_3   0.594660 0.260647 0.614095 -0.269905
C190  C     C_R   0.500032 0.999913 0.090075 0.501528
C191  C     C_3   0.595143 0.252109 0.546584 -0.502673
C192  C     C_3   0.241423 0.429831 0.308661 0.051659
C193  C     C_3   0.280276 0.442255 0.360126 -0.244133
C194  C     C_3   0.330294 0.473410 0.338393 -0.495367
C195  C     C_3   0.790756 0.597905 0.631580 0.049490
C196  C     C_3   0.738349 0.575740 0.603658 -0.251394
C197  C     C_3   0.736298 0.586733 0.536698 -0.502352
C198  C     C_3   0.563703 0.236596 0.281927 0.042486
C199  C     C_3   0.557868 0.294047 0.307406 -0.253836
C200  C     C_3   0.524940 0.330439 0.265450 -0.505614
C201  C     C_R   0.499989 0.999934 0.909928 0.505278
C202  C     C_3   0.417294 0.789090 0.650804 0.048678
C203  C     C_3   0.408460 0.734117 0.620041 -0.265619
C204  C     C_3   0.415357 0.739113 0.552572 -0.512538
C205  C     C_3   0.861984 0.651378 0.393609 0.032428
C206  C     C_3   0.906266 0.640208 0.439966 -0.250436
C207  C     C_3   0.883804 0.609487 0.493790 -0.491996
C208  C     C_3   0.187389 0.385516 0.617737 0.035647
C209  C     C_3   0.193152 0.434192 0.575656 -0.264196
C210  C     C_3   0.176783 0.419697 0.511949 -0.476908
C211  C     C_R   0.500065 0.000011 0.590072 0.505279
C212  C     C_R   0.269282 0.773072 0.254081 -0.013286
C213  C     C_R   0.500087 0.999968 0.409925 0.501528
C214  C     C_R   0.000021 0.500041 0.590071 0.498094
C215  C     C_R   0.999979 0.500061 0.409926 0.497099
C216  C     C_R   0.104898 0.605506 0.250756 0.555581
C217  C     C_R   0.894099 0.395404 0.751043 0.532967
C218  C     C_R   0.605354 0.894646 0.250000 0.527463
C219  C     C_R   0.394832 0.105168 0.750000 0.565573
C220  C     C_R   0.894493 0.395102 0.249244 0.555582
C221  C     C_R   0.104596 0.605901 0.748957 0.532959
C222  C     C_R   0.394795 0.105205 0.250000 0.549245
C223  C     C_R   0.725904 0.231455 0.750720 -0.016831
C224  C     C_R   0.605205 0.894795 0.750000 0.560587
C225  C     C_R   0.894708 0.605292 0.750000 0.538393
C226  C     C_R   0.105282 0.394718 0.250000 0.540294
C227  C     C_R   0.394730 0.894807 0.750168 0.546483
C228  C     C_R   0.604614 0.105888 0.248764 0.538212
C229  C     C_R   0.105316 0.394684 0.750000 0.533310
C230  C     C_R   0.895041 0.604960 0.250002 0.595567
C231  C     C_R   0.605193 0.105270 0.749831 0.546482
C232  C     C_R   0.394112 0.895386 0.251236 0.538213
C233  C     C_R   0.191035 0.273571 0.203188 0.243173
C234  C     C_R   0.772175 0.727815 0.250003 -0.024633
C235  C     C_R   0.823565 0.741078 0.770776 0.249557
C236  C     C_R   0.272330 0.810799 0.207177 0.241427
C237  C     C_R   0.741332 0.176719 0.759321 0.238882
C238  C     C_R   0.775497 0.690254 0.202354 0.237186
C239  C     C_R   0.179902 0.262174 0.780702 0.240183
C240  C     C_R   0.723204 0.193552 0.198213 0.248174
C241  C     C_R   0.255721 0.829335 0.758541 0.242641
C242  C     C_R   0.804688 0.277661 0.800337 0.261355
C243  C     C_R   0.171482 0.744261 0.245283 0.250748
C244  C     C_R   0.716122 0.799277 0.803073 0.228423
C245  C     C_R   0.229058 0.270947 0.750004 0.013159
C246  C     C_R   0.256870 0.173483 0.244877 0.246533
C247  C     C_R   0.186396 0.729387 0.793793 0.242749
C248  C     C_R   0.824268 0.258667 0.236636 0.237698
C249  C     C_R   0.292338 0.208581 0.804239 0.242700
C250  C     C_R   0.725341 0.807179 0.201665 0.238483
C251  C     C_R   0.700722 0.783877 0.696926 0.228419
C252  C     C_R   0.326518 0.243130 0.255123 0.246534
C253  C     C_R   0.770616 0.313601 0.706205 0.242749
C254  C     C_R   0.241333 0.675731 0.263371 0.237696
C255  C     C_R   0.291422 0.207667 0.695766 0.242699
C256  C     C_R   0.726927 0.230719 0.245921 -0.013283
C257  C     C_R   0.692811 0.774653 0.298337 0.238485
C258  C     C_R   0.222339 0.695311 0.699664 0.261360
C259  C     C_R   0.755737 0.328520 0.254715 0.250754
C260  C     C_R   0.306448 0.776797 0.301790 0.248177
C261  C     C_R   0.670667 0.244278 0.741456 0.242643
C262  C     C_R   0.226430 0.308965 0.296811 0.243173
C263  C     C_R   0.758922 0.676435 0.729224 0.249581
C264  C     C_R   0.689198 0.227672 0.292823 0.241431
C265  C     C_R   0.323280 0.758669 0.740679 0.238880
C266  C     C_R   0.809735 0.724494 0.297654 0.237183
C267  C     C_R   0.268544 0.774097 0.749278 -0.016831
C268  C     C_R   0.237830 0.320102 0.719304 0.240178
C269  C     C_R   0.146623 0.309456 0.207737 0.184254
C270  C     C_R   0.862087 0.699264 0.776543 0.192962
C271  C     C_R   0.307725 0.855144 0.211921 0.189073
C272  C     C_R   0.701197 0.136767 0.766640 0.195527
C273  C     C_R   0.817659 0.651631 0.201108 0.184071
C274  C     C_R   0.142095 0.304913 0.785872 0.181021
C275  C     C_R   0.686569 0.149799 0.201354 0.196607
C276  C     C_R   0.297805 0.866843 0.767663 0.197731
C277  C     C_R   0.849139 0.313426 0.797205 0.199202
C278  C     C_R   0.767499 0.274957 0.752419 -0.013491
C279  C     C_R   0.132074 0.703114 0.240477 0.193786
C280  C     C_R   0.680672 0.844338 0.800873 0.179894
C281  C     C_R   0.297746 0.134314 0.236601 0.192755
C282  C     C_R   0.142369 0.693577 0.788026 0.196413
C283  C     C_R   0.863695 0.299266 0.230105 0.196361
C284  C     C_R   0.327233 0.163374 0.803982 0.192269
C285  C     C_R   0.683708 0.846339 0.200762 0.192741
C286  C     C_R   0.655662 0.819328 0.699126 0.179897
C287  C     C_R   0.365686 0.202254 0.263399 0.192756
C288  C     C_R   0.806425 0.357629 0.711972 0.196414
H1    H     H_    0.247979 0.285563 0.107681 0.103732
H2    H     H_    0.838364 0.902409 0.775237 0.138071
H3    H     H_    0.399402 0.668799 0.241531 0.139359
H4    H     H_    0.197297 0.179887 0.657877 0.106436
H5    H     H_    0.250933 0.142696 0.619710 0.155831
H6    H     H_    0.238120 0.197652 0.529818 0.151836
H7    H     H_    0.173811 0.169017 0.552819 0.084625
H8    H     H_    0.187976 0.240049 0.567262 0.142572
H9    H     H_    0.691262 0.666227 0.306619 0.102267
H10   H     H_    0.627008 0.700360 0.322181 0.125761
H11   H     H_    0.642724 0.687330 0.431059 0.154093
H12   H     H_    0.643025 0.623223 0.391321 0.084857
H13   H     H_    0.298029 0.762770 0.114298 0.091444
H14   H     H_    0.706557 0.653313 0.415127 0.148920
H15   H     H_    0.274466 0.757267 0.588045 0.132685
H16   H     H_    0.219111 0.775887 0.635096 0.096242
H17   H     H_    0.162169 0.701337 0.588310 0.170889
H18   H     H_    0.186965 0.749353 0.533984 0.079840
H19   H     H_    0.219484 0.683631 0.541170 0.157679
H20   H     H_    0.650789 0.320468 0.191780 0.115892
H21   H     H_    0.710684 0.355261 0.165159 0.101461
H22   H     H_    0.678161 0.441793 0.209062 0.178137
H23   H     H_    0.628265 0.413500 0.158583 0.079444
H24   H     H_    0.289524 0.833657 0.092215 0.174745
H25   H     H_    0.618457 0.408132 0.238393 0.150932
H26   H     H_    0.226641 0.746560 0.396463 0.112830
H27   H     H_    0.252320 0.813403 0.379803 0.096428
H28   H     H_    0.330335 0.796772 0.450058 0.187448
H29   H     H_    0.264369 0.795478 0.485341 0.075058
H30   H     H_    0.299895 0.732146 0.470474 0.147708
H31   H     H_    0.653045 0.337188 0.817253 0.105902
H32   H     H_    0.607513 0.279659 0.814172 0.124891
H33   H     H_    0.549107 0.328634 0.741058 0.172480
H34   H     H_    0.556676 0.366225 0.809881 0.081045
H35   H     H_    0.199086 0.811397 0.049708 0.158130
H36   H     H_    0.594107 0.386792 0.744139 0.144976
H37   H     H_    0.214439 0.252018 0.392316 0.103732
H38   H     H_    0.203642 0.323633 0.407895 0.169292
H39   H     H_    0.300901 0.326447 0.449143 0.154382
H40   H     H_    0.252492 0.287154 0.491151 0.107162
H41   H     H_    0.301230 0.252845 0.443671 0.140307
H42   H     H_    0.673173 0.671750 0.794957 0.106612
H43   H     H_    0.698730 0.604421 0.776753 0.139079
H44   H     H_    0.623773 0.596792 0.699520 0.145418
H45   H     H_    0.599204 0.604241 0.775122 0.091829
H46   H     H_    0.253131 0.771120 0.016726 0.081060
H47   H     H_    0.597593 0.661643 0.724803 0.138065
H48   H     H_    0.737184 0.201951 0.385717 0.091446
H49   H     H_    0.666301 0.210505 0.407791 0.174779
H50   H     H_    0.688618 0.300936 0.450282 0.158132
H51   H     H_    0.728852 0.246868 0.483281 0.081071
H52   H     H_    0.759165 0.291787 0.428414 0.145094
H53   H     H_    0.318085 0.686887 0.824383 0.103493
H54   H     H_    0.387461 0.710025 0.811159 0.145664
H55   H     H_    0.406978 0.623920 0.755877 0.157710
H56   H     H_    0.386036 0.611778 0.832135 0.082740
H57   H     H_    0.208181 0.740846 0.071588 0.145099
H58   H     H_    0.338655 0.600444 0.771884 0.134879
H59   H     H_    0.820284 0.830384 0.295976 0.095179
H60   H     H_    0.881194 0.795014 0.321577 0.145513
H61   H     H_    0.857900 0.819783 0.426275 0.155054
H62   H     H_    0.864360 0.879346 0.379215 0.080665
H63   H     H_    0.797545 0.855022 0.400328 0.143928
H64   H     H_    0.311240 0.369998 0.769703 0.097592
H65   H     H_    0.298922 0.412232 0.704901 0.174595
H66   H     H_    0.380617 0.374355 0.655563 0.155581
H67   H     H_    0.397305 0.403003 0.727432 0.090192
H68   H     H_    0.813116 0.181915 0.675620 0.103494
H69   H     H_    0.392514 0.329940 0.718978 0.145340
H70   H     H_    0.031348 0.275457 0.208933 0.173420
H71   H     H_    0.088992 0.234538 0.228416 0.128492
H72   H     H_    0.033535 0.241355 0.105417 0.144116
H73   H     H_    0.096335 0.205979 0.118903 0.205734
H74   H     H_    0.053440 0.143819 0.189708 0.151943
H75   H     H_    0.012808 0.145393 0.122700 0.137830
H76   H     H_    0.990511 0.181969 0.188354 0.166725
H77   H     H_    0.924876 0.674040 0.887172 0.154974
H78   H     H_    0.858569 0.704249 0.882240 0.127594
H79   H     H_    0.789978 0.112538 0.688842 0.145663
H80   H     H_    0.968896 0.764168 0.888863 0.144349
H81   H     H_    0.904884 0.797639 0.875155 0.213870
H82   H     H_    0.868770 0.761925 0.972293 0.151008
H83   H     H_    0.929379 0.802394 0.981902 0.143132
H84   H     H_    0.933808 0.729182 0.985860 0.143916
H85   H     H_    0.282964 0.976799 0.219803 0.197132
H86   H     H_    0.260352 0.922652 0.265697 0.094516
H87   H     H_    0.208033 0.962562 0.148391 0.156785
H88   H     H_    0.187638 0.901203 0.186332 0.233565
H89   H     H_    0.163506 0.952725 0.277147 0.139941
H90   H     H_    0.876081 0.093022 0.744127 0.157709
H91   H     H_    0.129248 0.981936 0.213388 0.136096
H92   H     H_    0.188363 0.015032 0.244709 0.178559
H93   H     H_    0.696149 0.041260 0.860660 0.160856
H94   H     H_    0.679974 0.111627 0.867729 0.111545
H95   H     H_    0.796208 0.062036 0.862242 0.169817
H96   H     H_    0.780759 0.133332 0.870908 0.233300
H97   H     H_    0.731821 0.115035 0.965582 0.141536
H98   H     H_    0.801244 0.090900 0.968662 0.153057
H99   H     H_    0.746053 0.043241 0.958744 0.147982
H100  H     H_    0.888234 0.655993 0.120623 0.135392
H101  H     H_    0.888225 0.113964 0.667870 0.082740
H102  H     H_    0.823191 0.670435 0.085438 0.173251
H103  H     H_    0.884596 0.560757 0.080935 0.183416
H104  H     H_    0.820729 0.575973 0.044875 0.165261
H105  H     H_    0.866342 0.648795 0.984467 0.126556
H106  H     H_    0.897723 0.583085 0.973451 0.154698
H107  H     H_    0.930725 0.632736 0.020298 0.156711
H108  H     H_    0.129174 0.355561 0.883887 0.124099
H109  H     H_    0.147537 0.284902 0.898007 0.166657
H110  H     H_    0.031752 0.332905 0.908225 0.203766
H111  H     H_    0.052144 0.263764 0.924484 0.158144
H112  H     H_    0.176365 0.296359 0.092105 0.169294
H113  H     H_    0.899557 0.161345 0.728123 0.134879
H114  H     H_    0.113197 0.296548 0.005508 0.143940
H115  H     H_    0.043929 0.318696 0.017173 0.158064
H116  H     H_    0.093849 0.366354 0.989451 0.156378
H117  H     H_    0.728153 0.057282 0.209616 0.115367
H118  H     H_    0.768362 0.094691 0.155098 0.176098
H119  H     H_    0.681960 0.007298 0.127420 0.216147
H120  H     H_    0.721432 0.044286 0.072942 0.155280
H121  H     H_    0.807383 0.005435 0.115387 0.127820
H122  H     H_    0.760918 0.952371 0.093167 0.167152
H123  H     H_    0.768066 0.969088 0.171132 0.159977
H124  H     H_    0.669604 0.679690 0.204022 0.095202
H125  H     H_    0.305549 0.959917 0.865626 0.151023
H126  H     H_    0.325546 0.890149 0.868063 0.120003
H127  H     H_    0.207946 0.936184 0.874175 0.165501
H128  H     H_    0.224220 0.864639 0.872697 0.240097
H129  H     H_    0.275948 0.871242 0.966107 0.145355
H130  H     H_    0.208235 0.898358 0.976213 0.146364
H131  H     H_    0.265342 0.944067 0.968802 0.146231
H132  H     H_    0.963519 0.280394 0.814736 0.162956
H133  H     H_    0.907859 0.236058 0.796743 0.131288
H134  H     H_    0.950903 0.262429 0.922490 0.154957
H135  H     H_    0.704992 0.618786 0.178443 0.145505
H136  H     H_    0.891356 0.222062 0.907564 0.207782
H137  H     H_    0.946497 0.154906 0.850913 0.153808
H138  H     H_    0.973651 0.164298 0.925028 0.141262
H139  H     H_    0.007087 0.195544 0.861947 0.147210
H140  H     H_    0.080631 0.695382 0.143303 0.134131
H141  H     H_    0.089990 0.767249 0.159236 0.175622
H142  H     H_    0.983991 0.702887 0.180153 0.206153
H143  H     H_    0.993911 0.774674 0.192581 0.156295
H144  H     H_    0.013923 0.787561 0.083534 0.146000
H145  H     H_    0.947770 0.757573 0.095998 0.136747
H146  H     H_    0.680236 0.642054 0.073737 0.155065
H147  H     H_    0.003660 0.715274 0.071480 0.148977
H148  H     H_    0.719659 0.948604 0.835148 0.140669
H149  H     H_    0.761207 0.888730 0.838499 0.170763
H150  H     H_    0.705143 0.949053 0.940987 0.143287
H151  H     H_    0.726313 0.879034 0.948847 0.188665
H152  H     H_    0.821234 0.901842 0.926002 0.165479
H153  H     H_    0.796836 0.945672 0.984842 0.136036
H154  H     H_    0.803092 0.971681 0.909698 0.143442
H155  H     H_    0.297074 0.037890 0.143097 0.170085
H156  H     H_    0.312764 0.107953 0.134135 0.118508
H157  H     H_    0.620669 0.635584 0.120785 0.080673
H158  H     H_    0.195611 0.065358 0.156866 0.186601
H159  H     H_    0.215467 0.132577 0.134383 0.235393
H160  H     H_    0.253459 0.094345 0.039129 0.148707
H161  H     H_    0.181368 0.082008 0.048156 0.147972
H162  H     H_    0.229496 0.027546 0.060978 0.149476
H163  H     H_    0.016575 0.715848 0.812464 0.205815
H164  H     H_    0.053875 0.715713 0.744530 0.116640
H165  H     H_    0.062350 0.802293 0.844986 0.167485
H166  H     H_    0.100563 0.803085 0.776243 0.220018
H167  H     H_    0.975644 0.806753 0.786160 0.181779
H168  H     H_    0.644977 0.702401 0.099662 0.143943
H169  H     H_    0.014736 0.809130 0.717685 0.142875
H170  H     H_    0.019494 0.863903 0.771154 0.135548
H171  H     H_    0.960432 0.300470 0.134708 0.164675
H172  H     H_    0.894522 0.330260 0.131796 0.125786
H173  H     H_    0.914438 0.205533 0.130553 0.199222
H174  H     H_    0.851599 0.240925 0.116346 0.215250
H175  H     H_    0.894141 0.285901 0.026800 0.147956
H176  H     H_    0.892287 0.212486 0.021772 0.147542
H177  H     H_    0.955350 0.246411 0.039322 0.140720
H178  H     H_    0.326028 0.063524 0.895272 0.158340
H179  H     H_    0.129981 0.188784 0.730310 0.097601
H180  H     H_    0.293252 0.071981 0.824836 0.135416
H181  H     H_    0.263058 0.132442 0.941669 0.182010
H182  H     H_    0.228660 0.139822 0.871301 0.237512
H183  H     H_    0.204539 0.041303 0.871113 0.145025
H184  H     H_    0.178245 0.076278 0.935762 0.148957
H185  H     H_    0.237656 0.033344 0.942674 0.149492
H186  H     H_    0.605664 0.848363 0.126628 0.112148
H187  H     H_    0.665833 0.819411 0.091215 0.165048
H188  H     H_    0.621892 0.936044 0.073493 0.197486
H189  H     H_    0.681972 0.908099 0.039471 0.153789
H190  H     H_    0.087772 0.201071 0.795134 0.174613
H191  H     H_    0.624569 0.836455 0.989437 0.141521
H192  H     H_    0.603685 0.904636 0.969631 0.183758
H193  H     H_    0.564299 0.866160 0.023063 0.139536
H194  H     H_    0.551393 0.780341 0.664851 0.140669
H195  H     H_    0.611267 0.738792 0.661505 0.170762
H196  H     H_    0.550949 0.794853 0.559012 0.143287
H197  H     H_    0.620968 0.773680 0.551155 0.188665
H198  H     H_    0.598154 0.678760 0.574006 0.165469
H199  H     H_    0.554327 0.703157 0.515163 0.136035
H200  H     H_    0.528316 0.696906 0.590307 0.143441
H201  H     H_    0.125670 0.119366 0.844415 0.155576
H202  H     H_    0.462113 0.202927 0.356899 0.170091
H203  H     H_    0.392051 0.187235 0.365863 0.118511
H204  H     H_    0.434644 0.304389 0.343132 0.186601
H205  H     H_    0.367425 0.284533 0.365616 0.235391
H206  H     H_    0.405659 0.246540 0.460869 0.148707
H207  H     H_    0.417996 0.318632 0.451842 0.147972
H208  H     H_    0.472457 0.270503 0.439020 0.149476
H209  H     H_    0.784144 0.483421 0.687521 0.205797
H210  H     H_    0.784284 0.446128 0.755460 0.116648
H211  H     H_    0.697705 0.437618 0.655004 0.167519
H212  H     H_    0.097010 0.102699 0.772546 0.090196
H213  H     H_    0.696917 0.399428 0.723764 0.220001
H214  H     H_    0.690868 0.485282 0.782284 0.142877
H215  H     H_    0.636087 0.480484 0.728827 0.135551
H216  H     H_    0.693223 0.524344 0.713785 0.181740
H217  H     H_    0.199524 0.539569 0.365298 0.164676
H218  H     H_    0.169735 0.605479 0.368208 0.125784
H219  H     H_    0.294461 0.585564 0.369456 0.199226
H220  H     H_    0.259067 0.648401 0.383665 0.215239
H221  H     H_    0.214090 0.605852 0.473207 0.147960
H222  H     H_    0.287505 0.607711 0.478238 0.147540
H223  H     H_    0.173550 0.199100 0.050857 0.154381
H224  H     H_    0.170074 0.107502 0.780987 0.145351
H225  H     H_    0.253584 0.544647 0.460683 0.140720
H226  H     H_    0.436475 0.173972 0.604728 0.158339
H227  H     H_    0.428020 0.206750 0.675164 0.135412
H228  H     H_    0.367559 0.236944 0.558330 0.182009
H229  H     H_    0.360179 0.271342 0.628698 0.237511
H230  H     H_    0.458698 0.295463 0.628888 0.145023
H231  H     H_    0.423724 0.321756 0.564237 0.148956
H232  H     H_    0.466658 0.262345 0.557327 0.149491
H233  H     H_    0.651646 0.894335 0.373371 0.112144
H234  H     H_    0.680591 0.834166 0.408785 0.165050
H235  H     H_    0.753445 0.273357 0.103540 0.112829
H236  H     H_    0.563968 0.878123 0.426511 0.197490
H237  H     H_    0.591906 0.818042 0.460536 0.153795
H238  H     H_    0.663558 0.875437 0.510563 0.141518
H239  H     H_    0.595383 0.896335 0.530368 0.183758
H240  H     H_    0.633863 0.935708 0.476930 0.139533
H241  H     H_    0.219605 0.536478 0.685273 0.162962
H242  H     H_    0.263941 0.592138 0.703266 0.131281
H243  H     H_    0.237576 0.549093 0.577519 0.154961
H244  H     H_    0.277947 0.608637 0.592448 0.207780
H245  H     H_    0.345093 0.553489 0.649106 0.153801
H246  H     H_    0.686601 0.247677 0.120196 0.096429
H247  H     H_    0.335706 0.526337 0.574989 0.141261
H248  H     H_    0.304451 0.492902 0.638066 0.147230
H249  H     H_    0.804621 0.419388 0.356681 0.134150
H250  H     H_    0.732754 0.410023 0.340755 0.175603
H251  H     H_    0.797103 0.516024 0.319790 0.206160
H252  H     H_    0.725311 0.506092 0.307404 0.156263
H253  H     H_    0.712474 0.486105 0.416466 0.145994
H254  H     H_    0.742452 0.552259 0.403965 0.136750
H255  H     H_    0.784769 0.496378 0.428477 0.148972
H256  H     H_    0.442717 0.771848 0.290394 0.115367
H257  H     H_    0.703237 0.169661 0.049945 0.187449
H258  H     H_    0.405307 0.731643 0.344915 0.176098
H259  H     H_    0.492699 0.818049 0.372586 0.216153
H260  H     H_    0.455711 0.778581 0.427067 0.155280
H261  H     H_    0.494564 0.692627 0.384633 0.127817
H262  H     H_    0.547627 0.739095 0.406848 0.167156
H263  H     H_    0.530910 0.731938 0.328884 0.159981
H264  H     H_    0.540085 0.194450 0.634370 0.151023
H265  H     H_    0.609851 0.174450 0.631935 0.120004
H266  H     H_    0.563823 0.292053 0.625820 0.165503
H267  H     H_    0.635366 0.275774 0.627297 0.240094
H268  H     H_    0.704531 0.235626 0.014661 0.075060
H269  H     H_    0.628757 0.224043 0.533888 0.145346
H270  H     H_    0.601650 0.291759 0.523781 0.146369
H271  H     H_    0.555934 0.234659 0.531194 0.146228
H272  H     H_    0.224539 0.468653 0.291070 0.173425
H273  H     H_    0.265460 0.411011 0.271584 0.128487
H274  H     H_    0.258643 0.466465 0.394584 0.144118
H275  H     H_    0.294020 0.403666 0.381096 0.205736
H276  H     H_    0.356177 0.446567 0.310290 0.151941
H277  H     H_    0.354603 0.487195 0.377300 0.137830
H278  H     H_    0.318025 0.509494 0.311649 0.166728
H279  H     H_    0.767863 0.200103 0.029531 0.147708
H280  H     H_    0.825970 0.575094 0.612847 0.155020
H281  H     H_    0.795790 0.641418 0.617759 0.127538
H282  H     H_    0.735804 0.531120 0.611162 0.144359
H283  H     H_    0.702375 0.595169 0.624801 0.213878
H284  H     H_    0.738171 0.631193 0.527653 0.150939
H285  H     H_    0.697650 0.570611 0.518073 0.143141
H286  H     H_    0.770864 0.566113 0.514157 0.143954
H287  H     H_    0.523199 0.217040 0.280185 0.197138
H288  H     H_    0.577349 0.239650 0.234295 0.094515
H289  H     H_    0.537436 0.291970 0.351599 0.156789
H290  H     H_    0.162818 0.846951 0.682738 0.105903
H291  H     H_    0.598795 0.312365 0.313657 0.233560
H292  H     H_    0.484964 0.311639 0.255283 0.178562
H293  H     H_    0.547270 0.336494 0.222841 0.139939
H294  H     H_    0.518062 0.370755 0.286600 0.136096
H295  H     H_    0.458740 0.803849 0.639340 0.160855
H296  H     H_    0.388374 0.820027 0.632271 0.111545
H297  H     H_    0.437959 0.703790 0.637759 0.169819
H298  H     H_    0.366664 0.719243 0.629092 0.233298
H299  H     H_    0.384964 0.768181 0.534418 0.141535
H300  H     H_    0.409095 0.698755 0.531339 0.153058
H301  H     H_    0.220341 0.892492 0.685826 0.124899
H302  H     H_    0.456758 0.753943 0.541257 0.147982
H303  H     H_    0.844174 0.611670 0.379375 0.135576
H304  H     H_    0.829458 0.676695 0.414477 0.173141
H305  H     H_    0.939349 0.615663 0.419242 0.183252
H306  H     H_    0.923847 0.679510 0.455217 0.165279
H307  H     H_    0.851068 0.633675 0.515504 0.126579
H308  H     H_    0.916891 0.602573 0.526715 0.154587
H309  H     H_    0.867460 0.569312 0.479789 0.156794
H310  H     H_    0.144439 0.370824 0.616116 0.124096
H311  H     H_    0.215099 0.352462 0.601997 0.166660
H312  H     H_    0.171350 0.950890 0.758935 0.172472
H313  H     H_    0.167095 0.468245 0.591774 0.203764
H314  H     H_    0.236236 0.447854 0.575514 0.158147
H315  H     H_    0.203450 0.386796 0.494495 0.143940
H316  H     H_    0.181303 0.456064 0.482826 0.158065
H317  H     H_    0.133645 0.406145 0.510552 0.156374
H318  H     H_    0.133769 0.943318 0.690106 0.081047
H319  H     H_    0.212839 0.247511 0.008847 0.107164
H320  H     H_    0.113199 0.905883 0.755845 0.144978
H321  H     H_    0.742731 0.225535 0.911955 0.132688
H322  H     H_    0.724109 0.280887 0.864901 0.096244
H323  H     H_    0.798652 0.337836 0.911686 0.170884
H324  H     H_    0.750638 0.313038 0.966012 0.079841
H325  H     H_    0.816362 0.280525 0.958829 0.157679
H326  H     H_    0.179530 0.849212 0.308216 0.115895
H327  H     H_    0.144738 0.789316 0.334837 0.101456
H328  H     H_    0.058206 0.821835 0.290929 0.178137
H329  H     H_    0.086495 0.871733 0.341408 0.079444
H330  H     H_    0.247153 0.198772 0.056325 0.140304
H331  H     H_    0.091866 0.881540 0.261598 0.150933
H332  H     H_    0.690954 0.723598 0.877434 0.095728
H333  H     H_    0.673910 0.789473 0.908602 0.160613
H334  H     H_    0.757461 0.784631 0.972514 0.161757
H335  H     H_    0.711003 0.728954 0.986003 0.104800
H336  H     H_    0.771995 0.717782 0.942477 0.139254
H337  H     H_    0.196162 0.166233 0.336405 0.103483
H338  H     H_    0.212847 0.098514 0.309237 0.153555
H339  H     H_    0.119777 0.092614 0.263436 0.151250
H340  H     H_    0.118189 0.101407 0.343506 0.087567
H341  H     H_    0.828202 0.826851 0.705066 0.106635
H342  H     H_    0.103518 0.158435 0.295185 0.138315
H343  H     H_    0.234571 0.746664 0.914858 0.108263
H344  H     H_    0.190662 0.692217 0.893188 0.126885
H345  H     H_    0.109075 0.751986 0.921022 0.193874
H346  H     H_    0.152865 0.734863 0.981875 0.083300
H347  H     H_    0.156472 0.802101 0.948355 0.133402
H348  H     H_    0.821134 0.185953 0.316990 0.103868
H349  H     H_    0.891667 0.203367 0.300755 0.145740
H350  H     H_    0.901409 0.117721 0.242326 0.152703
H351  H     H_    0.880405 0.104353 0.318330 0.082866
H352  H     H_    0.895539 0.801283 0.723208 0.139027
H353  H     H_    0.831191 0.100598 0.258485 0.139355
H354  H     H_    0.320144 0.302692 0.842143 0.106421
H355  H     H_    0.357313 0.249041 0.880312 0.155856
H356  H     H_    0.302350 0.261865 0.970196 0.151830
H357  H     H_    0.331006 0.326167 0.947205 0.084625
H358  H     H_    0.259972 0.312023 0.932749 0.142580
H359  H     H_    0.833765 0.808728 0.193384 0.102265
H360  H     H_    0.799634 0.872981 0.177809 0.125777
H361  H     H_    0.812665 0.857246 0.068933 0.154090
H362  H     H_    0.876771 0.856953 0.108673 0.084860
H363  H     H_    0.903230 0.876218 0.800452 0.145406
H364  H     H_    0.846682 0.793416 0.084879 0.148932
H365  H     H_    0.776398 0.809044 0.622564 0.095714
H366  H     H_    0.710523 0.826081 0.591390 0.160612
H367  H     H_    0.715374 0.742519 0.527491 0.161773
H368  H     H_    0.771045 0.788983 0.513996 0.104810
H369  H     H_    0.782225 0.727997 0.557532 0.139270
H370  H     H_    0.333763 0.303838 0.163595 0.103484
H371  H     H_    0.401483 0.287154 0.190759 0.153551
H372  H     H_    0.407383 0.380226 0.236560 0.151251
H373  H     H_    0.398587 0.381813 0.156490 0.087565
H374  H     H_    0.895727 0.900808 0.724868 0.091828
H375  H     H_    0.341561 0.396482 0.204814 0.138313
H376  H     H_    0.753346 0.265421 0.585140 0.108264
H377  H     H_    0.807793 0.309326 0.606814 0.126876
H378  H     H_    0.748036 0.390917 0.578969 0.193878
H379  H     H_    0.765155 0.347122 0.518120 0.083300
H380  H     H_    0.697915 0.343525 0.551638 0.133405
H381  H     H_    0.314050 0.678847 0.183020 0.103856
H382  H     H_    0.296633 0.608317 0.199271 0.145753
H383  H     H_    0.382277 0.598585 0.257707 0.152700
H384  H     H_    0.395648 0.619573 0.181698 0.082866
O1    O     O_3   0.000000 0.500000 0.250000 -0.448315
O2    O     O_R   0.000000 0.454540 0.882020 -0.541906
O3    O     O_3   0.680313 0.881412 0.152596 -0.540959
O4    O     O_3   0.621841 0.824353 0.649925 -0.553877
O5    O     O_3   0.417724 0.216628 0.280823 -0.572861
O6    O     O_3   0.799200 0.402396 0.675282 -0.546848
O7    O     O_3   0.215318 0.585167 0.290643 -0.554873
O8    O     O_3   0.361714 0.160028 0.642426 -0.543550
O9    O     O_3   0.618586 0.819691 0.347408 -0.540949
O10   O     O_3   0.188977 0.610951 0.659240 -0.535083
O11   O     O_3   0.782866 0.422181 0.266615 -0.541557
O12   O     O_3   0.387919 0.814684 0.344477 -0.534451
O13   O     O_R   0.545460 0.000000 0.117980 -0.553532
O14   O     O_3   0.582059 0.215135 0.710122 -0.541443
O15   O     O_3   0.197522 0.397548 0.329802 -0.547446
O16   O     O_3   0.789867 0.589412 0.694327 -0.561874
O17   O     O_3   0.597851 0.204510 0.319290 -0.544250
O18   O     O_3   0.414592 0.783610 0.713849 -0.541653
O19   O     O_3   0.885715 0.679302 0.344973 -0.558597
O20   O     O_3   0.201109 0.402043 0.676239 -0.553634
O21   O     O_R   0.454540 0.000000 0.882020 -0.546460
O22   O     O_R   0.500000 0.954540 0.617980 -0.545252
O23   O     O_R   0.500000 0.045460 0.382020 -0.539250
O24   O     O_R   0.954540 0.500000 0.617980 -0.543475
O25   O     O_R   0.045460 0.500000 0.382020 -0.541152
O26   O     O_R   0.500000 0.045460 0.617980 -0.546462
O27   O     O_R   0.500000 0.954540 0.382020 -0.553533
O28   O     O_R   0.045460 0.500000 0.617980 -0.541913
O29   O     O_3   0.000000 0.500000 0.750000 -0.455751
O30   O     O_R   0.954540 0.500000 0.382020 -0.551791
O31   O     O_R   0.063990 0.609470 0.215390 -0.524274
O32   O     O_R   0.936010 0.390530 0.784610 -0.509151
O33   O     O_R   0.609470 0.936010 0.215390 -0.518594
O34   O     O_R   0.390530 0.063990 0.784610 -0.530773
O35   O     O_R   0.936010 0.390530 0.215390 -0.530998
O36   O     O_R   0.063990 0.609470 0.784610 -0.511849
O37   O     O_R   0.390530 0.063990 0.215390 -0.529268
O38   O     O_R   0.609470 0.936010 0.784610 -0.509868
O39   O     O_R   0.936010 0.609470 0.784610 -0.521952
O40   O     O_3   0.500000 0.000000 0.250000 -0.451917
O41   O     O_R   0.063990 0.390530 0.215390 -0.506194
O42   O     O_R   0.390530 0.936010 0.784610 -0.530591
O43   O     O_R   0.609470 0.063990 0.215390 -0.512456
O44   O     O_R   0.063990 0.390530 0.784610 -0.511387
O45   O     O_R   0.936010 0.609470 0.215390 -0.549197
O46   O     O_R   0.609470 0.063990 0.784610 -0.529144
O47   O     O_R   0.390530 0.936010 0.215390 -0.511930
O48   O     O_R   0.563990 0.109470 0.715390 -0.530590
O49   O     O_R   0.436010 0.890530 0.284610 -0.512458
O50   O     O_R   0.109470 0.436010 0.715390 -0.511389
O51   O     O_3   0.500000 0.000000 0.750000 -0.449512
O52   O     O_R   0.890530 0.563990 0.284610 -0.549274
O53   O     O_R   0.436010 0.890530 0.715390 -0.529144
O54   O     O_R   0.563990 0.109470 0.284610 -0.511926
O55   O     O_R   0.890530 0.563990 0.715390 -0.521976
O56   O     O_R   0.109470 0.436010 0.284610 -0.506198
O57   O     O_R   0.436010 0.109470 0.284610 -0.529269
O58   O     O_R   0.563990 0.890530 0.715390 -0.509869
O59   O     O_R   0.890530 0.436010 0.284610 -0.524296
O60   O     O_R   0.109470 0.563990 0.715390 -0.509151
O61   O     O_R   0.563990 0.890530 0.284610 -0.518592
O62   O     O_R   0.000000 0.454540 0.117980 -0.541145
O63   O     O_R   0.436010 0.109470 0.715390 -0.530776
O64   O     O_R   0.109470 0.563990 0.284610 -0.530999
O65   O     O_R   0.890530 0.436010 0.715390 -0.511845
O66   O     O_3   0.194263 0.236922 0.156328 -0.530216
O67   O     O_3   0.836448 0.793087 0.789793 -0.514973
O68   O     O_3   0.237169 0.806811 0.159276 -0.515421
O69   O     O_3   0.795662 0.162445 0.764130 -0.517034
O70   O     O_3   0.740011 0.693377 0.154554 -0.508580
O71   O     O_3   0.170753 0.212676 0.808788 -0.535740
O72   O     O_3   0.755121 0.199711 0.147828 -0.525154
O73   O     O_R   0.000000 0.545460 0.882020 -0.543474
O74   O     O_3   0.202089 0.846072 0.763964 -0.521788
O75   O     O_3   0.800491 0.242760 0.848716 -0.526077
O76   O     O_3   0.155347 0.798089 0.240548 -0.520350
O77   O     O_3   0.743875 0.786770 0.855262 -0.515154
O78   O     O_3   0.202570 0.158436 0.243922 -0.521306
O79   O     O_3   0.188586 0.765556 0.841199 -0.525219
O80   O     O_3   0.838775 0.204788 0.228120 -0.514829
O81   O     O_3   0.276455 0.231499 0.857884 -0.524037
O82   O     O_3   0.758482 0.802011 0.151944 -0.504536
O83   O     O_3   0.713228 0.756121 0.644738 -0.515148
O84   O     O_R   0.454540 0.000000 0.117980 -0.539249
O85   O     O_3   0.341565 0.297430 0.256077 -0.521303
O86   O     O_3   0.734450 0.311409 0.658796 -0.525222
O87   O     O_3   0.295212 0.661224 0.271892 -0.514830
O88   O     O_3   0.268503 0.223551 0.642122 -0.524032
O89   O     O_3   0.697974 0.741511 0.348059 -0.504534
O90   O     O_3   0.257241 0.699507 0.651286 -0.526075
O91   O     O_3   0.701910 0.344655 0.259448 -0.520347
O92   O     O_3   0.300288 0.744882 0.352177 -0.525147
O93   O     O_3   0.653930 0.297910 0.736031 -0.521797
O94   O     O_3   0.263079 0.305737 0.343671 -0.530214
O95   O     O_R   0.545460 0.000000 0.882020 -0.545253
O96   O     O_3   0.706913 0.663554 0.710209 -0.514977
O97   O     O_3   0.693185 0.262834 0.340724 -0.515430
O98   O     O_3   0.337554 0.704339 0.735872 -0.517031
O99   O     O_3   0.806608 0.759979 0.345455 -0.508537
O100  O     O_3   0.287326 0.329252 0.691216 -0.535729
O101  O     O_3   0.102452 0.302477 0.170199 -0.547445
O102  O     O_3   0.910586 0.710130 0.805679 -0.561867
O103  O     O_3   0.295492 0.902144 0.180704 -0.544230
O104  O     O_3   0.716390 0.085407 0.786152 -0.541652
O105  O     O_3   0.820704 0.614280 0.155034 -0.558622
O106  O     O_R   0.000000 0.545460 0.117980 -0.551828
O107  O     O_3   0.097959 0.298892 0.823762 -0.553639
O108  O     O_3   0.685321 0.112079 0.155528 -0.534450
O109  O     O_3   0.284865 0.917942 0.789874 -0.541440
O110  O     O_3   0.889046 0.311026 0.840764 -0.535083
O111  O     O_3   0.077822 0.717132 0.233370 -0.541548
O112  O     O_3   0.675646 0.878158 0.850075 -0.553877
O113  O     O_3   0.283372 0.082277 0.219174 -0.572860
O114  O     O_3   0.097600 0.700804 0.824713 -0.546845
O115  O     O_3   0.914833 0.284680 0.209364 -0.554863
O116  O     O_3   0.339975 0.138285 0.857576 -0.543564
Zn1   Zn    Zn3+2 0.064970 0.500000 0.299470 0.942422
Zn2   Zn    Zn3+2 0.435030 1.000000 0.200530 0.936990
Zn3   Zn    Zn3+2 0.000000 0.435030 0.799470 0.937764
Zn4   Zn    Zn3+2 0.000000 0.564970 0.200530 0.933038
Zn5   Zn    Zn3+2 0.435030 1.000000 0.799470 0.934559
Zn6   Zn    Zn3+2 0.564970 1.000000 0.200530 0.926134
Zn7   Zn    Zn3+2 0.000000 0.564970 0.799470 0.932246
Zn8   Zn    Zn3+2 0.000000 0.435030 0.200530 0.942415
Zn9   Zn    Zn3+2 0.935030 0.500000 0.700530 0.932233
Zn10  Zn    Zn3+2 0.500000 0.935030 0.299470 0.926136
Zn11  Zn    Zn3+2 0.500000 0.064970 0.700530 0.934558
Zn12  Zn    Zn3+2 0.935030 0.500000 0.299470 0.933027
Zn13  Zn    Zn3+2 0.064970 0.500000 0.700530 0.937759
Zn14  Zn    Zn3+2 0.500000 0.064970 0.299470 0.936989
Zn15  Zn    Zn3+2 0.500000 0.935030 0.700530 0.941719
Zn16  Zn    Zn3+2 0.564970 1.000000 0.799470 0.941717

loop_
_geom_bond_atom_site_label_1
_geom_bond_atom_site_label_2
_ccdc_geom_bond_type
O60   Zn13  S    
C144  H162  S    
C181  H245  S    
C132  H132  S    
C242  O75   S    
C118  H98   S    
C44   H157  S    
C101  C113  T    
O57   Zn14  S    
C7    C259  A    
C131  H131  S    
C105  H70   S    
C114  C115  S    
C43   O70   S    
C170  H220  S    
C223  C278  S    
C108  H77   S    
C154  H185  S    
C117  H95   S    
C149  H172  S    
C230  O52   A    
C11   O16   S    
C126  C127  S    
C218  O33   A    
C128  H121  S    
C175  O9    S    
C178  H241  S    
C217  O32   A    
C13   C112  S    
C116  H93   S    
C164  H206  S    
C84   H17   S    
C53   H325  S    
C116  O104  S    
C82   H12   S    
C147  H165  S    
C174  H230  S    
C193  H274  S    
C172  H226  S    
C143  C144  S    
C30   C282  A    
C187  H263  S    
C108  C109  S    
C100  H60   S    
C283  O115  S    
C103  O100  S    
O51   Zn15  S    
C182  C183  S    
C79   C90   T    
C158  H192  S    
C95   H44   S    
C66   H358  S    
C23   C275  A    
C80   H8    S    
C1    C233  A    
C182  H250  S    
O34   Zn5   S    
C273  O105  S    
C148  H167  S    
C139  H148  S    
C48   H246  S    
C167  H214  S    
C128  H123  S    
O1    Zn12  S    
C51   H320  S    
C121  H107  S    
C100  O99   S    
C122  H108  S    
C59   C60   S    
C215  O25   A    
C61   H344  S    
C74   H376  S    
C221  O60   A    
C2    C254  A    
C171  H222  S    
C93   H39   S    
C98   H53   S    
C108  H78   S    
C198  H287  S    
O28   Zn13  S    
C45   C47   S    
C69   H361  S    
C29   C222  S    
O40   Zn6   S    
C202  C203  S    
C3    O7    S    
C140  C141  S    
C17   C269  A    
C41   H79   S    
C243  C279  A    
C146  C157  T    
C206  C207  S    
C196  C197  S    
C19   C271  A    
C165  H210  S    
C122  H109  S    
C201  O95   A    
C194  H276  S    
C55   H328  S    
C134  H137  S    
C10   C262  A    
C74   H377  S    
C61   O79   S    
C31   C283  A    
C43   C44   S    
C37   C38   S    
C288  O6    S    
C70   O83   S    
O29   Zn3   S    
C175  C176  S    
C158  H193  S    
C286  O4    S    
O2    Zn3   S    
C64   H351  S    
O39   Zn7   S    
C177  H238  S    
C104  H69   S    
C253  C278  A    
C251  C286  A    
C91   H36   S    
C253  O86   S    
C14   O18   S    
C42   H101  S    
O62   Zn8   S    
C6    C30   A    
C194  H277  S    
C202  H296  S    
C256  C264  A    
C172  O8    S    
C241  O74   S    
C284  O116  S    
C131  H129  S    
C60   H342  S    
C57   C249  A    
C62   H346  S    
C218  O61   A    
C31   C220  S    
C105  C106  S    
C159  H194  S    
C67   C69   S    
C264  O97   S    
C219  O34   A    
C70   H365  S    
C87   H27   S    
O49   Zn10  S    
C270  O102  S    
C124  C135  T    
C200  H293  S    
C173  H229  S    
C222  O57   A    
C136  H140  S    
C81   O89   S    
C72   C73   S    
O25   Zn1   S    
C164  H208  S    
C84   H19   S    
C27   C279  A    
C139  C140  S    
C181  H248  S    
O13   Zn6   S    
C83   H15   S    
C196  H283  S    
C112  C235  A    
C268  O100  S    
C187  H261  S    
C109  H81   S    
C124  C201  S    
O26   Zn11  S    
C151  H175  S    
C81   H10   S    
C156  C158  S    
C130  C131  S    
C152  H180  S    
C196  H282  S    
C192  O15   S    
C36   H319  S    
C21   C230  S    
C153  H182  S    
C148  H169  S    
C145  O114  S    
C183  H252  S    
O31   Zn4   S    
C51   H318  S    
C46   C248  A    
C195  C196  S    
C171  H225  S    
C210  H316  S    
C98   C99   S    
C106  C107  S    
C109  H80   S    
C155  C156  S    
C282  O114  S    
C226  O56   A    
C159  O4    S    
C188  C189  S    
C60   H339  S    
C208  H310  S    
C189  H266  S    
C97   H51   S    
C35   C267  S    
C186  C187  S    
C149  C150  S    
C38   H374  S    
C160  H196  S    
O42   Zn5   S    
C217  O65   A    
C156  H189  S    
C129  O109  S    
C169  H218  S    
C11   C18   A    
C190  O84   A    
O33   Zn6   S    
C249  C284  A    
C7    O11   S    
C127  H120  S    
O56   Zn1   S    
C147  C148  S    
C240  O72   S    
C222  O37   A    
C209  H313  S    
C119  H100  S    
C135  C190  S    
C210  H317  S    
C85   C86   S    
C53   H323  S    
C247  O79   S    
C58   H336  S    
C188  H265  S    
C169  O7    S    
C241  C276  A    
C34   O66   S    
C89   H32   S    
C25   C276  A    
C138  H144  S    
C230  O45   A    
C40   H46   S    
C141  H153  S    
C170  C171  S    
O64   Zn1   S    
C119  O105  S    
C177  H240  S    
C177  H239  S    
C42   H90   S    
C246  C281  A    
C12   C264  A    
C189  C191  S    
C91   H34   S    
C136  H141  S    
C152  H178  S    
C115  H92   S    
C166  H213  S    
C185  H258  S    
C5    C33   A    
C213  O27   A    
C216  O31   A    
C241  C267  A    
C108  O102  S    
O22   Zn15  S    
C89   C91   S    
C238  C273  A    
C142  H156  S    
C206  H306  S    
C220  O35   A    
C28   C286  A    
C137  H142  S    
C20   C231  S    
C83   H16   S    
C88   H30   S    
C175  H233  S    
C166  C167  S    
C94   C95   S    
C167  H215  S    
C208  O20   S    
C123  H110  S    
C129  H125  S    
C212  C236  A    
C86   H23   S    
C13   C251  A    
C228  O43   A    
C145  H163  S    
C8    C19   A    
C195  H280  S    
C174  H232  S    
C161  H198  S    
C162  H202  S    
C54   H327  S    
C59   O78   S    
O51   Zn11  S    
C102  H62   S    
C223  C237  A    
C232  O47   A    
C101  C213  S    
C39   C40   S    
C107  H75   S    
C160  H197  S    
C208  C209  S    
C78   H5    S    
C269  O101  S    
C25   C227  S    
C114  H88   S    
C4    O8    S    
C275  O108  S    
C8    C260  A    
C216  O64   A    
C211  O26   A    
O21   Zn5   S    
C184  H253  S    
C18   C225  S    
C263  O96   S    
C103  H65   S    
C162  O5    S    
C49   H257  S    
C83   C84   S    
C206  H305  S    
C28   C224  S    
C186  H260  S    
C5    C257  A    
C209  C210  S    
C203  H297  S    
C213  O23   A    
C45   H179  S    
C132  H133  S    
C207  H307  S    
C265  C267  A    
C279  O111  S    
C63   H349  S    
C99   H55   S    
C111  H86   S    
O29   Zn13  S    
C45   H190  S    
C29   C281  A    
C259  O91   S    
C193  C194  S    
C180  H243  S    
O40   Zn2   S    
C125  H114  S    
C258  O90   S    
C274  O107  S    
C126  H117  S    
C257  O89   S    
O37   Zn2   S    
C41   H68   S    
C18   C270  A    
C52   C53   S    
C262  O94   S    
C86   H25   S    
C129  C130  S    
C68   C250  A    
C54   C55   S    
C176  C177  S    
C281  O113  S    
C163  H204  S    
C73   H373  S    
C58   H334  S    
O23   Zn14  S    
C168  O62   A    
C136  C137  S    
C21   C273  A    
C197  H286  S    
C122  C123  S    
O54   Zn14  S    
C159  H195  S    
C151  H176  S    
C201  O21   A    
O58   Zn15  S    
C64   H350  S    
C139  H149  S    
C240  C275  A    
C128  H122  S    
C120  H103  S    
C3    C27   A    
C67   H360  S    
O50   Zn13  S    
C116  H94   S    
C233  O66   S    
C84   H18   S    
C166  H211  S    
C47   H212  S    
C59   H338  S    
C175  H234  S    
C56   C58   S    
C136  O111  S    
C34   C36   S    
C26   C277  A    
C61   C62   S    
C36   H223  S    
O32   Zn3   S    
C92   H37   S    
C76   O87   S    
C16   O20   S    
C37   O67   S    
C144  H160  S    
C152  C153  S    
C104  H67   S    
C181  H247  S    
O40   Zn14  S    
C150  C151  S    
C144  H161  S    
C48   H235  S    
C82   H14   S    
C52   O75   S    
C130  H127  S    
C229  O44   A    
C121  H106  S    
C49   H268  S    
C87   C88   S    
C165  O6    S    
C15   O19   S    
C229  O50   A    
C61   H343  S    
C161  H200  S    
C41   C42   S    
C180  H244  S    
C54   O76   S    
C228  O54   A    
C171  H221  S    
C65   H354  S    
C98   H54   S    
C253  C288  A    
C198  H288  S    
C156  H188  S    
C23   C228  S    
C120  C121  S    
O24   Zn9   S    
C224  O58   A    
C149  O115  S    
C71   H367  S    
C184  H255  S    
O29   Zn9   S    
C134  H139  S    
C68   C257  A    
O27   Zn10  S    
C123  C125  S    
C13   C244  A    
C165  H209  S    
C261  O93   S    
C43   H124  S    
C110  H84   S    
C52   H321  S    
C157  C168  S    
C191  H270  S    
C234  C238  A    
C63   H348  S    
C56   H332  S    
C255  O88   S    
C151  H177  S    
C65   H355  S    
C199  H291  S    
C75   H380  S    
C107  H74   S    
C163  C164  S    
C150  H173  S    
C154  H183  S    
C125  H116  S    
O38   Zn16  S    
C122  O107  S    
C78   O88   S    
C28   C280  A    
C70   C71   S    
C118  H99   S    
C239  O71   S    
C19   C232  S    
C225  O39   A    
C14   C265  A    
C179  O73   A    
C34   H1    S    
C15   C266  A    
C251  O83   S    
C12   O17   S    
C194  H278  S    
C29   C287  A    
C118  H97   S    
C89   O93   S    
C133  H134  S    
C73   H375  S    
C26   C217  S    
C35   C258  A    
C126  O108  S    
C204  H300  S    
C105  H71   S    
O41   Zn8   S    
C46   C256  S    
C62   H347  S    
C145  C147  S    
C67   O82   S    
C54   H326  S    
C170  H219  S    
C30   C221  S    
C66   H356  S    
C87   O92   S    
C117  H96   S    
C76   H381  S    
C70   H366  S    
C271  O103  S    
C63   C64   S    
C200  H294  S    
C78   H4    S    
C24   C252  A    
C113  C211  S    
C214  O28   A    
C123  H111  S    
C252  O85   S    
C33   C218  S    
C82   H11   S    
O48   Zn11  S    
C85   H21   S    
C193  H275  S    
C143  H158  S    
C173  C174  S    
C42   H113  S    
C65   O81   S    
C276  O109  S    
C212  C260  A    
C236  C271  A    
C195  H281  S    
C100  H59   S    
C55   H331  S    
C1    C262  A    
C235  C270  A    
C235  O67   S    
C57   C255  A    
O51   Zn16  S    
C26   C288  A    
C158  H191  S    
C66   H357  S    
C93   H41   S    
C285  O3    S    
C9    C20   A    
C159  C160  S    
C246  O78   S    
C182  H249  S    
O84   Zn2   S    
C50   C51   S    
C148  H170  S    
C9    O14   S    
C46   C259  A    
C183  H251  S    
C50   H290  S    
C142  O113  S    
C111  O103  S    
C68   C234  S    
C280  O112  S    
C85   H20   S    
C48   C49   S    
C41   O69   S    
C85   O91   S    
C134  H138  S    
C133  C134  S    
C60   H340  S    
C97   H50   S    
C127  C128  S    
C252  C287  A    
C56   H333  S    
C223  C261  A    
C93   H40   S    
C231  O48   A    
C155  H186  S    
C162  C163  S    
C6    O10   S    
C169  H217  S    
C69   H362  S    
C149  H171  S    
C16   C22   A    
C127  H119  S    
C266  O99   S    
C244  O77   S    
C211  O22   A    
C106  H72   S    
C147  H166  S    
O1    Zn4   S    
C168  O106  A    
C51   H312  S    
C178  C180  S    
C119  C120  S    
C247  C282  A    
C72   H371  S    
C238  O70   S    
C139  O112  S    
C110  H82   S    
C2    C212  S    
C163  H205  S    
C195  O16   S    
C6    C258  A    
C155  O3    S    
C89   H31   S    
C3    C254  A    
C178  O10   S    
C141  H152  S    
C49   H279  S    
C109  C110  S    
C192  C193  S    
C132  O110  S    
C192  H273  S    
C75   H378  S    
C178  H242  S    
C185  C186  S    
C22   C229  S    
C237  O69   S    
C74   O86   S    
C138  H147  S    
O29   Zn7   S    
C92   C93   S    
C250  C285  A    
C146  C179  S    
C111  C114  S    
C78   C80   S    
C14   C25   A    
O61   Zn10  S    
C91   H33   S    
C119  H102  S    
C115  H91   S    
C112  C263  A    
C48   O72   S    
C202  H295  S    
C260  O92   S    
C173  H228  S    
C105  O101  S    
C133  H136  S    
C44   H146  S    
C103  C104  S    
C142  C143  S    
C96   H49   S    
C45   O71   S    
C131  H130  S    
C32   C284  A    
C248  C283  A    
C140  H150  S    
C180  C181  S    
C22   C274  A    
C92   O94   S    
C203  C204  S    
C198  O17   S    
C104  H66   S    
C165  C166  S    
C94   H42   S    
C117  C118  S    
C169  C170  S    
C24   C246  A    
C39   H24   S    
C88   H28   S    
C183  C184  S    
O36   Zn7   S    
C164  H207  S    
C81   C82   S    
O52   Zn12  S    
O1    Zn8   S    
O59   Zn12  S    
C205  C206  S    
C172  H227  S    
C150  H174  S    
C188  H264  S    
C187  H262  S    
C90   C214  S    
C162  H203  S    
C55   H329  S    
C102  H63   S    
C44   H168  S    
C64   H353  S    
C94   O96   S    
C205  H303  S    
C95   H47   S    
O53   Zn15  S    
C234  C266  A    
C10   C17   A    
C244  C280  A    
O40   Zn10  S    
C116  C117  S    
C50   O74   S    
C95   H45   S    
C225  O55   A    
C240  C256  A    
C38   H2    S    
C184  H254  S    
C80   H7    S    
C77   H383  S    
C210  H315  S    
C204  H302  S    
C96   O97   S    
C9    C261  A    
C277  O110  S    
C221  O36   A    
C38   H363  S    
C191  H271  S    
C198  C199  S    
O51   Zn5   S    
C97   H52   S    
C11   C263  A    
C103  H64   S    
C237  C272  A    
C188  O14   S    
C2    C243  A    
C20   C272  A    
C226  O41   A    
C99   H58   S    
C242  C277  A    
C98   O98   S    
C69   H364  S    
C79   C215  S    
C47   H224  S    
C250  O82   S    
C200  H292  S    
C249  O81   S    
C126  H118  S    
C205  O19   S    
O43   Zn6   S    
C209  H314  S    
C153  H181  S    
C53   H324  S    
C233  C269  A    
C96   H48   S    
C7    C31   A    
C74   C75   S    
C176  H236  S    
C73   H372  S    
C36   H330  S    
C58   H335  S    
C272  O104  S    
C56   O77   S    
C207  H309  S    
C76   C77   S    
C179  O2    A    
C57   C245  S    
C152  O116  S    
C197  H285  S    
C63   O80   S    
C143  H159  S    
C132  C133  S    
C12   C23   A    
C141  H154  S    
C77   H384  S    
O44   Zn3   S    
O106  Zn4   S    
C138  H145  S    
O55   Zn9   S    
O35   Zn8   S    
C47   H201  S    
O65   Zn9   S    
C72   O85   S    
C140  H151  S    
C67   H359  S    
O46   Zn16  S    
O95   Zn16  S    
C115  H89   S    
C81   H9    S    
C17   C226  S    
C59   H337  S    
C185  O12   S    
C96   C97   S    
C205  H304  S    
C100  C102  S    
C239  C245  A    
C204  H299  S    
C106  H73   S    
C4    C32   A    
C10   O15   S    
C214  O24   A    
C142  H155  S    
C197  H284  S    
C34   H112  S    
C39   O68   S    
C16   C268  A    
C232  O49   A    
C1    C24   S    
C92   H38   S    
C80   H6    S    
C243  O76   S    
O73   Zn7   S    
C137  H143  S    
C87   H26   S    
C43   H135  S    
O47   Zn2   S    
C83   O90   S    
C88   H29   S    
C62   H345  S    
O30   Zn12  S    
C199  H289  S    
C245  C268  A    
C192  H272  S    
C167  H216  S    
C50   H301  S    
C172  C173  S    
C130  H128  S    
C121  H105  S    
C86   H22   S    
C189  H267  S    
C145  H164  S    
C5    O9    S    
C227  O53   A    
C71   H369  S    
C174  H231  S    
C161  H199  S    
C190  O13   A    
C185  H256  S    
C94   H43   S    
C287  O5    S    
C102  H61   S    
C33   C285  A    
C40   H35   S    
C77   H3    S    
C220  O59   A    
C107  H76   S    
C231  O46   A    
C155  H187  S    
C76   H382  S    
C40   H57   S    
C137  C138  S    
C35   C247  A    
C114  H87   S    
C202  O18   S    
C111  H85   S    
C39   H13   S    
C160  C161  S    
C37   H352  S    
C254  O87   S    
O1    Zn1   S    
C265  O98   S    
C27   C216  S    
C248  O80   S    
C215  O30   A    
C72   H370  S    
C186  H259  S    
O45   Zn4   S    
C52   H322  S    
C129  H126  S    
C203  H298  S    
C176  H237  S    
C191  H269  S    
C208  H311  S    
C199  C200  S    
C224  O38   A    
C227  O42   A    
C236  O68   S    
C207  H308  S    
C32   C219  S    
C99   H56   S    
C219  O63   A    
C75   H379  S    
C15   C21   A    
C37   H341  S    
O63   Zn11  S    
C154  H184  S    
C65   C66   S    
C125  H115  S    
C239  C274  A    
C110  H83   S    
C242  C278  A    
C71   H368  S    
C4    C255  A    
C153  C154  S    
C182  O11   S    
C8    O12   S    
C120  H104  S    
