data_mof_unit_63346.cif
_audit_creation_date              2012-12-10T17:17:16-0500
_audit_creation_method            fapswitch 2.2
_symmetry_space_group_name_H-M    P1
_symmetry_Int_Tables_number       1
_space_group_crystal_system       triclinic
_cell_length_a                    18.825606
_cell_length_b                    18.758095
_cell_length_c                    18.834443
_cell_angle_alpha                 109.389526
_cell_angle_beta                  109.532869
_cell_angle_gamma                 109.315822
_cell_volume                      5131.0254803

loop_
_atom_site_label
_atom_site_type_symbol
_atom_type_description
_atom_site_fract_x
_atom_site_fract_y
_atom_site_fract_z
_atom_type_partial_charge
C1    C     C_R   0.119367 0.119088 0.500574 0.780456
C2    C     C_R   0.273546 0.055544 0.715348 -0.080838
C3    C     C_R   0.185621 0.000036 0.685415 -0.108211
C4    C     C_R   0.163310 0.955095 0.727882 0.378368
C5    C     C_R   0.228106 0.959417 0.794846 -0.214416
C6    C     C_R   0.315841 0.016154 0.827329 -0.127815
C7    C     C_R   0.181789 0.177093 0.421473 0.052630
C8    C     C_R   0.249310 0.239388 0.422813 0.338944
C9    C     C_R   0.314525 0.316201 0.501386 -0.144853
C10   C     C_R   0.315496 0.330728 0.580239 0.139659
C11   C     C_R   0.255068 0.263090 0.581305 0.160579
C12   C     C_R   0.117545 0.998704 0.618506 0.850055
C13   C     C_R   0.186824 0.187039 0.501278 -0.111330
C14   C     C_R   0.752619 0.926964 0.239379 -0.213070
C15   C     C_R   0.687340 0.925254 0.175617 0.336721
C16   C     C_R   0.685721 0.002683 0.188195 -0.127431
C17   C     C_R   0.750743 0.082818 0.265156 0.127761
C18   C     C_R   0.820619 0.084910 0.326882 0.159605
C19   C     C_R   0.818408 0.005393 0.314936 -0.121330
C20   C     C_R   0.819072 0.736431 0.491808 0.382522
C21   C     C_R   0.753342 0.669907 0.489011 0.080291
C22   C     C_R   0.685485 0.681929 0.496555 -0.133458
C23   C     C_R   0.881383 0.880789 0.500144 0.930747
C24   C     C_R   0.680515 0.755877 0.501816 -0.197873
C25   C     C_R   0.743963 0.820769 0.502789 0.341151
C26   C     C_R   0.814488 0.812334 0.499262 -0.230334
C27   C     C_R   0.499658 0.881335 0.880927 0.836755
C28   C     C_R   0.381596 0.006279 0.886835 0.829211
C29   C     C_R   0.501692 0.118848 0.120723 0.837070
C30   C     C_R   0.618663 0.000276 0.119095 0.844113
C31   C     C_R   0.499762 0.618728 0.618829 0.893560
C32   C     C_R   0.381424 0.381517 0.500197 0.857750
C33   C     C_R   0.498539 0.379688 0.381471 0.792706
C34   C     C_R   0.883047 0.002136 0.381306 0.814853
C35   C     C_R   0.618649 0.617727 0.498967 0.837337
C36   C     C_R   0.579395 0.819391 0.824281 0.056478
C37   C     C_R   0.579178 0.757292 0.757360 0.341680
C38   C     C_R   0.499652 0.685636 0.685751 -0.256309
C39   C     C_R   0.420153 0.678056 0.677905 0.329537
C40   C     C_R   0.419700 0.745298 0.738773 0.046510
C41   C     C_R   0.499456 0.814522 0.813471 -0.123209
C42   C     C_R   0.509015 0.260022 0.186661 -0.184164
C43   C     C_R   0.505630 0.321982 0.248743 -0.206612
C44   C     C_R   0.496637 0.310160 0.315343 -0.043525
C45   C     C_R   0.298423 0.095296 0.669624 -0.266879
C46   C     C_R   0.489972 0.234485 0.319776 0.077493
C47   C     C_R   0.496093 0.173113 0.258036 0.364655
C48   C     C_R   0.503390 0.185234 0.190190 -0.141515
C49   C     C_R   0.384345 0.157989 0.705321 0.389672
C50   C     C_R   0.445173 0.189265 0.791623 0.044108
C51   C     C_R   0.419809 0.150723 0.838361 0.366354
C52   C     C_R   0.337931 0.073952 0.794682 0.003333
Cu1   Cu    Cu3+1 0.999980 0.061790 0.561790 1.052256
Cu2   Cu    Cu3+1 0.000020 0.938210 0.438210 1.051696
Cu3   Cu    Cu3+1 0.438200 0.938230 0.000040 1.088604
Cu4   Cu    Cu3+1 0.561800 0.061850 0.000040 1.028240
Cu5   Cu    Cu3+1 0.438190 0.500100 0.438300 1.086638
Cu6   Cu    Cu3+1 0.561810 0.500080 0.561880 1.044665
H1    H     H_    0.751851 0.866410 0.229926 0.200555
H2    H     H_    0.627038 0.763386 0.505774 0.199048
H3    H     H_    0.251550 0.077313 0.605482 0.178796
H4    H     H_    0.515053 0.270083 0.135134 0.224145
H5    H     H_    0.511092 0.380024 0.245444 0.168563
H6    H     H_    0.209428 0.918330 0.821749 0.204148
O1    O     O_R   0.090150 0.142360 0.552170 -0.597194
O2    O     O_R   0.552230 0.962090 0.909900 -0.591794
O3    O     O_R   0.357630 0.947820 0.909860 -0.602510
O4    O     O_R   0.462000 0.052220 0.909860 -0.545443
O5    O     O_R   0.447770 0.037990 0.090190 -0.533901
O6    O     O_R   0.552150 0.142390 0.090190 -0.567670
O7    O     O_R   0.538000 0.947860 0.090220 -0.514248
O8    O     O_R   0.642370 0.052260 0.090230 -0.601334
O9    O     O_R   0.447810 0.590260 0.538090 -0.543594
O10   O     O_R   0.552200 0.590240 0.642450 -0.549415
O11   O     O_R   0.357640 0.409920 0.447920 -0.524244
O12   O     O_R   0.090180 0.037990 0.447810 -0.584646
O13   O     O_R   0.462030 0.409900 0.552280 -0.588291
O14   O     O_R   0.447800 0.409940 0.357730 -0.558723
O15   O     O_R   0.552190 0.409920 0.462090 -0.598364
O16   O     O_R   0.537970 0.590270 0.447900 -0.594742
O17   O     O_R   0.642360 0.590260 0.552260 -0.557041
O18   O     O_R   0.090170 0.052200 0.642360 -0.574486
O19   O     O_R   0.090200 0.947840 0.538010 -0.557952
O20   O     O_R   0.909820 0.962010 0.552190 -0.525635
O21   O     O_R   0.909850 0.857640 0.447830 -0.547252
O22   O     O_R   0.909800 0.052160 0.461990 -0.561681
O23   O     O_R   0.909830 0.947800 0.357640 -0.597037
O24   O     O_R   0.447850 0.857690 0.909890 -0.561886
Cl1   Cl    Cl    0.054511 0.890946 0.697525 -0.532578
C53   C     C_3   0.263996 0.273287 0.667901 -0.733826
H7    H     H_    0.228772 0.306413 0.686517 0.234408
H8    H     H_    0.238973 0.210028 0.666058 0.225812
H9    H     H_    0.333047 0.311361 0.720019 0.243465
Cl2   Cl    Cl    0.609613 0.824554 0.079594 -0.582909
C54   C     C_3   0.744094 0.164842 0.283618 -0.752123
H10   H     H_    0.677490 0.151103 0.244050 0.226939
H11   H     H_    0.760453 0.200136 0.352209 0.243459
H12   H     H_    0.789130 0.207805 0.271090 0.232148
C55   C     C_3   0.898051 0.170984 0.403537 -0.771353
H13   H     H_    0.959379 0.169375 0.416292 0.213583
H14   H     H_    0.905582 0.226327 0.391575 0.232918
H15   H     H_    0.891155 0.184459 0.462153 0.255483
Cl3   Cl    Cl    0.909053 0.726226 0.490192 -0.524409
C56   C     C_3   0.753302 0.585561 0.475848 -0.688922
H16   H     H_    0.797696 0.575330 0.452512 0.267278
H17   H     H_    0.772466 0.584602 0.537868 0.253509
H18   H     H_    0.687497 0.529053 0.425728 0.185593
Cl4   Cl    Cl    0.729758 0.909562 0.504364 -0.535540
C57   C     C_3   0.664230 0.890008 0.907280 -0.647724
H19   H     H_    0.716950 0.873772 0.916989 0.268444
H20   H     H_    0.685732 0.952259 0.906434 0.239557
H21   H     H_    0.656090 0.899018 0.964811 0.220191
Cl5   Cl    Cl    0.678543 0.772534 0.760084 -0.562657
Cl6   Cl    Cl    0.320280 0.582808 0.593033 -0.599026
C58   C     C_3   0.333834 0.742550 0.721322 -0.665085
H22   H     H_    0.341429 0.806527 0.759921 0.200259
H23   H     H_    0.295288 0.723993 0.652478 0.258157
H24   H     H_    0.296414 0.694113 0.734691 0.256470
C59   C     C_3   0.473402 0.216143 0.386901 -0.630291
H25   H     H_    0.455591 0.260375 0.423019 0.225685
H26   H     H_    0.417757 0.149428 0.354345 0.269320
H27   H     H_    0.531995 0.221236 0.433993 0.246897
Cl7   Cl    Cl    0.498718 0.083395 0.268637 -0.577439
Cl8   Cl    Cl    0.411941 0.200944 0.642135 -0.622165
C60   C     C_3   0.535264 0.264499 0.832906 -0.666251
H28   H     H_    0.579385 0.279468 0.898598 0.255991
H29   H     H_    0.565180 0.248443 0.792528 0.250303
H30   H     H_    0.531442 0.323606 0.837731 0.245705
Cl9   Cl    Cl    0.476254 0.213752 0.953289 -0.629518
C61   C     C_3   0.103658 0.101710 0.335148 -0.671591
H31   H     H_    0.109107 0.041965 0.320207 0.254421
H32   H     H_    0.042677 0.090151 0.337026 0.192265
H33   H     H_    0.096505 0.114524 0.280530 0.267402
Cl10  Cl    Cl    0.255275 0.219392 0.326464 -0.599005
C62   C     C_3   0.379506 0.418283 0.662888 -0.721826
H34   H     H_    0.405644 0.471975 0.650067 0.225660
H35   H     H_    0.346960 0.437355 0.699155 0.235970
H36   H     H_    0.434438 0.414526 0.704544 0.249186

loop_
_geom_bond_atom_site_label_1
_geom_bond_atom_site_label_2
_ccdc_geom_bond_type
C62   H36   S    
Cu3   Cu4   S    
C54   H10   S    
C32   O11   A    
C56   H17   S    
C30   O7    A    
C35   O17   A    
C54   H12   S    
C43   H5    S    
C7    C8    A    
C20   Cl3   S    
Cu1   Cu2   S    
C22   C35   S    
Cu1   O20   S    
C5    C6    A    
C36   C37   A    
C28   O4    A    
C29   O6    A    
C57   H20   S    
C38   C39   A    
C33   O14   A    
C31   O9    A    
C40   C58   S    
C37   Cl5   S    
C16   C30   S    
C15   C16   A    
C35   O16   A    
Cu3   O3    S    
C18   C19   A    
C34   O22   A    
C23   C26   S    
Cu5   O9    S    
Cu3   O24   S    
Cu2   O19   S    
C7    C61   S    
C3    C12   S    
C9    C32   S    
C32   O13   A    
C21   C56   S    
C47   Cl7   S    
C6    C28   S    
C47   C48   A    
C42   C43   A    
C8    C9    A    
Cu4   O8    S    
C60   H30   S    
C1    O1    A    
Cu1   O22   S    
C17   C54   S    
Cu1   O1    S    
C9    C10   A    
C42   H4    S    
Cu6   O13   S    
C39   Cl6   S    
C21   C22   A    
C33   C44   S    
Cu5   O16   S    
C36   C41   A    
C15   Cl2   S    
C14   C19   A    
C56   H16   S    
C44   C46   A    
C17   C18   A    
C29   O5    A    
C59   H26   S    
C2    C45   A    
C51   Cl9   S    
C23   O20   A    
C29   C48   S    
C8    Cl10  S    
C51   C52   A    
C62   H34   S    
C28   O3    A    
C10   C62   S    
C57   H21   S    
C39   C40   A    
C16   C17   A    
C31   O10   A    
C58   H23   S    
C25   C26   A    
Cu4   O4    S    
C49   Cl8   S    
C5    H6    S    
Cu1   O18   S    
C61   H32   S    
C43   C44   A    
C37   C38   A    
C14   H1    S    
C27   C41   S    
C53   H8    S    
C55   H13   S    
C45   C49   A    
C24   H2    S    
C58   H24   S    
C50   C51   A    
C12   O18   A    
C50   C60   S    
C42   C48   A    
C24   C25   A    
Cu3   O5    S    
C2    C52   A    
Cu6   O15   S    
Cu2   O12   S    
C40   C41   A    
C55   H14   S    
Cu4   O6    S    
C60   H28   S    
C22   C24   A    
Cu6   O17   S    
C61   H33   S    
C1    C13   S    
C18   C55   S    
C3    C4    A    
Cu6   O10   S    
C53   H9    S    
C4    Cl1   S    
C59   H27   S    
C62   H35   S    
C46   C47   A    
C1    O12   A    
Cu5   O14   S    
C33   O15   A    
C4    C5    A    
C19   C34   S    
Cu2   O21   S    
C30   O8    A    
C59   H25   S    
C54   H11   S    
C31   C38   S    
Cu5   O11   S    
C2    C3    A    
C27   O2    A    
C57   H19   S    
C11   C13   A    
C11   C53   S    
C53   H7    S    
Cu2   O23   S    
C20   C26   A    
Cu4   O2    S    
C45   H3    S    
C46   C59   S    
C61   H31   S    
C34   O23   A    
C27   O24   A    
C10   C11   A    
C7    C13   A    
C55   H15   S    
C20   C21   A    
C12   O19   A    
C49   C50   A    
C23   O21   A    
C36   C57   S    
C60   H29   S    
C14   C15   A    
C6    C52   A    
Cu5   Cu6   S    
C56   H18   S    
Cu3   O7    S    
C58   H22   S    
C25   Cl4   S    
