data_mof_unit_57569.cif
_audit_creation_date              2013-03-05T16:21:21-0500
_audit_creation_method            fapswitch 2.2
_symmetry_space_group_name_H-M    P1
_symmetry_Int_Tables_number       1
_space_group_crystal_system       triclinic
_cell_length_a                    15.747706
_cell_length_b                    14.968706
_cell_length_c                    23.278963
_cell_angle_alpha                 89.502468
_cell_angle_beta                  90.306234
_cell_angle_gamma                 90.03765
_cell_volume                      5487.0956201

loop_
_atom_site_label
_atom_site_type_symbol
_atom_site_description
_atom_site_fract_x
_atom_site_fract_y
_atom_site_fract_z
_atom_type_partial_charge
O1    O     O_R   0.377210 0.574260 0.500060 -0.596868
O2    O     O_R   0.377210 0.425740 0.500060 -0.605036
C1    C     C_R   0.338000 0.499972 0.499796 0.929705
O3    O     O_R   0.500050 0.574250 0.416220 -0.605970
O4    O     O_R   0.500050 0.425750 0.416220 -0.551325
C2    C     C_R   0.500975 0.500319 0.389175 0.948649
Zn1   Zn    Zn3+2 0.500090 0.599130 0.500080 1.029337
Zn2   Zn    Zn3+2 0.500090 0.400870 0.500080 1.045324
O5    O     O_R   0.622930 0.574200 0.500060 -0.626977
O6    O     O_R   0.622930 0.425800 0.500060 -0.602653
O7    O     O_R   0.500100 0.574210 0.583900 -0.586184
O8    O     O_R   0.500100 0.425790 0.583900 -0.636187
C3    C     C_R   0.662201 0.500026 0.500400 0.940334
C4    C     C_R   0.499711 0.499567 0.611148 0.927187
C5    C     C_R   0.596997 0.550587 0.879778 0.525970
N1    N     N_R   0.551961 0.486209 0.851885 -0.355133
C6    C     C_R   0.514148 0.416781 0.880479 0.575648
C7    C     C_R   0.520665 0.409719 0.940713 -0.183101
C8    C     C_R   0.562370 0.479136 0.970386 -0.042370
C9    C     C_R   0.602364 0.549095 0.939614 0.009869
C10   C     C_R   0.484068 0.338074 0.972146 0.235148
C11   C     C_R   0.482725 0.340139 0.032425 0.227606
C12   C     C_R   0.520567 0.412201 0.062200 -0.188419
C13   C     C_R   0.562523 0.480266 0.030879 -0.038573
C14   C     C_R   0.603094 0.551147 0.059919 0.005089
C15   C     C_R   0.645297 0.618135 0.028754 -0.126342
C16   C     C_R   0.644959 0.617107 0.969149 -0.132374
C17   C     C_R   0.517883 0.419365 0.122443 0.601200
N2    N     N_R   0.555523 0.490085 0.149154 -0.340189
C18   C     C_R   0.598618 0.554598 0.119653 0.572286
O9    O     O_2   0.635379 0.616387 0.849541 -0.538115
O10   O     O_2   0.467872 0.357146 0.850480 -0.476413
O11   O     O_2   0.477158 0.357520 0.154557 -0.464140
O12   O     O_2   0.635683 0.622454 0.148256 -0.514666
H1    H     H_    0.677362 0.672555 0.050276 0.203889
H2    H     H_    0.676690 0.670819 0.946323 0.201826
C19   C     C_R   0.606588 0.462981 0.247545 0.061369
C20   C     C_R   0.590674 0.464000 0.306725 0.274514
C21   C     C_R   0.514284 0.500508 0.327427 -0.219605
C22   C     C_R   0.453451 0.538281 0.289622 -0.025646
C23   C     C_R   0.469285 0.536402 0.230237 0.330017
C24   C     C_R   0.545162 0.498870 0.209724 0.103341
C25   C     C_R   0.488979 0.560149 0.767884 -0.149072
H3    H     H_    0.459720 0.608008 0.796246 0.189394
C26   C     C_R   0.471509 0.562885 0.708908 0.281638
C27   C     C_R   0.508817 0.497628 0.673411 -0.158624
C28   C     C_R   0.561075 0.431003 0.697411 -0.261110
H4    H     H_    0.590802 0.381207 0.670659 0.172072
C29   C     C_R   0.577113 0.428850 0.755900 -0.079160
H5    H     H_    0.617055 0.376802 0.774049 0.161200
C30   C     C_R   0.540954 0.493057 0.791175 0.235194
C31   C     C_3   0.048974 0.591734 0.520014 -0.045489
C32   C     C_3   0.049522 0.427103 0.540098 -0.040399
C33   C     C_3   0.951201 0.431798 0.543391 -0.435671
C34   C     C_3   0.951107 0.594266 0.512733 -0.441008
H6    H     H_    0.922252 0.618367 0.553342 0.178127
H7    H     H_    0.931909 0.452564 0.587260 0.173085
H8    H     H_    0.060944 0.588693 0.567220 0.184799
H9    H     H_    0.074408 0.447204 0.583037 0.176383
H10   H     H_    0.921642 0.365303 0.535773 0.192253
H11   H     H_    0.930942 0.641985 0.478489 0.184006
C35   C     C_1   0.750920 0.500062 0.500230 -0.108735
C36   C     C_3   0.082654 0.499993 0.494936 0.128383
C37   C     C_3   0.917424 0.499423 0.498470 0.189257
C38   C     C_3   0.947790 0.469115 0.438271 -0.356100
C39   C     C_3   0.046183 0.482801 0.431102 0.317142
C40   C     C_1   0.826109 0.499885 0.499680 -0.047351
C41   C     C_1   0.174281 0.499948 0.496249 -0.141721
C42   C     C_1   0.249411 0.499906 0.497927 -0.147810
H12   H     H_    0.911416 0.505657 0.404404 0.198201
H13   H     H_    0.929574 0.397988 0.433642 0.183891
C43   C     C_3   0.397062 0.052466 0.491736 0.333361
C44   C     C_3   0.400612 0.943450 0.480104 0.219901
C45   C     C_3   0.541247 0.051604 0.544333 -0.545129
C46   C     C_3   0.528432 0.949382 0.549022 -0.480535
H14   H     H_    0.609732 0.067780 0.544238 0.197146
H15   H     H_    0.587469 0.916776 0.564728 0.204399
H16   H     H_    0.519549 0.083823 0.584481 0.201416
H17   H     H_    0.484345 0.936150 0.584352 0.221439
N3    N     N_1   0.498630 0.731150 0.498860 -0.083524
N4    N     N_1   0.498630 0.268850 0.498860 -0.068706
C47   C     C_3   0.494999 0.090229 0.489944 -0.083429
C48   C     C_3   0.497056 0.909611 0.490602 -0.014620
C49   C     C_3   0.563553 0.946616 0.441720 0.305724
C50   C     C_3   0.550057 0.057147 0.434955 0.258552
C51   C     C_1   0.498132 0.809044 0.495779 0.207450
C52   C     C_1   0.497030 0.191058 0.495535 0.191147
N5    N     N_R   0.449896 0.261313 0.943655 0.270705
O13   O     O_R   0.500466 0.206917 0.917137 -0.300525
O14   O     O_R   0.370107 0.240621 0.949280 -0.274214
N6    N     N_R   0.413492 0.628998 0.686588 0.209892
O15   O     O_R   0.357327 0.607625 0.647850 -0.401760
O16   O     O_R   0.408315 0.706859 0.710772 -0.376343
C53   C     C_3   0.080760 0.329314 0.533748 -0.402328
C54   C     C_3   0.068129 0.274101 0.588727 -0.851462
H18   H     H_    0.105075 0.303278 0.624764 0.268883
H19   H     H_    0.000044 0.271111 0.600650 0.262435
H20   H     H_    0.090899 0.204848 0.581803 0.257669
H21   H     H_    0.045671 0.295478 0.498589 0.228416
H22   H     H_    0.149877 0.328221 0.524580 0.230781
C55   C     C_3   0.093135 0.680785 0.500694 -0.396467
C56   C     C_3   0.096905 0.749098 0.549162 -0.849289
H23   H     H_    0.031958 0.763833 0.564854 0.264398
H24   H     H_    0.136405 0.723327 0.585344 0.272730
H25   H     H_    0.125909 0.812135 0.533092 0.257278
H26   H     H_    0.159246 0.669095 0.486489 0.235518
H27   H     H_    0.059278 0.714020 0.464670 0.218626
C57   C     C_3   0.060705 0.567045 0.391012 -0.424417
C58   C     C_3   0.043859 0.555345 0.326392 -0.799325
H28   H     H_    0.089867 0.509246 0.306383 0.273171
H29   H     H_    0.978126 0.531995 0.318167 0.259588
H30   H     H_    0.051228 0.621074 0.304466 0.267059
H31   H     H_    0.016977 0.621009 0.403088 0.211717
H32   H     H_    0.126700 0.591854 0.396169 0.204550
C59   C     C_3   0.093268 0.401304 0.401832 -0.350379
C60   C     C_3   0.040158 0.341263 0.362325 -0.816636
H33   H     H_    0.995489 0.380085 0.335063 0.269233
H34   H     H_    0.083100 0.303350 0.333757 0.278635
H35   H     H_    0.003921 0.291677 0.388114 0.243633
H36   H     H_    0.148250 0.426488 0.376837 0.216349
H37   H     H_    0.125823 0.357209 0.432555 0.200136
C61   C     C_3   0.332095 0.887454 0.516868 -0.366535
C62   C     C_3   0.339527 0.864280 0.581293 -0.851398
H38   H     H_    0.397816 0.825625 0.591284 0.277275
H39   H     H_    0.331665 0.920884 0.610509 0.267198
H40   H     H_    0.286209 0.818722 0.592449 0.271856
H41   H     H_    0.267923 0.913369 0.507192 0.228010
H42   H     H_    0.328410 0.818876 0.499466 0.246860
C63   C     C_3   0.359327 0.080545 0.552552 -0.383169
C64   C     C_3   0.262472 0.088848 0.559688 -0.755788
H43   H     H_    0.236095 0.141757 0.531080 0.288031
H44   H     H_    0.227811 0.026052 0.552682 0.258063
H45   H     H_    0.248874 0.109397 0.604447 0.231127
H46   H     H_    0.385345 0.041006 0.588210 0.200778
H47   H     H_    0.381487 0.148880 0.562861 0.200845
N7    N     N_R   0.444181 0.267073 0.062691 0.273571
O17   O     O_R   0.364833 0.271859 0.077627 -0.246497
O18   O     O_R   0.484654 0.191749 0.068234 -0.288677
N8    N     N_R   0.504689 0.086448 0.381675 0.255635
O19   O     O_R   0.516633 0.046908 0.332898 -0.241224
O20   O     O_R   0.478536 0.168746 0.377879 -0.305781
N9    N     N_R   0.554146 0.899678 0.385688 0.267452
O21   O     O_R   0.509763 0.826893 0.381008 -0.322406
O22   O     O_R   0.610602 0.913086 0.345833 -0.329555
C65   C     C_3   0.637888 0.111164 0.432726 -0.461081
C66   C     C_3   0.684748 0.112577 0.374900 -0.653927
H48   H     H_    0.696579 0.045415 0.357757 0.276872
H49   H     H_    0.648848 0.152163 0.342369 0.300014
H50   H     H_    0.747329 0.145712 0.380617 0.224235
H51   H     H_    0.627186 0.182952 0.440870 0.248142
H52   H     H_    0.683554 0.091956 0.466713 0.169409
C67   C     C_3   0.658779 0.923443 0.461107 -0.432584
C68   C     C_3   0.681820 0.824187 0.468212 -0.768602
H53   H     H_    0.661508 0.798227 0.510710 0.232781
H54   H     H_    0.654589 0.782842 0.433382 0.301623
H55   H     H_    0.751964 0.816601 0.466858 0.237879
H56   H     H_    0.703562 0.948507 0.428366 0.243086
H57   H     H_    0.679032 0.956906 0.500916 0.190349
N10   N     N_R   0.340573 0.098169 0.449337 0.266550
O23   O     O_R   0.268417 0.060693 0.436008 -0.343052
O24   O     O_R   0.343895 0.184598 0.443205 -0.349370
N11   N     N_R   0.376898 0.920972 0.419154 0.230285
O25   O     O_R   0.351227 0.840912 0.405728 -0.359542
O26   O     O_R   0.379523 0.978143 0.377068 -0.241066
C69   C     C_3   0.687824 0.421565 0.224908 -0.370330
C70   C     C_3   0.680984 0.319960 0.221963 -0.723224
H58   H     H_    0.667652 0.290757 0.264914 0.288791
H59   H     H_    0.629686 0.300302 0.191769 0.288421
H60   H     H_    0.741817 0.291966 0.206327 0.244795
H61   H     H_    0.703528 0.447388 0.181468 0.209416
H62   H     H_    0.742695 0.440071 0.252476 0.246820
N12   N     N_R   0.653953 0.431574 0.346278 0.194446
O27   O     O_R   0.647238 0.352144 0.368909 -0.388699
O28   O     O_R   0.717858 0.482183 0.360211 -0.440032
C71   C     C_3   0.372554 0.580656 0.312306 -0.300260
C72   C     C_3   0.307902 0.509976 0.330444 -0.815930
H63   H     H_    0.291931 0.465964 0.293790 0.307909
H64   H     H_    0.332547 0.468476 0.366540 0.244452
H65   H     H_    0.249145 0.543608 0.344765 0.235987
H66   H     H_    0.386971 0.624942 0.349043 0.240394
H67   H     H_    0.342468 0.625147 0.279731 0.259992
N13   N     N_R   0.407044 0.568863 0.189886 0.207656
O29   O     O_R   0.426542 0.631682 0.153312 -0.326671
O30   O     O_R   0.332743 0.531115 0.186815 -0.339257

loop_
_geom_bond_atom_site_label_1
_geom_bond_atom_site_label_2
_geom_bond_distance
_ccdc_geom_bond_type
C55   H27   1.106053 S    
C34   H6    1.113999 S    
C69   H62   1.110007 S    
C69   C70   1.526751 S    
C59   H37   1.094683 S    
N2    C24   1.427487 S    
C7    C10   1.416945 A    
N8    O20   1.301298 A    
C23   C24   1.408213 A    
C8    C9    1.413284 A    
N1    C30   1.425747 S    
C46   C48   1.566697 S    
C65   C66   1.538563 S    
C32   H9    1.115411 S    
C54   H20   1.110484 S    
C43   C63   1.598042 S    
C4    C27   1.455771 S    
C33   H10   1.113733 S    
C32   C33   1.552303 S    
C60   H33   1.106647 S    
Zn1   O7    1.983393 S    
C15   C16   1.387729 A    
C55   C56   1.530174 S    
C43   N10   1.487691 S    
C45   H14   1.105182 S    
C35   C40   1.184192 T    
C17   N2    1.365743 A    
C1    C42   1.395513 S    
C50   C65   1.602533 S    
N11   O25   1.304517 A    
C58   H29   1.108558 S    
N10   O23   1.304051 A    
C20   C21   1.410537 A    
O7    C4    1.280041 A    
C62   H39   1.098556 S    
C38   H12   1.112205 S    
C61   H41   1.104079 S    
C57   C58   1.537588 S    
C56   H25   1.110872 S    
C7    C8    1.412399 A    
C27   C28   1.403721 A    
C57   H32   1.109651 S    
C19   C24   1.408127 A    
O5    C3    1.271200 A    
N13   O29   1.300727 A    
N3    C51   1.167584 T    
C63   H47   1.108409 S    
C72   H65   1.107949 S    
C3    C35   1.397149 S    
C28   H4    1.083613 S    
C41   C42   1.183573 T    
C29   C30   1.393448 A    
C12   C13   1.413358 A    
N10   O24   1.301392 A    
C14   C18   1.394135 A    
C53   H22   1.110434 S    
C47   C52   1.516321 S    
C68   H54   1.108592 S    
N2    C18   1.362841 A    
C22   C71   1.522549 S    
C50   N8    1.490849 S    
C66   H49   1.110084 S    
C65   H51   1.105980 S    
C31   C34   1.550022 S    
C59   H36   1.109733 S    
C71   H67   1.109447 S    
N5    O13   1.301178 A    
C72   H64   1.109219 S    
C36   C39   1.612928 S    
C10   C11   1.404100 A    
C69   H61   1.108567 S    
C70   H59   1.109237 S    
C53   C54   1.531261 S    
C45   C47   1.563882 S    
O3    Zn1   1.990553 S    
N12   O28   1.300611 A    
N11   O26   1.296052 A    
C61   C62   1.540266 S    
C5    C9    1.395015 A    
C67   H57   1.102781 S    
C31   C55   1.566674 S    
C45   C46   1.546244 S    
C18   O12   1.350005 S    
Zn2   N4    1.976735 S    
C37   C40   1.438464 S    
C62   H38   1.107940 S    
C13   C14   1.413456 A    
C28   C29   1.383552 A    
C39   C59   1.588479 S    
C58   H30   1.110750 S    
N6    O15   1.301533 A    
N1    C6    1.367157 A    
C62   H40   1.111746 S    
C19   C69   1.520696 S    
C14   C15   1.401822 A    
C38   H13   1.108467 S    
C31   C36   1.589370 S    
C11   N7    1.432245 S    
O1    C1    1.271620 A    
C57   H31   1.101105 S    
C64   H44   1.099601 S    
C25   H3    1.083195 S    
C19   C20   1.401808 A    
N6    O16   1.301501 A    
C66   H50   1.110870 S    
C46   H15   1.109091 S    
C15   H1    1.083230 S    
C64   H43   1.109776 S    
C48   C49   1.642962 S    
C49   N9    1.493547 S    
Zn2   O8    1.989756 S    
C2    C21   1.453716 S    
C34   C37   1.553187 S    
C6    C7    1.408462 A    
C65   H52   1.102737 S    
C12   C17   1.408271 A    
C49   C50   1.674205 S    
C68   H55   1.111156 S    
C56   H24   1.110962 S    
C25   C26   1.399018 A    
N4    C52   1.167925 T    
C31   H8    1.114507 S    
C49   C67   1.601086 S    
N7    O18   1.300647 A    
C72   H63   1.110222 S    
N5    O14   1.300934 A    
C17   O11   1.348889 S    
C44   C61   1.611034 S    
C70   H58   1.108781 S    
N9    O22   1.302608 A    
C23   N13   1.435963 S    
O3    C2    1.278076 A    
C21   C22   1.412450 A    
N12   O27   1.300738 A    
C66   H48   1.101209 S    
C55   H26   1.108489 S    
Zn1   O5    1.970357 S    
C67   H56   1.104278 S    
C22   C23   1.406564 A    
C32   C53   1.553051 S    
O1    Zn1   1.970320 S    
O2    Zn2   1.970799 S    
C39   C57   1.579523 S    
C43   C44   1.657493 S    
O6    C3    1.271294 A    
O4    Zn2   1.984200 S    
N8    O19   1.299661 A    
C54   H19   1.109738 S    
C5    O9    1.350056 S    
C71   H66   1.109002 S    
C9    C16   1.401938 A    
C16   H2    1.083212 S    
C47   C50   1.630644 S    
C36   C41   1.443076 S    
C60   H35   1.110097 S    
C37   C38   1.554613 S    
C44   N11   1.506078 S    
C8    C13   1.408452 A    
C63   C64   1.540365 S    
C71   C72   1.526311 S    
C58   H28   1.108097 S    
C32   C36   1.597849 S    
C25   C30   1.399763 A    
O4    C2    1.276857 A    
C33   C37   1.541925 S    
C53   H21   1.110740 S    
C43   C47   1.642878 S    
C5    N1    1.363187 A    
C34   H11   1.110956 S    
C60   H34   1.110623 S    
O2    C1    1.271502 A    
C38   C39   1.572376 S    
C61   H42   1.108204 S    
C56   H23   1.110764 S    
C26   N6    1.439173 S    
N13   O30   1.300915 A    
C10   N5    1.434688 S    
C63   H46   1.093309 S    
C64   H45   1.110923 S    
C26   C27   1.414958 A    
O8    C4    1.278351 A    
C48   C51   1.509225 S    
C67   C68   1.536957 S    
C70   H60   1.110265 S    
Zn2   O6    1.969874 S    
C29   H5    1.083155 S    
C45   H16   1.110992 S    
C54   H18   1.110766 S    
N9    O21   1.299085 A    
C6    O10   1.349114 S    
C11   C12   1.416625 A    
N7    O17   1.300993 A    
C68   H53   1.108411 S    
C46   H17   1.095795 S    
C44   C48   1.617976 S    
C20   N12   1.435078 S    
C59   C60   1.535638 S    
Zn1   N3    1.976272 S    
C33   H7    1.113885 S    
