data_mof_unit_65604.cif
_audit_creation_date              2012-12-11T14:34:36-0500
_audit_creation_method            fapswitch 2.2
_symmetry_space_group_name_H-M    P1
_symmetry_Int_Tables_number       1
_space_group_crystal_system       monoclinic
_cell_length_a                    33.626466
_cell_length_b                    7.22559
_cell_length_c                    27.911871
_cell_angle_alpha                 90.0
_cell_angle_beta                  140.355904
_cell_angle_gamma                 90.0
_cell_volume                      4326.88754704

loop_
_atom_site_label
_atom_site_type_symbol
_atom_type_description
_atom_site_fract_x
_atom_site_fract_y
_atom_site_fract_z
_atom_type_partial_charge
O1    O     O_R   0.335930 0.530330 0.836120 -0.499051
O2    O     O_R   0.664070 0.469670 0.163880 -0.510691
O3    O     O_R   0.664070 0.530330 0.663880 -0.499050
O4    O     O_R   0.335930 0.469670 0.336120 -0.510691
O5    O     O_R   0.835930 0.030330 0.836120 -0.502064
O6    O     O_R   0.164070 0.969670 0.163880 -0.510113
O7    O     O_R   0.164070 0.030330 0.663880 -0.502063
O8    O     O_R   0.835930 0.969670 0.336120 -0.510113
O9    O     O_R   0.254100 0.856860 0.685510 -0.544215
O10   O     O_R   0.745900 0.143140 0.314490 -0.520159
O11   O     O_R   0.745900 0.856860 0.814490 -0.544214
O12   O     O_R   0.254100 0.143140 0.185510 -0.520159
O13   O     O_R   0.754100 0.356860 0.685510 -0.543743
O14   O     O_R   0.245900 0.643140 0.314490 -0.521414
O15   O     O_R   0.245900 0.356860 0.814490 -0.543743
O16   O     O_R   0.754100 0.643140 0.185510 -0.521414
C1    C     C_R   0.251141 0.692189 0.662954 0.723055
C2    C     C_R   0.748817 0.307840 0.337007 0.766798
C3    C     C_R   0.748859 0.692189 0.837046 0.723055
C4    C     C_R   0.251183 0.307840 0.162993 0.766801
C5    C     C_R   0.751146 0.192189 0.662959 0.727371
C6    C     C_R   0.248789 0.807846 0.336981 0.773041
C7    C     C_R   0.248854 0.192189 0.837041 0.727371
C8    C     C_R   0.751211 0.807846 0.163019 0.773044
O17   O     O_R   0.341180 0.859830 0.836880 -0.519401
O18   O     O_R   0.658820 0.140170 0.163120 -0.524089
O19   O     O_R   0.658820 0.859830 0.663120 -0.519403
O20   O     O_R   0.341180 0.140170 0.336880 -0.524089
O21   O     O_R   0.841180 0.359830 0.836880 -0.518672
O22   O     O_R   0.158820 0.640170 0.163120 -0.525644
O23   O     O_R   0.158820 0.359830 0.663120 -0.518674
O24   O     O_R   0.841180 0.640170 0.336880 -0.525645
O25   O     O_R   0.251370 0.033430 0.816330 -0.526554
O26   O     O_R   0.748630 0.966570 0.183670 -0.539694
O27   O     O_R   0.748630 0.033430 0.683670 -0.526553
O28   O     O_R   0.251370 0.966570 0.316330 -0.539693
O29   O     O_R   0.751370 0.533430 0.816330 -0.526547
O30   O     O_R   0.248630 0.466570 0.183670 -0.541029
O31   O     O_R   0.248630 0.533430 0.683670 -0.526546
O32   O     O_R   0.751370 0.466570 0.316330 -0.541029
C9    C     C_R   0.366569 0.687735 0.861921 0.760608
C10   C     C_R   0.634128 0.311155 0.134264 0.771196
C11   C     C_R   0.633431 0.687735 0.638078 0.760607
C12   C     C_R   0.365872 0.311155 0.365736 0.771196
C13   C     C_R   0.866573 0.187735 0.861902 0.758757
C14   C     C_R   0.134128 0.811153 0.134258 0.772511
C15   C     C_R   0.133427 0.187735 0.638098 0.758759
C16   C     C_R   0.865872 0.811153 0.365741 0.772511
O33   O     O_3   0.220230 0.697940 0.743080 -0.337716
O34   O     O_3   0.779770 0.302060 0.256920 -0.372780
O35   O     O_3   0.779770 0.697940 0.756920 -0.337717
O36   O     O_3   0.220230 0.302060 0.243080 -0.372780
O37   O     O_3   0.720230 0.197940 0.743080 -0.337132
O38   O     O_3   0.279770 0.802060 0.256920 -0.373496
O39   O     O_3   0.279770 0.197940 0.756920 -0.337133
O40   O     O_3   0.720230 0.802060 0.243080 -0.373496
V1    V     V_3+5 0.255280 0.971510 0.751280 1.706938
V2    V     V_3+5 0.744720 0.028490 0.248720 1.680402
V3    V     V_3+5 0.744720 0.971510 0.748720 1.706937
V4    V     V_3+5 0.255280 0.028490 0.251280 1.680401
V5    V     V_3+5 0.755280 0.471510 0.751280 1.708990
V6    V     V_3+5 0.244720 0.528490 0.248720 1.673586
V7    V     V_3+5 0.244720 0.471510 0.748720 1.708989
V8    V     V_3+5 0.755280 0.528490 0.251280 1.673584
C17   C     C_2   0.063532 0.162923 0.572387 -0.367556
C18   C     C_2   0.934792 0.835415 0.435911 -0.332024
C19   C     C_2   0.936468 0.162923 0.927613 -0.367543
C20   C     C_2   0.065208 0.835415 0.064089 -0.332016
C21   C     C_2   0.563550 0.662889 0.572314 -0.376334
C22   C     C_2   0.434794 0.335415 0.435856 -0.300015
C23   C     C_2   0.436450 0.662890 0.927685 -0.376322
C24   C     C_2   0.565206 0.335415 0.064144 -0.300013
C25   C     C_2   0.032156 0.998604 0.552196 0.368396
C26   C     C_2   0.962696 0.985010 0.484086 0.367363
C27   C     C_2   0.967843 0.998604 0.947804 0.368390
C28   C     C_2   0.037304 0.985010 0.015914 0.367358
C29   C     C_2   0.532184 0.498528 0.552085 0.329669
C30   C     C_2   0.462730 0.485018 0.484025 0.318140
C31   C     C_2   0.467815 0.498528 0.947915 0.329668
C32   C     C_2   0.537270 0.485019 0.015976 0.318142
H1    H     H_    0.964195 0.729646 0.447268 0.145271
H2    H     H_    0.036291 0.283770 0.537249 0.161251
H3    H     H_    0.035805 0.729645 0.052732 0.145272
H4    H     H_    0.963709 0.283770 0.962751 0.161257
H5    H     H_    0.464177 0.229645 0.447172 0.147018
H6    H     H_    0.536312 0.783728 0.537170 0.169151
H7    H     H_    0.535823 0.229645 0.052827 0.147021
H8    H     H_    0.463688 0.783728 0.962830 0.169157
C33   C     C_1   0.250907 0.187118 0.890974 -0.098179
C34   C     C_1   0.748554 0.812819 0.108547 -0.065694
C35   C     C_1   0.749093 0.187118 0.609026 -0.098181
C36   C     C_1   0.251446 0.812819 0.391453 -0.065694
C37   C     C_1   0.750937 0.687117 0.891000 -0.102699
C38   C     C_1   0.248482 0.312800 0.108483 -0.080645
C39   C     C_1   0.249063 0.687117 0.609000 -0.102701
C40   C     C_1   0.751517 0.312800 0.391517 -0.080645
C41   C     C_2   0.259826 0.180377 0.994940 0.214480
C42   C     C_2   0.738657 0.818845 0.003733 0.222383
C43   C     C_2   0.740174 0.180377 0.505060 0.214479
C44   C     C_2   0.261343 0.818845 0.496267 0.222384
C45   C     C_2   0.759903 0.680388 0.995007 0.209712
C46   C     C_2   0.238541 0.318779 0.003632 0.220282
C47   C     C_2   0.240097 0.680388 0.504993 0.209712
C48   C     C_2   0.761459 0.318779 0.496368 0.220284
C49   C     C_1   0.244713 0.314346 0.061492 0.107103
C50   C     C_1   0.754165 0.685282 0.937518 0.099098
C51   C     C_1   0.755287 0.314346 0.438508 0.107107
C52   C     C_1   0.245835 0.685282 0.562481 0.099097
C53   C     C_1   0.744812 0.814387 0.061580 0.116866
C54   C     C_1   0.254111 0.185284 0.937471 0.100633
C55   C     C_1   0.255187 0.814387 0.438420 0.116868
C56   C     C_1   0.745889 0.185284 0.562529 0.100633
S1    S     S_3+6 0.920734 0.142231 0.481968 0.027497
O41   O     O_2   0.892326 0.290789 0.424967 -0.348211
O42   O     O_2   0.870491 0.041094 0.462251 -0.322097
O43   O     O_3   0.969259 0.240628 0.566845 -0.485500
H9    H     H_    0.942670 0.325840 0.561031 0.389235
S2    S     S_3+6 0.068056 0.797745 0.609610 0.035472
O44   O     O_2   0.100112 0.697446 0.599200 -0.361635
O45   O     O_2   0.114087 0.849707 0.690642 -0.306042
O46   O     O_3   0.014250 0.656837 0.583962 -0.478248
H10   H     H_    0.038204 0.548526 0.617743 0.386304
S3    S     S_3+6 0.079266 0.142232 0.018032 0.027497
O47   O     O_2   0.107674 0.290789 0.075034 -0.348200
O48   O     O_2   0.129508 0.041095 0.037749 -0.322107
O49   O     O_3   0.030740 0.240632 0.933156 -0.485503
H11   H     H_    0.057333 0.325803 0.938963 0.389236
S4    S     S_3+6 0.931944 0.797746 0.890390 0.035470
O50   O     O_2   0.899888 0.697445 0.900800 -0.361630
O51   O     O_2   0.885913 0.849708 0.809358 -0.306049
O52   O     O_3   0.985750 0.656839 0.916038 -0.478242
H12   H     H_    0.961795 0.548540 0.882250 0.386313
S5    S     S_3+6 0.420844 0.642173 0.482083 0.043970
O53   O     O_2   0.392411 0.790798 0.425122 -0.319244
O54   O     O_2   0.370339 0.542313 0.462151 -0.321352
O55   O     O_3   0.469087 0.742031 0.566664 -0.475574
H13   H     H_    0.483508 0.639538 0.600846 0.370977
S6    S     S_3+6 0.568020 0.297825 0.609581 0.014977
O56   O     O_2   0.600108 0.197168 0.599278 -0.354968
O57   O     O_2   0.614011 0.350025 0.690582 -0.319648
O58   O     O_3   0.514149 0.157200 0.583911 -0.467433
H14   H     H_    0.538055 0.048974 0.617760 0.395609
S7    S     S_3+6 0.579156 0.642176 0.017918 0.043970
O59   O     O_2   0.607589 0.790799 0.074880 -0.319242
O60   O     O_2   0.629661 0.542317 0.037849 -0.321356
O61   O     O_3   0.530912 0.742037 0.933337 -0.475576
H15   H     H_    0.516494 0.639549 0.899155 0.370977
S8    S     S_3+6 0.431980 0.297826 0.890418 0.014975
O62   O     O_2   0.399892 0.197167 0.900722 -0.354962
O63   O     O_2   0.385989 0.350027 0.809417 -0.319655
O64   O     O_3   0.485851 0.157202 0.916089 -0.467433
H16   H     H_    0.461944 0.048993 0.882229 0.395610
Br1   Br    Br    0.197267 0.530599 0.938514 -0.389887
Br2   Br    Br    0.800849 0.468110 0.059874 -0.467680
Br3   Br    Br    0.802733 0.530599 0.561486 -0.389886
Br4   Br    Br    0.199150 0.468110 0.440126 -0.467680
Br5   Br    Br    0.697438 0.030751 0.938660 -0.384910
Br6   Br    Br    0.300807 0.968157 0.059840 -0.464356
Br7   Br    Br    0.302562 0.030751 0.561340 -0.384911
Br8   Br    Br    0.699193 0.968157 0.440160 -0.464356

loop_
_geom_bond_atom_site_label_1
_geom_bond_atom_site_label_2
_ccdc_geom_bond_type
S7    O61   S    
C38   C49   T    
O49   H11   S    
O33   V7    S    
C22   C30   D    
O34   V8    S    
C25   C26   S    
C21   C29   D    
O35   V5    S    
S8    O64   S    
S4    O50   D    
C23   C31   D    
O37   V3    S    
S3    O47   D    
O38   V4    S    
C29   C30   S    
O3    C11   A    
C15   C17   S    
O10   V2    S    
S8    O63   D    
O61   H15   S    
S3    O48   D    
O3    V5    S    
S7    O59   D    
O14   V6    S    
O4    V6    S    
C17   C25   D    
O43   H9    S    
C46   C49   S    
O27   V3    S    
C27   S4    S    
C1    O31   A    
C2    O32   A    
S2    O44   D    
C3    O29   A    
O8    V2    S    
C7    O25   A    
C13   C19   S    
S5    O55   S    
O64   H16   S    
C7    C33   S    
C12   C22   S    
C47   C52   S    
C1    C39   S    
O30   V6    S    
C41   C46   D    
C3    C37   S    
C9    C23   S    
S1    O43   S    
O15   C7    A    
C43   C48   D    
C19   H4    S    
C11   C21   S    
C42   C53   S    
O23   C15   A    
C43   Br8   S    
C20   H3    S    
O17   V1    S    
O11   V3    S    
O1    V7    S    
O2    V8    S    
O20   V4    S    
O21   V5    S    
O5    V3    S    
O6    V4    S    
S8    O62   D    
O24   V8    S    
C39   C52   T    
O17   C9    A    
S3    O49   S    
O4    C12   A    
C26   S1    S    
O5    C13   A    
C33   C54   T    
O20   C12   A    
C44   C47   D    
C8    O26   A    
C23   H8    S    
C8    C34   S    
S2    O46   S    
O7    C15   A    
C35   C56   T    
C27   C28   S    
O8    C16   A    
C14   C20   S    
O23   V7    S    
C37   C50   T    
C4    O30   A    
C42   Br5   S    
O2    C10   A    
C32   S7    S    
O11   C3    A    
O12   C4    A    
C10   C24   S    
O13   C5    A    
C29   S6    S    
O18   V2    S    
C46   Br1   S    
O46   H10   S    
S6    O57   D    
O1    C9    A    
C40   C51   T    
O39   V1    S    
S5    O53   D    
C19   C27   D    
O52   H12   S    
S4    O52   S    
C24   H7    S    
O31   V7    S    
O18   C10   A    
O26   V2    S    
S1    O41   D    
C5    C35   S    
O9    C1    A    
C45   C50   S    
S7    O60   D    
C4    C38   S    
O25   V1    S    
C25   S2    S    
O6    C14   A    
C28   S3    S    
O22   C14   A    
C6    C36   S    
C2    C40   S    
O55   H13   S    
O28   V4    S    
S6    O58   S    
S4    O51   D    
O29   V5    S    
C36   C55   T    
C31   S8    S    
C5    O27   A    
C20   C28   D    
C42   C45   D    
C6    O28   A    
O32   V8    S    
C41   Br6   S    
O14   C6    A    
O22   V6    S    
C24   C32   D    
O36   V6    S    
O58   H14   S    
C18   H1    S    
C41   C54   S    
C44   Br7   S    
C17   H2    S    
O24   C16   A    
C45   Br2   S    
O10   C2    A    
C43   C56   S    
O40   V2    S    
O9    V1    S    
C48   Br3   S    
C30   S5    S    
S2    O45   D    
S6    O56   D    
C31   C32   S    
O12   V4    S    
O19   C11   A    
C47   Br4   S    
O13   V5    S    
C44   C55   S    
O16   C8    A    
O21   C13   A    
S5    O54   D    
O15   V7    S    
O19   V3    S    
O16   V8    S    
C34   C53   T    
C16   C18   S    
C22   H5    S    
O7    V1    S    
C48   C51   S    
C21   H6    S    
S1    O42   D    
C18   C26   D    
