data_mof_unit_27580.cif
_audit_creation_date              2012-12-11T18:11:27-0500
_audit_creation_method            fapswitch 2.2
_symmetry_space_group_name_H-M    P1
_symmetry_Int_Tables_number       1
_space_group_crystal_system       triclinic
_cell_length_a                    8.208444
_cell_length_b                    12.679848
_cell_length_c                    18.714432
_cell_angle_alpha                 99.55282
_cell_angle_beta                  91.024712
_cell_angle_gamma                 98.465485
_cell_volume                      1898.10509314

loop_
_atom_site_label
_atom_site_type_symbol
_atom_type_description
_atom_site_fract_x
_atom_site_fract_y
_atom_site_fract_z
_atom_type_partial_charge
Ba1   Ba    Ba6+2 0.852780 0.548340 0.465070 1.721593
Ba2   Ba    Ba6+2 0.337060 0.451750 0.534940 1.696620
C1    C     C_3   0.616086 0.917883 0.273118 -0.346626
C2    C     C_R   0.904284 0.378340 0.094484 -0.019898
C3    C     C_R   0.760071 0.413646 0.954625 0.552301
C4    C     C_3   0.109370 0.756253 0.262504 0.256290
C5    C     C_R   0.928328 0.448239 0.977207 -0.043349
C6    C     C_R   0.704688 0.414290 0.884076 -0.118158
C7    C     C_R   0.810412 0.453384 0.833390 -0.118245
C8    C     C_R   0.973731 0.500555 0.856370 -0.010162
C9    C     C_R   0.033263 0.498217 0.928500 -0.027161
C10   C     C_R   0.756472 0.448565 0.760659 -0.005200
C11   C     C_R   0.865160 0.488847 0.711484 -0.235700
C12   C     C_3   0.631632 0.816263 0.304257 0.313063
C13   C     C_R   0.022875 0.543363 0.733616 0.124046
C14   C     C_R   0.076693 0.551423 0.807570 -0.031898
C15   C     C_R   0.156237 0.489579 0.070181 0.081986
C16   C     C_3   0.041031 0.767860 0.187652 0.880493
C17   C     C_R   0.215682 0.490344 0.142727 0.074328
C18   C     C_R   0.112259 0.442177 0.192340 0.023951
C19   C     C_R   0.961358 0.380727 0.165367 -0.014486
C20   C     C_R   0.229017 0.609764 0.834786 -0.004967
C21   C     C_R   0.289147 0.606405 0.904254 -0.042804
C22   C     C_R   0.196951 0.546636 0.951302 0.054499
C23   C     C_3   0.443067 0.266696 0.312852 0.855174
C24   C     C_R   0.260483 0.538815 0.021367 0.048450
C25   C     C_R   0.427352 0.575799 0.043763 0.047306
C26   C     C_R   0.379171 0.538255 0.165452 -0.014203
C27   C     C_R   0.484987 0.575644 0.114092 0.047931
C28   C     C_3   0.235503 0.785879 0.618260 0.346312
C29   C     C_R   0.432015 0.546617 0.238802 0.071179
C30   C     C_R   0.322663 0.509501 0.288547 -0.209860
C31   C     C_R   0.165676 0.454483 0.266554 0.025190
C32   C     C_R   0.765270 0.181766 0.527552 -0.280127
C33   C     C_R   0.431164 0.806538 0.468322 -0.293790
C34   C     C_3   0.393439 0.217469 0.234231 0.449222
C35   C     C_R   0.404037 0.983712 0.444026 -0.095138
C36   C     C_R   0.340226 0.875119 0.439458 0.003209
C37   C     C_R   0.580166 0.847242 0.507520 0.055416
C38   C     C_R   0.644401 0.959475 0.515301 -0.059685
C39   C     C_R   0.555273 0.027721 0.481801 -0.065187
C40   C     C_3   0.263259 0.908594 0.635102 -0.343636
C41   C     C_R   0.617903 0.138906 0.488329 0.027586
C42   C     C_R   0.857370 0.115653 0.557969 -0.010322
C43   C     C_R   0.795153 0.005841 0.554279 -0.092655
C44   C     C_3   0.960752 0.210724 0.379561 0.255013
C45   C     C_3   0.061860 0.237777 0.734428 0.354422
C46   C     C_3   0.979493 0.091959 0.366225 -0.327335
C47   C     C_3   0.702912 0.718458 0.689627 0.862943
C48   C     C_3   0.629066 0.746027 0.763009 -0.280560
C49   C     C_3   0.080123 0.213014 0.810695 -0.332413
C50   C     C_3   0.559305 0.180933 0.702623 0.342908
C51   C     C_3   0.612265 0.102114 0.748169 -0.396830
C52   C     C_R   0.993167 0.439712 0.047286 0.069780
F1    F     F_    0.867905 0.718034 0.701222 -0.750033
F2    F     F_    0.563368 0.355296 0.314438 -0.684234
F3    F     F_    0.381412 0.297012 0.193089 -0.718774
F4    F     F_    0.642206 0.386246 0.000838 -0.726524
F5    F     F_    0.983432 0.666881 0.147915 -0.733608
H1    H     H_    0.721953 0.837527 0.351277 0.074434
H2    H     H_    0.641706 0.637026 0.663181 -0.019295
H3    H     H_    0.610712 0.986713 0.317706 0.069809
H4    H     H_    0.704804 0.818326 0.795736 0.128915
H5    H     H_    0.624410 0.676885 0.792804 0.052285
H6    H     H_    0.503042 0.764991 0.755233 0.062514
H7    H     H_    0.508254 0.785938 0.322734 -0.062225
H8    H     H_    0.501519 0.905165 0.238838 0.195236
H9    H     H_    0.333463 0.293007 0.340035 -0.093389
H10   H     H_    0.272008 0.165233 0.232109 0.022135
H11   H     H_    0.487096 0.168519 0.210526 0.037148
H12   H     H_    0.362867 0.936569 0.677616 0.099334
H13   H     H_    0.722063 0.937970 0.239292 0.137723
H14   H     H_    0.144456 0.314301 0.731200 0.086676
H15   H     H_    0.932234 0.248569 0.724593 -0.081156
H16   H     H_    0.210799 0.207566 0.823670 0.161797
H17   H     H_    0.040226 0.278050 0.850635 0.057011
H18   H     H_    0.002819 0.134947 0.815048 0.123526
H19   H     H_    0.669949 0.215197 0.675958 -0.057618
H20   H     H_    0.468605 0.136219 0.659365 0.077427
H21   H     H_    0.704667 0.145920 0.790951 0.119038
H22   H     H_    0.667721 0.038157 0.713324 0.091928
H23   H     H_    0.299325 0.942811 0.586072 0.073181
H24   H     H_    0.037414 0.682362 0.277048 0.059836
H25   H     H_    0.504443 0.064056 0.774712 0.140479
H26   H     H_    0.823464 0.482175 0.655519 0.067345
H27   H     H_    0.575545 0.385554 0.870462 0.137782
H28   H     H_    0.885259 0.332822 0.198339 0.116116
H29   H     H_    0.304669 0.658222 0.802505 0.083265
H30   H     H_    0.613532 0.606700 0.127594 0.135138
H31   H     H_    0.363421 0.518996 0.344873 0.077716
H32   H     H_    0.791929 0.323946 0.077605 0.170159
H33   H     H_    0.407915 0.654108 0.920188 0.070385
H34   H     H_    0.148295 0.937948 0.654586 0.162681
H35   H     H_    0.240938 0.745060 0.260157 -0.047806
H36   H     H_    0.517894 0.604766 0.007736 0.071803
H37   H     H_    0.331383 0.033016 0.419334 0.095188
H38   H     H_    0.867952 0.958372 0.580836 0.113316
H39   H     H_    0.813505 0.266703 0.530922 0.053458
H40   H     H_    0.380433 0.721879 0.464060 0.065152
H41   H     H_    0.936641 0.814442 0.194043 0.044040
H42   H     H_    0.350915 0.757313 0.600225 -0.057537
H43   H     H_    0.138053 0.759623 0.574511 0.079994
H44   H     H_    0.319277 0.998944 0.145678 0.358944
H45   H     H_    0.830800 0.218458 0.388677 0.023341
H46   H     H_    0.038632 0.250380 0.428489 0.068648
H47   H     H_    0.917722 0.051456 0.313831 0.137160
H48   H     H_    0.924307 0.052041 0.410242 0.086595
H49   H     H_    0.111865 0.083886 0.363581 0.124865
O1    O     O_2   0.873090 0.425890 0.325140 -0.388387
O2    O     O_2   0.196979 0.121249 0.551627 -0.482173
O3    O     O_3   0.105309 0.151991 0.684472 -0.596950
O4    O     O_3   0.122420 0.434370 0.414380 -0.508617
O5    O     O_3   0.578370 0.633800 0.536380 -0.499576
O6    O     O_2   0.341510 0.231850 0.465510 -0.482804
O7    O     O_3   0.504605 0.188315 0.345984 -0.719609
O8    O     O_2   0.415859 0.454637 0.756661 -0.507607
O9    O     O_3   0.483781 0.258700 0.747444 -0.593208
O10   O     O_3   0.659500 0.627100 0.368810 -0.474821
O11   O     O_2   0.774720 0.547962 0.242161 -0.428389
O12   O     O_3   0.684920 0.800551 0.649979 -0.663847
O13   O     O_3   0.005902 0.253354 0.317355 -0.636239
O14   O     O_3   0.687901 0.739864 0.250933 -0.617745
O15   O     O_2   0.848200 0.768190 0.534530 -0.458503
O16   O     O_3   0.081160 0.685950 0.404810 -0.503095
O17   O     O_2   0.005090 0.879870 0.448721 -0.490849
O18   O     O_2   0.341072 0.782617 0.130311 -0.350995
O19   O     O_2   0.116891 0.834821 0.062304 -0.252904
O20   O     O_3   0.241590 0.965481 0.178342 -0.575836
O21   O     O_3   0.090551 0.847971 0.313776 -0.634565
O22   O     O_2   0.316610 0.574140 0.674900 -0.506575
O23   O     O_3   0.067290 0.565720 0.585630 -0.489172
O24   O     O_3   0.530210 0.372990 0.631200 -0.473957
O25   O     O_3   0.189569 0.746741 0.681599 -0.570682
O26   O     O_3   0.611340 0.366290 0.463630 -0.425571
O27   O     O_3   0.108550 0.314140 0.595200 -0.496364
P1    P     P_3+3 0.041040 0.394770 0.336330 1.014593
P2    P     P_3+3 0.672880 0.754030 0.556100 0.990560
P3    P     P_3+3 0.130250 0.823234 0.401652 0.927353
P4    P     P_3+3 0.148670 0.605320 0.663680 1.057667
P5    P     P_3+3 0.065826 0.174900 0.596553 0.948607
P6    P     P_3+3 0.639305 0.611756 0.274745 1.048074
P7    P     P_3+3 0.521997 0.230194 0.440098 0.966799
P8    P     P_3+3 0.546883 0.386555 0.725001 0.945497
S1    S     S_3+6 0.190167 0.836835 0.136784 -0.072251

loop_
_geom_bond_atom_site_label_1
_geom_bond_atom_site_label_2
_ccdc_geom_bond_type
C37   P2    S    
C12   O14   S    
C25   C27   A    
C40   H34   S    
C48   H5    S    
C25   H36   S    
C17   C18   A    
C40   H23   S    
C23   F2    S    
O10   P6    S    
C46   H47   S    
C19   H28   S    
C50   C51   S    
C5    C9    A    
Ba2   O4    S    
C24   C25   A    
Ba2   O26   S    
Ba1   O5    S    
C3    F4    S    
C51   H25   S    
Ba2   P4    S    
O6    P7    D    
O16   P3    S    
C26   C27   A    
O9    P8    S    
C49   H16   S    
C23   O7    S    
Ba1   O4    S    
Ba2   O5    S    
C50   H19   S    
C47   O12   S    
C13   C14   A    
C44   H46   S    
C9    C22   A    
C51   H22   S    
Ba1   Ba2   S    
O18   S1    D    
Ba1   O1    S    
C30   H31   S    
O21   P3    S    
C6    C7    A    
C4    H35   S    
Ba2   O24   S    
C21   C22   A    
C44   O13   S    
C20   H29   S    
C50   H20   S    
C7    C8    A    
C21   H33   S    
Ba1   O10   S    
C2    H32   S    
C50   O9    S    
O24   P8    S    
O7    P7    S    
C42   P5    S    
O1    P1    D    
C48   H4    S    
C39   C41   A    
C38   C43   A    
C23   H9    S    
C16   H41   S    
O4    P1    S    
C4    O21   S    
C33   H40   S    
O22   P4    D    
C27   H30   S    
C48   H6    S    
C34   H11   S    
O3    P5    S    
C13   P4    S    
Ba1   O15   S    
C12   H7    S    
O27   P5    S    
C4    C16   S    
C44   C46   S    
C42   C43   A    
C47   H2    S    
C51   H21   S    
C32   C42   A    
C49   H17   S    
C45   H14   S    
C34   F3    S    
C37   C38   A    
C3    C5    A    
C15   C17   A    
C45   C49   S    
C47   F1    S    
C44   H45   S    
C35   H37   S    
C29   P6    S    
C33   C37   A    
C49   H18   S    
C35   C36   A    
H44   O20   S    
O26   P7    S    
O8    P8    D    
C29   C30   A    
C28   O25   S    
C28   H43   S    
Ba2   O23   S    
C36   P3    S    
C18   C19   A    
C17   C26   A    
O20   S1    S    
C1    C12   S    
C18   C31   A    
C38   C39   A    
O25   P4    S    
C11   C13   A    
O11   P6    D    
O5    P2    S    
C15   C24   A    
Ba1   O26   S    
Ba1   P1    S    
Ba2   O22   S    
Ba1   P2    S    
C34   H10   S    
C1    H3    S    
C14   C20   A    
C4    H24   S    
C2    C52   A    
C20   C21   A    
C26   C29   A    
C1    H8    S    
C32   C41   A    
C45   H15   S    
C22   C24   A    
Ba1   O23   S    
C3    C6    A    
O17   P3    D    
C12   H1    S    
O15   P2    D    
Ba2   O27   S    
C5    C52   A    
C10   P8    S    
C30   C31   A    
C16   S1    S    
C1    H13   S    
Ba1   O16   S    
C8    C14   A    
C2    C19   A    
Ba2   O6    S    
C31   P1    S    
C46   H49   S    
C45   O3    S    
C28   H42   S    
O2    P5    D    
C40   H12   S    
C32   H39   S    
C6    H27   S    
O19   S1    D    
O13   P1    S    
C35   C39   A    
C7    C10   A    
O23   P4    S    
C8    C9    A    
C23   C34   S    
C46   H48   S    
C16   F5    S    
C10   C11   A    
C47   C48   S    
C11   H26   S    
C33   C36   A    
C28   C40   S    
C41   P7    S    
C43   H38   S    
O12   P2    S    
O14   P6    S    
C15   C52   A    
