data_mof_unit_27565.cif
_audit_creation_date              2012-12-10T17:51:30-0500
_audit_creation_method            fapswitch 2.2
_symmetry_space_group_name_H-M    P1
_symmetry_Int_Tables_number       1
_space_group_crystal_system       triclinic
_cell_length_a                    9.968054
_cell_length_b                    10.630131
_cell_length_c                    16.598598
_cell_angle_alpha                 91.481138
_cell_angle_beta                  83.48286
_cell_angle_gamma                 91.05718
_cell_volume                      1746.65339579

loop_
_atom_site_label
_atom_site_type_symbol
_atom_type_description
_atom_site_fract_x
_atom_site_fract_y
_atom_site_fract_z
_atom_type_partial_charge
C1    C     C_R   0.501059 0.738819 0.498105 0.875941
C2    C     C_R   0.535657 0.509441 0.258233 -0.122372
C3    C     C_R   0.545831 0.866480 0.345945 -0.163123
C4    C     C_R   0.479477 0.503071 0.653483 0.906260
C5    C     C_R   0.568743 0.931297 0.273587 -0.131894
C6    C     C_R   0.571111 0.062274 0.275112 -0.099022
C7    C     C_R   0.549467 0.128617 0.348930 -0.105970
C8    C     C_R   0.523946 0.064271 0.422840 0.070304
C9    C     C_R   0.524036 0.932553 0.421119 0.091510
C10   C     C_R   0.502068 0.870757 0.495195 -0.125719
C11   C     C_R   0.479021 0.934230 0.569142 -0.163109
C12   C     C_R   0.371119 0.479326 0.796742 -0.051510
C13   C     C_R   0.482583 0.063525 0.572564 -0.037146
C14   C     C_R   0.500385 0.127847 0.498839 -0.187914
C15   C     C_R   0.852125 0.700220 0.575997 -0.193535
C16   C     C_R   0.499221 0.260818 0.501138 0.921055
C17   C     C_R   0.919480 0.813310 0.592932 -0.068951
C18   C     C_R   0.060147 0.814032 0.586813 -0.275018
C19   C     C_R   0.125652 0.698612 0.579718 -0.007995
C20   C     C_R   0.066620 0.598384 0.537573 0.108642
C21   C     C_R   0.923117 0.598557 0.536945 0.158025
C22   C     C_R   0.933693 0.405805 0.464032 -0.084168
C23   C     C_R   0.435691 0.513886 0.132472 -0.189665
C24   C     C_R   0.076462 0.405977 0.463899 -0.065603
C25   C     C_R   0.520433 0.497473 0.346278 0.847021
C26   C     C_R   0.464406 0.538984 0.739207 -0.096190
C27   C     C_R   0.536064 0.647039 0.761133 -0.180556
C28   C     C_R   0.518542 0.697112 0.839994 0.007604
C29   C     C_R   0.428768 0.634935 0.898036 0.061613
C30   C     C_R   0.354005 0.529252 0.875928 -0.154884
C31   C     C_2   0.476330 0.126034 0.654052 0.910850
C32   C     C_2   0.844648 0.926383 0.625004 0.994260
C33   C     C_2   0.317085 0.386171 0.241284 0.917148
C34   C     C_R   0.431246 0.471035 0.211300 -0.035284
C35   C     C_2   0.181404 0.670840 0.655351 0.978554
C36   C     C_2   0.292255 0.365436 0.775743 0.460708
C37   C     C_2   0.593474 0.814008 0.860110 0.940952
C38   C     C_R   0.647592 0.578319 0.222379 -0.215984
C39   C     C_R   0.650922 0.618804 0.143301 -0.156273
C40   C     C_R   0.542109 0.591784 0.099603 0.153233
C41   C     C_2   0.430973 0.658075 0.984768 -0.128984
C42   C     C_2   0.545350 0.635207 0.016605 -0.192658
H1    H     H_    0.602485 0.695408 0.715511 0.178343
H2    H     H_    0.112021 0.895687 0.609770 0.225272
H3    H     H_    0.133759 0.329102 0.434177 0.176765
H4    H     H_    0.728923 0.607698 0.257075 0.174334
H5    H     H_    0.641224 0.631506 0.978205 0.159633
H6    H     H_    0.287022 0.481994 0.922089 0.185674
H7    H     H_    0.357249 0.483668 0.095793 0.168606
H8    H     H_    0.334858 0.659923 0.022884 0.161133
H9    H     H_    0.413891 0.115624 0.773817 0.365641
H10   H     H_    0.849363 0.112918 0.650766 0.371502
H11   H     H_    0.122002 0.334907 0.236993 0.343876
H12   H     H_    0.735920 0.675094 0.117286 0.149050
H13   H     H_    0.145129 0.581497 0.761137 0.348311
H14   H     H_    0.300997 0.327348 0.714307 0.108509
H15   H     H_    0.602902 0.968857 0.932357 0.352789
H16   H     H_    0.465677 0.881791 0.624739 0.229234
H17   H     H_    0.545163 0.764901 0.342723 0.129338
H18   H     H_    0.585247 0.879863 0.216289 0.156254
H19   H     H_    0.589907 0.112688 0.219010 0.152075
H20   H     H_    0.553849 0.230170 0.347566 0.143762
H21   H     H_    0.884709 0.328798 0.434363 0.149193
H22   H     H_    0.747290 0.691762 0.596500 0.210956
N1    N     N_R   0.857140 0.501200 0.500750 -0.112633
N2    N     N_R   0.142740 0.501280 0.500770 -0.123077
O1    O     O_R   0.385310 0.683220 0.500000 -0.619211
O2    O     O_R   0.405272 0.067872 0.720955 -0.751293
O3    O     O_2   0.724745 0.918071 0.649556 -0.637905
O4    O     O_R   0.911466 0.043015 0.627909 -0.785519
O5    O     O_2   0.333102 0.304019 0.289302 -0.653599
O6    O     O_R   0.191511 0.397958 0.212445 -0.805454
O7    O     O_2   0.267503 0.740087 0.680499 -0.644945
O8    O     O_R   0.121692 0.574500 0.703454 -0.792876
O9    O     O_2   0.215067 0.312765 0.827085 -0.541889
O10   O     O_2   0.698894 0.842867 0.819236 -0.591622
O11   O     O_R   0.542927 0.892271 0.925122 -0.780119
O12   O     O_R   0.614640 0.683250 0.500010 -0.642494
O13   O     O_R   0.371780 0.500010 0.615800 -0.623267
O14   O     O_R   0.601110 0.500030 0.615800 -0.591947
O15   O     O_R   0.385360 0.316750 0.499990 -0.607026
O16   O     O_R   0.614690 0.316780 0.500000 -0.594285
O17   O     O_R   0.398890 0.499970 0.384200 -0.587955
O18   O     O_R   0.628220 0.499990 0.384200 -0.626431
O19   O     O_2   0.538881 0.224121 0.663813 -0.661296
Zn1   Zn    Zn3+2 0.346870 0.499980 0.499990 0.994437
Zn2   Zn    Zn3+2 0.653130 0.500020 0.500010 0.970004

loop_
_geom_bond_atom_site_label_1
_geom_bond_atom_site_label_2
_ccdc_geom_bond_type
O12   Zn2   S    
C35   O8    S    
C31   O19   D    
C41   C42   D    
C19   C20   A    
O18   Zn2   S    
C29   C41   S    
C7    C8    A    
C7    H20   S    
C26   C27   A    
C3    C9    A    
C24   H3    S    
C6    H19   S    
C30   H6    S    
C28   C29   A    
C4    O14   A    
O14   Zn2   S    
C5    C6    A    
C23   H7    S    
C39   H12   S    
O16   Zn2   S    
C18   C19   A    
C33   O6    S    
C22   H21   S    
H13   O8    S    
C8    C9    A    
C25   O18   A    
C15   H22   S    
C12   C36   S    
C11   H16   S    
C9    C10   A    
O15   Zn1   S    
C24   N2    A    
C42   H5    S    
C21   N1    A    
C2    C34   A    
C40   C42   S    
C13   C14   A    
C1    O12   A    
N1    Zn2   S    
C31   O2    S    
H15   O11   S    
C4    O13   A    
C39   C40   A    
C32   O4    S    
C37   O11   S    
C12   C26   A    
C22   N1    A    
C29   C30   A    
C36   H14   S    
C36   O9    D    
C18   H2    S    
C2    C38   A    
C23   C34   A    
C16   O16   A    
C17   C18   A    
C32   O3    D    
C37   O10   D    
C14   C16   S    
C41   H8    S    
C20   N2    A    
C15   C17   A    
C35   O7    D    
O1    Zn1   S    
C8    C14   A    
C5    H18   S    
C12   C30   A    
C13   C31   S    
C1    C10   S    
C3    C5    A    
N2    Zn1   S    
C4    C26   S    
C6    C7    A    
C19   C35   S    
C11   C13   A    
C38   C39   A    
C28   C37   S    
C16   O15   A    
C1    O1    A    
C33   C34   S    
C2    C25   S    
C22   C24   A    
H9    O2    S    
C38   H4    S    
H10   O4    S    
C10   C11   A    
C33   O5    D    
C27   H1    S    
C15   C21   A    
O17   Zn1   S    
C20   C21   A    
C27   C28   A    
C25   O17   A    
C17   C32   S    
H11   O6    S    
O13   Zn1   S    
C23   C40   A    
C3    H17   S    
