data_mof_unit_66577.cif
_audit_creation_date              2012-12-11T14:31:05-0500
_audit_creation_method            fapswitch 2.2
_symmetry_space_group_name_H-M    P1
_symmetry_Int_Tables_number       1
_space_group_crystal_system       triclinic
_cell_length_a                    6.920301
_cell_length_b                    14.179886
_cell_length_c                    16.147407
_cell_angle_alpha                 89.993996
_cell_angle_beta                  90.004768
_cell_angle_gamma                 90.027356
_cell_volume                      1584.52998665

loop_
_atom_site_label
_atom_site_type_symbol
_atom_type_description
_atom_site_fract_x
_atom_site_fract_y
_atom_site_fract_z
_atom_type_partial_charge
O1    O     O_R   0.469910 0.836130 0.163900 -0.558418
O2    O     O_R   0.530090 0.163870 0.836100 -0.568844
O3    O     O_R   0.530090 0.163870 0.663900 -0.563159
O4    O     O_R   0.469910 0.836130 0.336100 -0.565031
O5    O     O_R   0.969910 0.663870 0.336100 -0.563326
O6    O     O_R   0.030090 0.336130 0.663900 -0.561595
O7    O     O_R   0.030090 0.336130 0.836100 -0.558715
O8    O     O_R   0.969910 0.663870 0.163900 -0.563607
O9    O     O_R   0.140100 0.847470 0.335520 -0.494154
O10   O     O_R   0.859900 0.152530 0.664480 -0.500189
O11   O     O_R   0.859900 0.152530 0.835520 -0.496280
O12   O     O_R   0.140100 0.847470 0.164480 -0.498122
O13   O     O_R   0.640100 0.652530 0.164480 -0.498611
O14   O     O_R   0.359900 0.347470 0.835520 -0.501579
O15   O     O_R   0.359900 0.347470 0.664480 -0.500495
O16   O     O_R   0.640100 0.652530 0.335520 -0.518011
C1    C     C_R   0.309990 0.873006 0.362006 0.650215
C2    C     C_R   0.689934 0.127036 0.638277 0.652078
C3    C     C_R   0.690014 0.126947 0.861968 0.646224
C4    C     C_R   0.310041 0.872930 0.138241 0.655756
C5    C     C_R   0.809882 0.626847 0.138153 0.679955
C6    C     C_R   0.190010 0.373089 0.861650 0.653972
C7    C     C_R   0.190052 0.373146 0.638164 0.663254
C8    C     C_R   0.809967 0.626878 0.361633 0.650175
O17   O     O_3   0.303300 0.689750 0.250000 -0.369688
O18   O     O_3   0.696700 0.310250 0.750000 -0.354826
O19   O     O_3   0.803300 0.810250 0.250000 -0.354408
O20   O     O_3   0.196700 0.189750 0.750000 -0.362923
V1    V     V_3+5 0.028490 0.761170 0.250000 1.681905
V2    V     V_3+5 0.971510 0.238830 0.750000 1.704663
V3    V     V_3+5 0.528490 0.738830 0.250000 1.655368
V4    V     V_3+5 0.471510 0.261170 0.750000 1.702166
H1    H     H_    0.925289 0.398627 0.525464 0.184157
H2    H     H_    0.050842 0.607444 0.484427 0.180316
H3    H     H_    0.076836 0.600364 0.026616 0.187599
H4    H     H_    0.950459 0.392139 0.984561 0.149279
H5    H     H_    0.418151 0.099353 0.971608 0.192095
H6    H     H_    0.544580 0.891220 0.012945 0.187880
H7    H     H_    0.582154 0.900644 0.471564 0.192302
H8    H     H_    0.455599 0.108729 0.512889 0.191330
C9    C     C_2   0.826353 0.544292 0.417999 0.266783
C10   C     C_2   0.173878 0.454708 0.580158 0.296040
C11   C     C_2   0.173461 0.455764 0.917933 0.334010
C12   C     C_2   0.825497 0.545375 0.079999 0.227027
C13   C     C_2   0.326755 0.955809 0.082297 0.236517
C14   C     C_2   0.673706 0.045914 0.920586 0.302311
C15   C     C_2   0.673137 0.044099 0.582409 0.240284
C16   C     C_2   0.326287 0.953967 0.420684 0.297162
C17   C     C_2   0.968890 0.543047 0.475864 -0.128419
C18   C     C_2   0.019416 0.459575 0.528256 -0.122785
C19   C     C_2   0.031409 0.456751 0.975965 -0.143561
C20   C     C_2   0.981042 0.539984 0.028644 -0.127128
C21   C     C_2   0.465873 0.956289 0.023009 -0.160118
C22   C     C_2   0.516030 0.039781 0.970623 -0.152731
C23   C     C_2   0.534171 0.043636 0.523049 -0.148995
C24   C     C_2   0.484077 0.960142 0.470662 -0.163082
S1    S     S_3+6 0.338880 0.550312 0.591222 0.076762
O21   O     O_2   0.513915 0.520905 0.639915 -0.269364
O22   O     O_2   0.402150 0.585472 0.507708 -0.351700
O23   O     O_3   0.226019 0.638147 0.641736 -0.457287
H9    H     H_    0.323519 0.689071 0.646234 0.399808
S2    S     S_3+6 0.685912 0.442515 0.394815 0.108398
O24   O     O_2   0.817683 0.366851 0.362383 -0.260830
O25   O     O_2   0.587422 0.406205 0.471417 -0.315304
O26   O     O_3   0.518446 0.466166 0.322177 -0.426802
H10   H     H_    0.406964 0.492636 0.352826 0.365347
S3    S     S_3+6 0.655400 0.451355 0.089601 0.124366
O27   O     O_2   0.473286 0.485424 0.130490 -0.259852
O28   O     O_2   0.604470 0.411405 0.006192 -0.312120
O29   O     O_3   0.750758 0.365443 0.148722 -0.408761
H11   H     H_    0.885161 0.357559 0.128980 0.352150
S4    S     S_3+6 0.311750 0.558039 0.894204 0.087185
O30   O     O_2   0.413701 0.593451 0.970237 -0.312258
O31   O     O_2   0.458640 0.536803 0.828243 -0.268762
O32   O     O_3   0.161104 0.642355 0.859663 -0.466159
H12   H     H_    0.244877 0.697640 0.848694 0.387747
S5    S     S_3+6 0.845976 0.952980 0.913788 0.064043
O33   O     O_2   0.897518 0.918161 0.998897 -0.322725
O34   O     O_2   0.758322 0.873296 0.865237 -0.303692
O35   O     O_3   0.048426 0.989225 0.865668 -0.463853
H13   H     H_    0.138478 0.935116 0.869370 0.368930
S6    S     S_3+6 0.194833 0.059200 0.108671 0.104520
O36   O     O_2   0.087000 0.095705 0.034582 -0.284988
O37   O     O_2   0.052905 0.039414 0.176969 -0.273633
O38   O     O_3   0.350433 0.142837 0.140399 -0.436172
H14   H     H_    0.418793 0.114517 0.188222 0.369478
S7    S     S_3+6 0.153674 0.046758 0.414086 0.081114
O39   O     O_2   0.102535 0.081479 0.499261 -0.322811
O40   O     O_2   0.240762 0.126540 0.365467 -0.285680
O41   O     O_3   0.951080 0.010367 0.366152 -0.460460
H15   H     H_    0.860353 0.064158 0.370466 0.383220
S8    S     S_3+6 0.804542 0.940618 0.609005 0.096462
O42   O     O_2   0.912947 0.904080 0.535097 -0.282522
O43   O     O_2   0.945908 0.960308 0.677542 -0.280192
O44   O     O_3   0.648466 0.857047 0.640455 -0.458785
H16   H     H_    0.579475 0.885437 0.688071 0.353164

loop_
_geom_bond_atom_site_label_1
_geom_bond_atom_site_label_2
_ccdc_geom_bond_type
O17   V3    S    
S7    O39   D    
O18   V4    S    
C11   S4    S    
O12   V1    S    
O19   V1    S    
O44   H16   S    
C15   S8    S    
C13   S6    S    
C1    C16   S    
C23   C24   S    
C2    C15   S    
O41   H15   S    
C3    C14   S    
O15   V4    S    
S5    O33   D    
O16   V3    S    
H6    C21   S    
O11   C3    A    
C7    C10   S    
O8    V1    S    
S1    O22   D    
O1    V3    S    
O3    C2    A    
O2    V4    S    
S2    O25   D    
C6    C11   S    
O11   V2    S    
H2    C17   S    
O29   H11   S    
C4    C13   S    
O9    V1    S    
C12   C20   D    
O15   C7    A    
C13   C21   D    
O16   C8    A    
O7    V2    S    
C8    C9    S    
C14   C22   D    
C9    S2    S    
S4    O32   S    
C10   S1    S    
C9    C17   D    
O5    V1    S    
S5    O34   D    
O17   V1    S    
O19   V3    S    
S3    O27   D    
O20   V4    S    
S4    O31   D    
O35   H13   S    
S1    O23   S    
H1    C18   S    
O38   H14   S    
S8    O44   S    
C19   C20   S    
O23   H9    S    
S3    O28   D    
O32   H12   S    
S2    O24   D    
C5    C12   S    
O10   V2    S    
H7    C24   S    
C21   C22   S    
H8    C23   S    
O12   C4    A    
S8    O43   D    
O8    C5    A    
C16   S7    S    
O13   C5    A    
H4    C19   S    
C10   C18   D    
H5    C22   S    
O9    C1    A    
O6    V2    S    
C17   C18   S    
S6    O37   D    
S7    O40   D    
O4    C1    A    
O7    C6    A    
C15   C23   D    
S5    O35   S    
C16   C24   D    
O1    C4    A    
S2    O26   S    
O2    C3    A    
O13   V3    S    
O14   V4    S    
S4    O30   D    
C14   S5    S    
O18   V2    S    
S6    O38   S    
S3    O29   S    
O14   C6    A    
O20   V2    S    
C11   C19   D    
S1    O21   D    
O5    C8    A    
O10   C2    A    
O6    C7    A    
S8    O42   D    
O26   H10   S    
O3    V4    S    
O4    V3    S    
S6    O36   D    
S7    O41   S    
H3    C20   S    
C12   S3    S    
