data_mof_unit_65724.cif
_audit_creation_date              2013-03-05T16:54:04-0500
_audit_creation_method            fapswitch 2.2
_symmetry_space_group_name_H-M    P1
_symmetry_Int_Tables_number       1
_space_group_crystal_system       triclinic
_cell_length_a                    10.481311
_cell_length_b                    17.552788
_cell_length_c                    16.782109
_cell_angle_alpha                 90.878698
_cell_angle_beta                  102.518729
_cell_angle_gamma                 90.383269
_cell_volume                      3013.5912159

loop_
_atom_site_label
_atom_site_type_symbol
_atom_site_description
_atom_site_fract_x
_atom_site_fract_y
_atom_site_fract_z
_atom_type_partial_charge
O1    O     O_R   0.500000 0.389130 0.566570 -0.618416
O2    O     O_R   0.500000 0.610870 0.433430 -0.621647
O3    O     O_R   0.499990 0.389100 0.433480 -0.590368
O4    O     O_R   0.500010 0.610900 0.566520 -0.567194
C1    C     C_R   0.500178 0.352368 0.499426 0.875213
C2    C     C_R   0.497570 0.646515 0.500236 0.899563
O5    O     O_R   0.317810 0.500010 0.541690 -0.630377
O6    O     O_R   0.682190 0.499990 0.458310 -0.630594
O7    O     O_R   0.317800 0.499990 0.408610 -0.557009
O8    O     O_R   0.682200 0.500010 0.591390 -0.562918
C3    C     C_R   0.256804 0.497011 0.467216 0.936850
C4    C     C_R   0.743097 0.495800 0.532516 0.955909
Zn1   Zn    Zn3+2 0.500010 0.500020 0.588860 1.021709
Zn2   Zn    Zn3+2 0.499990 0.499980 0.411140 1.013336
C5    C     C_2   0.116932 0.483413 0.451752 -0.315711
C6    C     C_2   0.881993 0.479184 0.546699 -0.373254
C7    C     C_2   0.067180 0.433077 0.497014 -0.023343
C8    C     C_2   0.928403 0.433614 0.494032 -0.059181
H1    H     H_    0.948291 0.507910 0.597175 0.189799
H2    H     H_    0.053176 0.519106 0.408167 0.161633
C9    C     C_R   0.352548 0.838337 0.527189 0.301573
C10   C     C_R   0.450712 0.148146 0.417475 0.291175
C11   C     C_R   0.375736 0.759691 0.532070 -0.149081
C12   C     C_R   0.479629 0.226482 0.421478 -0.161832
C13   C     C_R   0.477371 0.728331 0.498689 -0.152777
C14   C     C_R   0.488576 0.268024 0.496443 -0.177688
C15   C     C_R   0.553662 0.775084 0.459555 -0.019988
C16   C     C_R   0.477604 0.227539 0.567565 -0.012030
C17   C     C_R   0.529276 0.852472 0.454468 -0.192246
C18   C     C_R   0.448589 0.150249 0.561953 -0.213321
H3    H     H_    0.589360 0.889080 0.425651 0.184097
H4    H     H_    0.440850 0.119338 0.616326 0.175687
C19   C     C_R   0.430400 0.883612 0.488010 -0.016069
C20   C     C_R   0.433383 0.111537 0.487855 -0.003035
C21   C     C_1   0.420079 0.963754 0.487838 0.109977
C22   C     C_1   0.420914 0.031378 0.487901 0.094638
C23   C     C_R   0.393482 0.466447 0.816740 -0.063649
C24   C     C_R   0.614544 0.527614 0.185236 -0.067859
C25   C     C_R   0.396656 0.468495 0.732912 -0.071016
C26   C     C_R   0.608338 0.526651 0.268659 -0.081235
H5    H     H_    0.315743 0.444967 0.688059 0.161578
H6    H     H_    0.690975 0.547261 0.314487 0.163730
N1    N     N_R   0.500030 0.500030 0.707240 -0.148459
N2    N     N_R   0.499970 0.499970 0.292760 -0.147305
C27   C     C_R   0.602907 0.530696 0.764102 0.447233
C28   C     C_R   0.394259 0.474192 0.234509 0.443113
C29   C     C_R   0.603915 0.528611 0.848126 -0.288599
C30   C     C_R   0.396461 0.475560 0.150918 -0.286257
H7    H     H_    0.685925 0.553285 0.891776 0.196279
H8    H     H_    0.312246 0.454824 0.106169 0.197166
C31   C     C_R   0.499033 0.497050 0.875694 0.037279
C32   C     C_R   0.506682 0.501523 0.125037 0.037884
C33   C     C_1   0.501966 0.498268 0.963810 0.030332
C34   C     C_1   0.505578 0.500047 0.037158 0.029518
C35   C     C_1   0.846367 0.387458 0.430472 0.258365
N3    N     N_1   0.781706 0.350531 0.379481 -0.172156
C36   C     C_1   0.144722 0.376172 0.546816 0.230218
N4    N     N_1   0.205625 0.330171 0.586294 -0.198025
N5    N     N_R   0.251128 0.872010 0.561583 0.203228
O9    O     O_R   0.172094 0.921463 0.520608 -0.350957
O10   O     O_R   0.238751 0.854362 0.634575 -0.343603
N6    N     N_R   0.440691 0.105367 0.342369 0.199569
O11   O     O_R   0.339372 0.061786 0.314659 -0.335712
O12   O     O_R   0.535721 0.106839 0.303735 -0.355262
C37   C     C_1   0.289259 0.710931 0.565907 0.306006
N7    N     N_1   0.220225 0.671957 0.592814 -0.152689
C38   C     C_1   0.498935 0.261951 0.347509 0.412279
N8    N     N_1   0.514431 0.289471 0.288019 -0.120572
C39   C     C_1   0.659634 0.745287 0.426057 0.240911
N9    N     N_1   0.744384 0.721367 0.399278 -0.174611
C40   C     C_1   0.498169 0.261953 0.648300 0.263626
N10   N     N_1   0.514667 0.289131 0.713056 -0.171695
C41   C     C_1   0.281539 0.433066 0.840537 0.217764
N11   N     N_1   0.191706 0.406294 0.859621 -0.138030
C42   C     C_1   0.731857 0.555272 0.163116 0.217138
N12   N     N_1   0.826006 0.577426 0.145383 -0.127864
N13   N     N_R   0.710417 0.566729 0.739512 0.216111
O13   O     O_R   0.692149 0.630060 0.699687 -0.353001
O14   O     O_R   0.829150 0.546842 0.772779 -0.383725
N14   N     N_R   0.279552 0.444874 0.256856 0.216335
O15   O     O_R   0.165201 0.469092 0.220021 -0.381783
O16   O     O_R   0.286417 0.383586 0.299984 -0.374677

loop_
_geom_bond_atom_site_label_1
_geom_bond_atom_site_label_2
_geom_bond_distance
_ccdc_geom_bond_type
O5    Zn1   1.902160 S    
C24   C26   1.415900 A    
C35   N3    1.156467 T    
C15   C17   1.384398 A    
C41   N11   1.157314 T    
C21   C22   1.186943 T    
O7    Zn2   1.900840 S    
C29   H7    1.084142 S    
N13   O13   1.299709 A    
O5    C3    1.274677 A    
O1    C1    1.290244 A    
C12   C14   1.429334 A    
C9    N5    1.440992 S    
C23   C31   1.411586 A    
C2    C13   1.452834 S    
C24   C32   1.411453 A    
C17   C19   1.393079 A    
C27   C29   1.408882 A    
O4    Zn1   1.987672 S    
N6    O12   1.301252 A    
C12   C38   1.449285 S    
C3    C5    1.449852 S    
C4    C6    1.455583 S    
N2    C28   1.377755 A    
C15   C39   1.446625 S    
C30   H8    1.084227 S    
N5    O9    1.301352 A    
O2    C2    1.280685 A    
C32   C34   1.472168 S    
C24   C42   1.442503 S    
N13   O14   1.301100 A    
C5    H2    1.087132 S    
C10   C20   1.398451 A    
C28   C30   1.408573 A    
N5    O10   1.301277 A    
C18   C20   1.385709 A    
C38   N8    1.157794 T    
O4    C2    1.279870 A    
C25   N1    1.366613 A    
C33   C34   1.223197 T    
C31   C33   1.472235 S    
C42   N12   1.157277 T    
N6    O11   1.301271 A    
C10   N6    1.440866 S    
O7    C3    1.285503 A    
C30   C32   1.395533 A    
O6    C4    1.273804 A    
C7    C8    1.444635 S    
C6    C8    1.351868 D    
N1    C27   1.376031 A    
O3    Zn2   1.987672 S    
O8    C4    1.288739 A    
C8    C35   1.449154 S    
N14   O16   1.299478 A    
C9    C11   1.403837 A    
C10   C12   1.403515 A    
C16   C40   1.446957 S    
O1    Zn1   1.976404 S    
Zn1   N1    1.986616 S    
Zn2   N2    1.986620 S    
C5    C7    1.347473 D    
C23   C41   1.442418 S    
O6    Zn2   1.902160 S    
N14   O15   1.301159 A    
O3    C1    1.288990 A    
O8    Zn1   1.900840 S    
C29   C31   1.396286 A    
C13   C15   1.406978 A    
C14   C16   1.423828 A    
C11   C37   1.450582 S    
C16   C18   1.385642 A    
C40   N10   1.157579 T    
C23   C25   1.415397 A    
C18   H4    1.086411 S    
C36   N4    1.156858 T    
C6    H1    1.087057 S    
C26   H6    1.082156 S    
C19   C21   1.411589 S    
C20   C22   1.412239 S    
C11   C13   1.417296 A    
C39   N9    1.157401 T    
O2    Zn2   1.976400 S    
C1    C14   1.483828 S    
C26   N2    1.367814 A    
C9    C19   1.403442 A    
C25   H5    1.079541 S    
C17   H3    1.086048 S    
C37   N7    1.157563 T    
C27   N13   1.428345 S    
C28   N14   1.429712 S    
C7    C36   1.448714 S    
