data_mof_unit_6700.cif
_audit_creation_date              2013-03-05T16:44:03-0500
_audit_creation_method            fapswitch 2.2
_symmetry_space_group_name_H-M    P1
_symmetry_Int_Tables_number       1
_space_group_crystal_system       triclinic
_cell_length_a                    19.026668
_cell_length_b                    10.649893
_cell_length_c                    9.884213
_cell_angle_alpha                 89.506628
_cell_angle_beta                  91.169221
_cell_angle_gamma                 90.875339
_cell_volume                      2002.13793707

loop_
_atom_site_label
_atom_site_type_symbol
_atom_site_description
_atom_site_fract_x
_atom_site_fract_y
_atom_site_fract_z
_atom_type_partial_charge
O1    O     O_R   0.500010 0.316790 0.614690 -0.634059
O2    O     O_R   0.500000 0.316760 0.385350 -0.626176
C1    C     C_R   0.499964 0.260342 0.500291 0.880445
O3    O     O_R   0.398140 0.500000 0.614710 -0.601075
O4    O     O_R   0.398130 0.499970 0.385370 -0.600642
C2    C     C_R   0.365510 0.499170 0.498991 0.969006
Zn1   Zn    Zn3+2 0.500000 0.500020 0.653130 1.070137
Zn2   Zn    Zn3+2 0.500000 0.499980 0.346870 1.064067
O5    O     O_R   0.500000 0.683240 0.614650 -0.590708
O6    O     O_R   0.499990 0.683210 0.385310 -0.589494
O7    O     O_R   0.601870 0.500030 0.614630 -0.544939
O8    O     O_R   0.601860 0.500000 0.385290 -0.542923
C3    C     C_R   0.500705 0.739594 0.499244 0.944938
C4    C     C_R   0.635057 0.495136 0.501757 0.975488
C5    C     C_R   0.247202 0.554363 0.579965 0.197947
C6    C     C_R   0.176217 0.521107 0.590735 0.597816
C7    C     C_R   0.148302 0.416406 0.521164 -0.253708
C8    C     C_R   0.191645 0.342121 0.441503 0.274855
C9    C     C_R   0.262276 0.376184 0.430437 -0.228003
H1    H     H_    0.296905 0.316245 0.375367 0.225796
C10   C     C_R   0.289958 0.481082 0.498263 -0.280705
N1    N     N_R   0.036261 0.385665 0.402276 -0.096159
N2    N     N_R   0.966453 0.385419 0.400319 -0.126375
C11   C     C_R   0.930901 0.395726 0.517109 0.361659
N3    N     N_R   0.967547 0.402093 0.636068 -0.121878
N4    N     N_R   0.037250 0.402404 0.638123 -0.057344
C12   C     C_R   0.072615 0.395825 0.521112 0.447536
C13   C     C_R   0.821988 0.453265 0.631433 -0.146469
H2    H     H_    0.851432 0.463018 0.725847 0.209012
C14   C     C_R   0.750898 0.480981 0.629672 0.274198
C15   C     C_R   0.711165 0.471203 0.506957 -0.305545
C16   C     C_R   0.744590 0.429099 0.389841 0.679303
C17   C     C_R   0.815783 0.401767 0.393774 -0.169377
H3    H     H_    0.840182 0.370656 0.302116 0.211061
C18   C     C_R   0.854928 0.414427 0.514255 -0.078531
C19   C     C_R   0.553914 0.065157 0.569627 0.060805
C20   C     C_R   0.501703 0.128492 0.497837 -0.114521
C21   C     C_R   0.457487 0.064318 0.406184 -0.176409
H4    H     H_    0.420196 0.113922 0.342174 0.192136
C22   C     C_R   0.458253 0.934613 0.404425 -0.080747
H5    H     H_    0.421327 0.884028 0.339221 0.189193
C23   C     C_R   0.503186 0.871421 0.494765 -0.097647
C24   C     C_R   0.554701 0.936880 0.568098 0.030576
C25   C     C_3   0.578824 0.927198 0.713047 0.037735
C26   C     C_3   0.577228 0.071006 0.715140 0.004380
H6    H     H_    0.539793 0.880658 0.779916 0.143729
H7    H     H_    0.536782 0.108819 0.781938 0.097491
C27   C     C_R   0.446615 0.442317 0.069374 0.101013
N5    N     N_R   0.499530 0.499140 0.142800 -0.213411
C28   C     C_R   0.547467 0.571022 0.072336 0.217114
C29   C     C_R   0.547011 0.570861 0.928424 0.635613
N6    N     N_R   0.499530 0.499180 0.857150 -0.179817
C30   C     C_R   0.447125 0.441632 0.927145 0.073696
C31   C     C_3   0.426598 0.306731 0.919740 -0.460051
C32   C     C_3   0.425202 0.306394 0.073573 0.101248
H8    H     H_    0.374361 0.292779 0.869094 0.242212
H9    H     H_    0.469027 0.248664 0.879775 0.183736
H10   H     H_    0.464787 0.244819 0.123749 0.133852
N7    N     N_R   0.274815 0.663506 0.649135 0.249020
O9    O     O_R   0.320609 0.737316 0.591427 -0.394086
O10   O     O_R   0.251327 0.693758 0.767008 -0.243678
N8    N     N_R   0.649480 0.875420 0.728646 0.308235
O11   O     O_R   0.679644 0.820927 0.628180 -0.314591
O12   O     O_R   0.679769 0.873062 0.847788 -0.190841
N9    N     N_R   0.646302 0.131769 0.734530 0.276852
O13   O     O_R   0.680639 0.178523 0.632629 -0.351934
O14   O     O_R   0.671549 0.147177 0.856629 -0.255797
N10   N     N_R   0.598326 0.647556 0.142312 0.270326
O15   O     O_R   0.580558 0.759017 0.180317 -0.342221
O16   O     O_R   0.664693 0.624248 0.128829 -0.209661
F1    F     F_    0.594010 0.642853 0.860758 -0.570799
N11   N     N_R   0.353884 0.285934 0.122432 0.219462
O17   O     O_R   0.332142 0.171608 0.145714 -0.344301
O18   O     O_R   0.308041 0.375452 0.115463 -0.320828
F2    F     F_    0.133247 0.595530 0.662189 -0.566156
N12   N     N_R   0.165547 0.229917 0.376307 0.240963
O19   O     O_R   0.192740 0.193136 0.263955 -0.247482
O20   O     O_R   0.120032 0.156894 0.435867 -0.315556
N13   N     N_R   0.720573 0.516341 0.754730 0.268333
O21   O     O_R   0.744601 0.616190 0.816009 -0.223436
O22   O     O_R   0.686990 0.431573 0.824773 -0.274128
F3    F     F_    0.708410 0.409950 0.271893 -0.578781

loop_
_geom_bond_atom_site_label_1
_geom_bond_atom_site_label_2
_geom_bond_distance
_ccdc_geom_bond_type
C27   C32   1.498260 S    
C6    F2    1.359572 S    
C9    H1    1.082287 S    
C4    C15   1.473967 S    
C30   C31   1.485075 S    
C25   C26   1.532633 S    
Zn1   O7    1.982852 S    
N4    C12   1.352734 A    
C20   C21   1.399123 A    
C13   H2    1.083542 S    
C9    C10   1.398352 A    
N12   O20   1.301408 A    
Zn1   N6    2.016722 S    
C14   C15   1.419844 A    
O7    C4    1.294943 A    
C5    C6    1.396971 A    
C7    C8    1.408231 A    
C8    C9    1.392824 A    
O5    C3    1.284580 A    
N8    O12   1.300691 A    
C13   C18   1.396840 A    
N10   O15   1.299850 A    
N9    O14   1.300589 A    
C19   C20   1.388801 A    
N2    C11   1.355920 A    
C32   N11   1.462145 S    
C22   C23   1.399009 A    
N7    O9    1.301564 A    
C29   F1    1.352573 S    
O3    Zn1   1.967291 S    
C3    C23   1.404368 S    
C25   H6    1.112275 S    
C28   C29   1.422327 A    
C26   H7    1.106840 S    
C27   C30   1.406142 A    
C31   H8    1.112200 S    
N7    O10   1.301172 A    
C11   C18   1.461848 S    
C29   N6    1.362876 A    
C7    C12   1.453335 S    
C21   H4    1.081746 S    
C11   N3    1.356374 A    
O3    C2    1.290274 A    
N13   O22   1.300871 A    
C6    C7    1.406593 A    
C25   N8    1.465555 S    
N3    N4    1.325919 A    
C2    C10   1.447317 S    
O1    C1    1.285155 A    
C24   C25   1.498665 S    
N8    O11   1.302171 A    
C15   C16   1.411823 A    
Zn2   O8    1.967289 S    
C17   H3    1.083099 S    
C19   C26   1.497991 S    
N12   O19   1.300582 A    
C14   N13   1.430530 S    
N11   O18   1.302407 A    
C22   H5    1.084042 S    
O8    C4    1.302751 A    
N5    C28   1.377830 A    
N1    C12   1.355215 A    
C26   N9    1.465806 S    
C23   C24   1.389573 A    
N6    C30   1.360376 A    
Zn1   O5    1.984780 S    
C31   C32   1.521262 S    
C27   N5    1.365905 A    
C8    N12   1.439390 S    
O1    Zn1   1.991238 S    
C5    N7    1.440459 S    
O2    Zn2   1.984778 S    
N11   O17   1.300087 A    
O6    C3    1.280526 A    
O4    Zn2   1.982853 S    
C16   F3    1.357081 S    
C16   C17   1.389528 A    
C13   C14   1.388552 A    
O2    C1    1.280633 A    
C21   C22   1.381907 A    
O4    C2    1.294082 A    
C17   C18   1.398059 A    
N13   O21   1.300605 A    
C5    C10   1.407148 A    
C1    C20   1.405513 S    
Zn2   O6    1.991238 S    
N9    O13   1.302888 A    
C32   H10   1.112438 S    
N10   O16   1.300344 A    
N1    N2    1.327913 A    
C19   C24   1.366667 A    
C28   N10   1.427398 S    
Zn2   N5    2.017005 S    
C31   H9    1.105732 S    
