data_mof_unit_10465.cif
_audit_creation_date              2012-12-10T18:06:00-0500
_audit_creation_method            fapswitch 2.2
_symmetry_space_group_name_H-M    P1
_symmetry_Int_Tables_number       1
_space_group_crystal_system       triclinic
_cell_length_a                    12.685772
_cell_length_b                    13.187593
_cell_length_c                    14.921435
_cell_angle_alpha                 94.646442
_cell_angle_beta                  101.590084
_cell_angle_gamma                 83.630873
_cell_volume                      2425.86171705

loop_
_atom_site_label
_atom_site_type_symbol
_atom_type_description
_atom_site_fract_x
_atom_site_fract_y
_atom_site_fract_z
_atom_type_partial_charge
C1    C     C_R   0.440244 0.691555 0.491502 0.845332
C2    C     C_R   0.526941 0.585865 0.828900 0.144889
C3    C     C_R   0.501665 0.499824 0.769737 -0.068997
C4    C     C_R   0.500376 0.500629 0.673051 0.881603
C5    C     C_R   0.477817 0.410736 0.802442 -0.247524
C6    C     C_R   0.697877 0.084670 0.639895 0.449914
C7    C     C_R   0.590764 0.204875 0.535409 -0.148868
C8    C     C_R   0.301127 0.832994 0.437457 -0.202883
C9    C     C_R   0.262790 0.936141 0.437964 -0.160270
C10   C     C_R   0.329030 0.010542 0.483340 0.137020
C11   C     C_R   0.439056 0.978912 0.521247 0.100780
C12   C     C_R   0.477189 0.403666 0.083317 -0.078466
C13   C     C_R   0.466331 0.875744 0.538988 0.035786
C14   C     C_R   0.522287 0.044672 0.546921 0.042817
C15   C     C_R   0.616654 0.016084 0.612855 0.025255
C16   C     C_R   0.559069 0.309447 0.511281 0.851398
C17   C     C_R   0.624845 0.920891 0.649889 -0.223335
C18   C     C_R   0.552474 0.851042 0.610305 -0.149495
C19   C     C_R   0.517366 0.133952 0.502804 -0.250322
C20   C     C_R   0.681310 0.180417 0.603357 -0.206568
C21   C     C_R   0.402336 0.801333 0.490015 -0.126850
C22   C     C_R   0.099784 0.314443 0.408938 0.352813
C23   C     C_R   0.607621 0.642622 0.078652 -0.320528
C24   C     C_R   0.797573 0.634226 0.610204 0.394054
C25   C     C_R   0.902754 0.666157 0.637034 0.282015
C26   C     C_R   0.989634 0.606538 0.610198 0.420316
C27   C     C_R   0.970878 0.521614 0.546866 -0.220401
C28   C     C_R   0.499550 0.498971 0.327280 0.849544
C29   C     C_R   0.861989 0.494017 0.518327 0.024420
C30   C     C_R   0.054430 0.463435 0.507376 -0.117307
C31   C     C_R   0.035031 0.364590 0.468190 0.034286
C32   C     C_R   0.939556 0.325824 0.476380 0.415000
C33   C     C_R   0.848664 0.397223 0.468969 0.058070
C34   C     C_R   0.609646 0.644045 0.985767 0.421765
C35   C     C_R   0.152988 0.500257 0.500506 -0.072730
C36   C     C_R   0.193566 0.358184 0.399562 0.165801
C37   C     C_R   0.466210 0.411618 0.175121 -0.243181
C38   C     C_R   0.500610 0.495715 0.231708 -0.033881
C39   C     C_R   0.547113 0.572400 0.199880 -0.233602
C40   C     C_R   0.557397 0.567323 0.109423 0.115936
C41   C     C_R   0.519213 0.484895 0.049792 0.023262
C42   C     C_3   0.273774 0.114658 0.507633 -0.438619
C43   C     C_3   0.286688 0.136629 0.611214 -0.735890
C44   C     C_3   0.259034 0.312107 0.329238 -0.432973
C45   C     C_R   0.552970 0.572938 0.923333 0.078363
C46   C     C_3   0.212489 0.354847 0.235662 -0.827723
C47   C     C_3   0.775741 0.384378 0.375557 -0.333499
C48   C     C_3   0.787115 0.466739 0.312321 -0.798400
C49   C     C_3   0.511541 0.692037 0.792591 -0.407585
C50   C     C_3   0.398134 0.718747 0.736235 -0.846460
C51   C     C_R   0.519626 0.486319 0.956476 -0.090743
C52   C     C_R   0.482412 0.403947 0.896013 -0.075263
C53   C     C_R   0.450139 0.317833 0.930802 0.433210
C54   C     C_R   0.446180 0.318236 0.023833 0.410100
H1    H     H_    0.433144 0.353032 0.204485 0.145344
H2    H     H_    0.452091 0.349198 0.753151 0.158539
H3    H     H_    0.738730 0.235988 0.628918 0.188811
H4    H     H_    0.813651 0.988946 0.698365 0.336939
H5    H     H_    0.258216 0.073828 0.642673 0.272928
H6    H     H_    0.372329 0.145304 0.643166 0.252382
H7    H     H_    0.237702 0.209094 0.625585 0.253253
H8    H     H_    0.302279 0.177590 0.477830 0.207896
H9    H     H_    0.185666 0.117303 0.479604 0.268420
H10   H     H_    0.225527 0.436930 0.237450 0.280887
H11   H     H_    0.252907 0.312141 0.182710 0.269666
H12   H     H_    0.687464 0.897968 0.707056 0.158967
H13   H     H_    0.124440 0.347516 0.215413 0.253022
H14   H     H_    0.344042 0.326281 0.348712 0.261583
H15   H     H_    0.262334 0.227456 0.323708 0.177624
H16   H     H_    0.856706 0.210119 0.472517 0.324393
H17   H     H_    0.091650 0.219268 0.299778 0.342206
H18   H     H_    0.749207 0.698994 0.717789 0.326708
H19   H     H_    0.134555 0.561344 0.669484 0.331165
H20   H     H_    0.858505 0.800505 0.687340 0.318058
H21   H     H_    0.761921 0.544385 0.339722 0.272096
H22   H     H_    0.872760 0.464515 0.304835 0.244544
H23   H     H_    0.455831 0.149747 0.442831 0.148445
H24   H     H_    0.737676 0.451416 0.243318 0.251541
H25   H     H_    0.799366 0.311168 0.338651 0.212032
H26   H     H_    0.693254 0.372290 0.380248 0.221922
H27   H     H_    0.706881 0.752148 0.008639 0.345231
H28   H     H_    0.386018 0.676990 0.668291 0.257267
H29   H     H_    0.335609 0.701480 0.773784 0.293684
H30   H     H_    0.386541 0.801653 0.724276 0.260794
H31   H     H_    0.520148 0.753132 0.848113 0.268027
H32   H     H_    0.575080 0.696580 0.753600 0.241042
H33   H     H_    0.469295 0.218034 0.831370 0.320272
H34   H     H_    0.249239 0.777634 0.399816 0.175748
H35   H     H_    0.454765 0.220328 0.115846 0.317312
H36   H     H_    0.179886 0.957443 0.405285 0.169532
H37   H     H_    0.559166 0.778886 0.638147 0.213435
H38   H     H_    0.575958 0.635678 0.246134 0.149162
H39   H     H_    0.175576 0.573613 0.530718 0.197116
H40   H     H_    0.645185 0.700270 0.126855 0.148818
N1    N     N_R   0.222190 0.444670 0.452360 -0.131239
N2    N     N_R   0.776970 0.554790 0.547140 -0.128235
O1    O     O_R   0.366740 0.627160 0.477250 -0.617660
O2    O     O_3   0.929266 0.222165 0.462569 -0.703990
O3    O     O_3   0.064974 0.227675 0.357825 -0.732081
O4    O     O_3   0.716845 0.673317 0.655160 -0.768966
O5    O     O_3   0.091418 0.627590 0.655500 -0.707859
O6    O     O_3   0.924319 0.751635 0.694836 -0.691463
O7    O     O_3   0.671841 0.709133 0.955796 -0.784461
O8    O     O_3   0.420952 0.231882 0.876287 -0.701005
O9    O     O_3   0.412863 0.232848 0.053641 -0.706374
O10   O     O_R   0.544830 0.662520 0.507680 -0.560631
O11   O     O_R   0.410940 0.482340 0.616930 -0.616827
O12   O     O_R   0.589030 0.517700 0.647360 -0.557289
O13   O     O_R   0.455170 0.337480 0.492320 -0.633400
O14   O     O_R   0.633260 0.372840 0.522750 -0.632918
O15   O     O_R   0.410970 0.482300 0.352640 -0.623820
O16   O     O_R   0.589060 0.517660 0.383070 -0.620107
O17   O     O_3   0.792263 0.063248 0.702446 -0.741377
Zn1   Zn    Zn3+2 0.381090 0.476390 0.479680 0.935498
Zn2   Zn    Zn3+2 0.618910 0.523610 0.520320 0.986002

loop_
_geom_bond_atom_site_label_1
_geom_bond_atom_site_label_2
_ccdc_geom_bond_type
C1    C21   S    
C27   C29   A    
C48   H22   S    
C5    H2    S    
C47   H25   S    
C50   H30   S    
C6    O17   S    
C53   C54   A    
C28   O16   A    
C4    O12   A    
C50   H28   S    
C17   H12   S    
C37   C38   A    
C13   C18   A    
C18   H37   S    
O12   Zn2   S    
C24   N2    A    
C26   O5    S    
H18   O4    S    
C30   C31   A    
C11   C14   A    
C25   O6    S    
C10   C42   S    
C45   C51   A    
N1    Zn1   S    
C23   C40   A    
C29   C33   A    
C48   H24   S    
C12   C37   A    
C19   H23   S    
C6    C15   A    
C47   C48   S    
C8    C9    A    
C50   H29   S    
H4    O17   S    
C5    C52   A    
C9    C10   A    
C42   H8    S    
C43   H5    S    
C1    O10   A    
H20   O6    S    
H19   O5    S    
C2    C45   A    
C27   C30   A    
C48   H21   S    
C47   H26   S    
C49   H32   S    
C44   C46   S    
C16   O13   A    
C8    C21   A    
C35   H39   S    
C28   O15   A    
C4    O11   A    
C22   C31   A    
C16   O14   A    
C51   C52   A    
C49   H31   S    
C24   C25   A    
C46   H11   S    
C1    O1    A    
C39   C40   A    
C25   C26   A    
H17   O3    S    
C46   H10   S    
C8    H34   S    
O11   Zn1   S    
C12   C41   A    
C2    C49   S    
C31   C32   A    
C28   C38   S    
C23   C34   A    
C17   C18   A    
C26   C27   A    
C13   C21   A    
C44   H15   S    
N2    Zn2   S    
C34   C45   A    
O13   Zn1   S    
C43   H6    S    
C7    C16   S    
C49   C50   S    
C7    C19   A    
C33   C47   S    
C36   C44   S    
C42   C43   S    
C3    C4    S    
C39   H38   S    
C22   C36   A    
C52   C53   A    
C43   H7    S    
H27   O7    S    
C15   C17   A    
C40   C41   A    
C22   O3    S    
C54   O9    S    
C24   O4    S    
C14   C19   A    
C3    C5    A    
C9    H36   S    
C29   N2    A    
C35   N1    A    
C30   C35   A    
C34   O7    S    
C23   H40   S    
O10   Zn2   S    
C32   C33   A    
C2    C3    A    
O1    Zn1   S    
C46   H13   S    
C11   C13   A    
C36   N1    A    
C38   C39   A    
C6    C20   A    
C42   H9    S    
C32   O2    S    
O15   Zn1   S    
C44   H14   S    
C10   C11   A    
H33   O8    S    
C37   H1    S    
C7    C20   A    
H35   O9    S    
C14   C15   A    
C53   O8    S    
C20   H3    S    
O14   Zn2   S    
C41   C51   A    
O16   Zn2   S    
C12   C54   A    
H16   O2    S    
