data_mof_unit_60307.cif
_audit_creation_date              2012-12-11T15:59:39-0500
_audit_creation_method            fapswitch 2.2
_symmetry_space_group_name_H-M    P1
_symmetry_Int_Tables_number       1
_space_group_crystal_system       triclinic
_cell_length_a                    6.967943
_cell_length_b                    20.132526
_cell_length_c                    21.727661
_cell_angle_alpha                 92.845374
_cell_angle_beta                  88.772386
_cell_angle_gamma                 90.817715
_cell_volume                      3043.28335948

loop_
_atom_site_label
_atom_site_type_symbol
_atom_type_description
_atom_site_fract_x
_atom_site_fract_y
_atom_site_fract_z
_atom_type_partial_charge
O1    O     O_R   0.505910 0.557140 0.441630 -0.522065
O2    O     O_R   0.175760 0.566370 0.557960 -0.523469
O3    O     O_R   0.005440 0.442860 0.558370 -0.527677
C1    C     C_R   0.344190 0.584116 0.580667 0.723804
O4    O     O_R   0.176200 0.564760 0.442040 -0.522221
O5    O     O_R   0.005880 0.441250 0.441620 -0.521300
C2    C     C_R   0.347420 0.582473 0.419615 0.695482
O6    O     O_R   0.505470 0.558750 0.558380 -0.519770
O7    O     O_3   0.339200 0.459480 0.500000 -0.349137
V1    V     V_3+5 0.064350 0.507520 0.500000 1.438747
O8    O     O_R   0.676160 0.433630 0.442040 -0.522469
C3    C     C_R   0.845631 0.415475 0.419888 0.718106
O9    O     O_R   0.675730 0.435240 0.557960 -0.526661
C4    C     C_R   0.841937 0.420465 0.577621 0.746788
V2    V     V_3+5 0.564340 0.492480 0.500000 1.454688
O10   O     O_3   0.839360 0.540520 0.500000 -0.361560
C5    C     C_3   0.012692 0.319554 0.760781 -0.235085
C6    C     C_3   0.677954 0.277322 0.743104 -0.362487
C7    C     C_3   0.700364 0.228472 0.795094 -0.232241
H1    H     H_    0.939537 0.362181 0.785404 0.163988
H2    H     H_    0.571575 0.256829 0.709484 0.208577
H3    H     H_    0.621975 0.325795 0.762042 0.186153
H4    H     H_    0.609220 0.183868 0.783987 0.154592
C8    C     C_1   0.934312 0.119483 0.883937 -0.129862
C9    C     C_3   0.874263 0.289314 0.710748 0.087592
C10   C     C_3   0.055363 0.266511 0.807883 0.006927
C11   C     C_3   0.914253 0.205936 0.797757 0.088806
C12   C     C_3   0.963713 0.170985 0.733827 -0.057956
C13   C     C_3   0.954355 0.222054 0.682937 0.022021
C14   C     C_1   0.930101 0.158753 0.845154 0.020609
C15   C     C_1   0.852576 0.335560 0.662720 0.015528
C16   C     C_1   0.844924 0.374198 0.623479 -0.133588
H5    H     H_    0.101085 0.231323 0.663865 0.159240
H6    H     H_    0.204578 0.248408 0.800520 0.145357
H7    H     H_    0.856255 0.130505 0.724612 0.181808
C17   C     C_1   0.921361 0.130496 0.138347 -0.192206
C18   C     C_1   0.909959 0.173860 0.181131 0.019699
C19   C     C_1   0.895517 0.225042 0.232011 0.018273
C20   C     C_1   0.883138 0.268172 0.274971 0.017843
C21   C     C_1   0.868696 0.319352 0.325852 0.018322
C22   C     C_1   0.857296 0.362711 0.368641 -0.194523
C23   C     C_1   0.354403 0.635389 0.633668 -0.204668
C24   C     C_1   0.366361 0.677010 0.678115 0.016532
C25   C     C_1   0.382389 0.725975 0.731155 0.014892
C26   C     C_1   0.396272 0.767136 0.775897 0.016340
C27   C     C_1   0.412302 0.816100 0.828938 0.020228
C28   C     C_1   0.424265 0.857721 0.873384 -0.200450
C29   C     C_1   0.361722 0.633835 0.368157 -0.199862
C30   C     C_1   0.372304 0.675698 0.325710 0.020474
C31   C     C_1   0.384458 0.725688 0.274796 0.007281
C32   C     C_1   0.394516 0.767433 0.232239 0.007007
C33   C     C_1   0.406661 0.817424 0.181325 0.019749
C34   C     C_1   0.417220 0.859288 0.138879 -0.200701
O11   O     O_R   0.273200 0.934350 0.948680 -0.519286
O12   O     O_R   0.602630 0.928390 0.064980 -0.522348
O13   O     O_R   0.772790 0.051930 0.065390 -0.521086
C35   C     C_R   0.431443 0.910654 0.087424 0.694947
O14   O     O_R   0.602920 0.926780 0.949060 -0.523523
O15   O     O_R   0.773080 0.050310 0.948640 -0.530119
C36   C     C_R   0.434483 0.909002 0.926377 0.722556
O16   O     O_R   0.272900 0.935970 0.065430 -0.522308
O17   O     O_3   0.439420 0.033650 0.007040 -0.349830
V3    V     V_3+5 0.714330 0.985650 0.007020 1.437756
O18   O     O_R   0.102790 0.057980 0.949020 -0.527214
C37   C     C_R   0.936589 0.072754 0.929395 0.751685
O19   O     O_R   0.102500 0.059590 0.064940 -0.522145
C38   C     C_R   0.933031 0.077726 0.087106 0.719211
V4    V     V_3+5 0.214320 0.000760 0.006970 1.455121
O20   O     O_3   0.939360 0.952680 0.006990 -0.361506
I1    I     I_    0.060801 0.310859 0.900559 -0.350730
C39   C     C_1   0.190943 0.347393 0.733667 0.304702
N1    N     N_1   0.327457 0.370268 0.711557 -0.366952
C40   C     C_1   0.623752 0.257089 0.854374 0.390607
N2    N     N_1   0.563129 0.279285 0.900822 -0.270981
I2    I     I_    0.792467 0.180750 0.605831 -0.336530
I3    I     I_    0.235891 0.120303 0.728936 -0.427523

loop_
_geom_bond_atom_site_label_1
_geom_bond_atom_site_label_2
_ccdc_geom_bond_type
C9    C15   S    
O19   V4    S    
C21   C22   T    
C6    H2    S    
C40   N2    T    
O2    C1    A    
C1    O6    A    
C17   C38   S    
O11   C36   A    
C26   C27   S    
C25   C26   T    
C10   C11   S    
C18   C19   S    
C5    C10   S    
O18   V4    S    
C12   C13   S    
O5    C3    A    
C19   C20   T    
O11   V4    S    
O14   C36   A    
V2    O10   S    
C13   H5    S    
C5    H1    S    
C6    C7    S    
C28   C36   S    
O8    V2    S    
C10   H6    S    
V3    O20   S    
C12   H7    S    
V4    O20   S    
O12   V3    S    
O1    V2    S    
C7    C11   S    
O7    V1    S    
O19   C38   A    
O1    C2    A    
O9    C4    A    
C11   C14   S    
C6    C9    S    
C9    C13   S    
C32   C33   S    
C7    C40   S    
C20   C21   S    
O4    C2    A    
C34   C35   S    
C7    H4    S    
C24   C25   S    
O17   V3    S    
C15   C16   T    
C31   C32   T    
O13   V3    S    
O3    C4    A    
C8    C37   S    
C29   C30   T    
C5    C39   S    
O6    V2    S    
O12   C35   A    
C10   I1    S    
C23   C24   T    
C12   I3    S    
C33   C34   T    
C3    C22   S    
O14   V3    S    
C27   C28   T    
C17   C18   T    
C6    H3    S    
C4    C16   S    
O5    V1    S    
O8    C3    A    
C35   O16   A    
C13   I2    S    
O13   C38   A    
O15   V3    S    
O17   V4    S    
C5    C9    S    
C2    C29   S    
O9    V2    S    
O7    V2    S    
O4    V1    S    
O3    V1    S    
V1    O10   S    
O18   C37   A    
O16   V4    S    
C1    C23   S    
C8    C14   T    
C39   N1    T    
C30   C31   S    
C11   C12   S    
O15   C37   A    
O2    V1    S    
