data_mof_unit_68242.cif
_audit_creation_date              2013-03-05T15:41:10-0500
_audit_creation_method            fapswitch 2.2
_symmetry_space_group_name_H-M    P1
_symmetry_Int_Tables_number       1
_space_group_crystal_system       triclinic
_cell_length_a                    15.822723
_cell_length_b                    8.879337
_cell_length_c                    7.78521
_cell_angle_alpha                 103.386808
_cell_angle_beta                  96.327615
_cell_angle_gamma                 95.121702
_cell_volume                      1050.10477982

loop_
_atom_site_label
_atom_site_type_symbol
_atom_site_description
_atom_site_fract_x
_atom_site_fract_y
_atom_site_fract_z
_atom_type_partial_charge
O1    O     O_R   0.506050 0.286130 0.619770 -0.572183
O2    O     O_R   0.490330 0.256780 0.308370 -0.550382
C1    C     C_R   0.496731 0.201170 0.454475 0.800370
O3    O     O_R   0.387300 0.514690 0.655770 -0.566872
O4    O     O_R   0.371580 0.485340 0.344370 -0.557240
C2    C     C_R   0.341004 0.494530 0.497649 0.776401
Cu1   Cu    Cu3+1 0.509300 0.517380 0.684380 1.114502
Cu2   Cu    Cu3+1 0.490700 0.482620 0.315620 1.110899
O5    O     O_R   0.509670 0.743220 0.691630 -0.542005
O6    O     O_R   0.493950 0.713870 0.380230 -0.552320
O7    O     O_R   0.628420 0.514660 0.655630 -0.544462
O8    O     O_R   0.612700 0.485310 0.344230 -0.547985
C3    C     C_R   0.503379 0.798834 0.545505 0.808369
C4    C     C_R   0.658966 0.505218 0.502163 0.789973
C5    C     C_3   0.052026 0.422781 0.642401 0.038651
C6    C     C_3   0.029130 0.378740 0.300566 0.324391
C7    C     C_3   0.927869 0.381923 0.310488 0.180244
C8    C     C_1   0.749004 0.513507 0.505936 -0.028813
C9    C     C_3   0.081859 0.479392 0.482514 -0.159554
C10   C     C_3   0.954955 0.440931 0.649424 0.318449
C11   C     C_3   0.915761 0.502520 0.488599 -0.185549
C12   C     C_3   0.966945 0.669211 0.497332 0.264847
C13   C     C_3   0.065383 0.655129 0.510712 -0.119340
C14   C     C_1   0.824488 0.514659 0.502123 0.119718
C15   C     C_1   0.174516 0.475493 0.485193 0.134766
C16   C     C_1   0.250698 0.482376 0.491055 -0.041544
H1    H     H_    0.092082 0.701554 0.404953 0.213817
H2    H     H_    0.089761 0.500348 0.763767 0.226830
C17   C     C_2   0.483083 0.033313 0.435216 -0.038384
C18   C     C_2   0.517160 0.966661 0.564653 -0.045979
N1    N     N_2   0.476670 0.456430 0.038530 0.009802
N2    N     N_2   0.523330 0.543570 0.961470 0.052386
I1    I     I_    0.878699 0.242898 0.690405 -0.080842
Br1   Br    Br    0.945880 0.590515 0.863914 -0.355625
I2    I     I_    0.935192 0.780264 0.287841 -0.065903
I3    I     I_    0.388382 0.915579 0.214460 -0.163131
I4    I     I_    0.612091 0.084203 0.784976 -0.137911
I5    I     I_    0.379753 0.286708 0.893729 -0.055116
Br2   Br    Br    0.609634 0.695555 0.101020 -0.267457
Br3   Br    Br    0.089276 0.223680 0.669762 -0.333037
Br4   Br    Br    0.071128 0.459000 0.113096 -0.402522
I6    I     I_    0.072403 0.149331 0.217338 -0.026729
I7    I     I_    0.856629 0.150450 0.244429 -0.089577
I8    I     I_    0.834210 0.411899 0.102433 -0.093460
I9    I     I_    0.145582 0.809076 0.743361 -0.130897
I10   I     I_    0.928379 0.867828 0.678327 -0.029595

loop_
_geom_bond_atom_site_label_1
_geom_bond_atom_site_label_2
_geom_bond_distance
_ccdc_geom_bond_type
O4    Cu2   1.924000 S    
C9    C13   1.574079 S    
C7    I7    2.174524 S    
C17   C18   1.367406 D    
C13   I9    2.190104 S    
C13   H1    1.108618 S    
C4    C8    1.416669 S    
N1    N2    1.309293 D    
N1    I5    2.076816 S    
Cu2   O8    1.915999 S    
C10   Br1   1.906061 S    
O2    C1    1.338466 A    
C7    I8    2.152092 S    
Cu1   Cu2   2.794823 S    
C11   C12   1.605770 S    
C5    C9    1.549775 S    
C12   I2    2.130080 S    
C17   I3    2.147686 S    
C1    C17   1.456881 S    
C5    H2    1.106573 S    
C2    C16   1.417641 S    
O3    Cu1   1.915998 S    
C8    C14   1.197184 T    
C10   I1    2.148346 S    
O3    C2    1.326574 A    
C12   I10   2.167746 S    
O8    C4    1.325436 A    
Cu1   O7    1.924000 S    
C6    C9    1.587918 S    
O4    C2    1.324357 A    
C9    C15   1.467538 S    
O7    C4    1.325240 A    
C7    C11   1.585478 S    
C5    Br3   1.962373 S    
C11   C14   1.471195 S    
C6    I6    2.184878 S    
C3    C18   1.456848 S    
C10   C11   1.567723 S    
Cu2   O6    1.992254 S    
N2    Br2   1.879187 S    
Cu1   O5    1.992463 S    
O5    C3    1.338603 A    
C12   C13   1.567643 S    
C6    C7    1.615007 S    
Cu1   N2    2.099957 S    
C15   C16   1.196779 T    
O1    Cu1   1.992254 S    
Cu2   N1    2.099958 S    
C6    Br4   1.921060 S    
O2    Cu2   1.992462 S    
C18   I4    2.147288 S    
C5    C10   1.564171 S    
O1    C1    1.317433 A    
O6    C3    1.317240 A    
