data_mof_unit_7623.cif
_audit_creation_date              2012-12-10T17:02:31-0500
_audit_creation_method            fapswitch 2.2
_symmetry_space_group_name_H-M    P1
_symmetry_Int_Tables_number       1
_space_group_crystal_system       triclinic
_cell_length_a                    10.846242
_cell_length_b                    10.99477
_cell_length_c                    9.934619
_cell_angle_alpha                 111.189314
_cell_angle_beta                  100.143408
_cell_angle_gamma                 91.869103
_cell_volume                      1081.36132361

loop_
_atom_site_label
_atom_site_type_symbol
_atom_type_description
_atom_site_fract_x
_atom_site_fract_y
_atom_site_fract_z
_atom_type_partial_charge
C1    C     C_R   0.490324 0.253946 0.440275 0.904651
C2    C     C_R   0.738761 0.502438 0.502533 0.813174
C3    C     C_R   0.173340 0.697237 0.770560 -0.045866
C4    C     C_R   0.858161 0.330183 0.264359 -0.065035
C5    C     C_R   0.130535 0.738930 0.902570 -0.133302
C6    C     C_R   0.891568 0.296720 0.126520 -0.232588
C7    C     C_R   0.002015 0.739947 0.900291 -0.025242
C8    C     C_R   0.982667 0.376464 0.104154 -0.014124
C9    C     C_R   0.918090 0.694033 0.761883 -0.097373
C10   C     C_R   0.058401 0.477369 0.228063 -0.051829
C11   C     C_R   0.959775 0.605796 0.637099 -0.050692
C12   C     C_R   0.510545 0.746063 0.559546 0.927764
C13   C     C_R   0.039716 0.491937 0.371357 0.011645
C14   C     C_R   0.090751 0.614468 0.637919 -0.002636
C15   C     C_R   0.923368 0.442931 0.383382 0.063825
C16   C     C_R   0.875866 0.513489 0.510247 -0.137610
C17   C     C_R   0.131846 0.549144 0.503656 -0.148557
C18   C     C_2   0.992260 0.352369 0.950155 0.902787
C19   C     C_2   0.960421 0.803979 0.041574 0.936383
C20   C     C_2   0.287359 0.774917 0.771971 0.869961
C21   C     C_2   0.768309 0.236491 0.285410 0.886698
C22   C     C_2   0.815323 0.776027 0.738910 0.852063
C23   C     C_2   0.480290 0.113804 0.406452 -0.233738
C24   C     C_2   0.142074 0.578518 0.210160 0.911130
C25   C     C_2   0.381750 0.391283 0.823208 0.930868
C26   C     C_2   0.623750 0.601347 0.174573 0.929848
C27   C     C_2   0.522603 0.886305 0.593032 -0.118961
C28   C     C_2   0.511666 0.069406 0.514674 -0.081247
C29   C     C_2   0.490308 0.930927 0.485194 -0.144600
C30   C     C_2   0.513925 0.508529 0.080868 0.013608
C31   C     C_2   0.487909 0.488978 0.918281 0.009032
C32   C     C_R   0.264377 0.518266 0.502585 0.792024
Cu1   Cu    Cu3+1 0.521920 0.521810 0.644910 1.061651
Cu2   Cu    Cu3+1 0.478080 0.478190 0.355090 1.014096
H1    H     H_    0.196699 0.790014 0.005580 0.183207
H2    H     H_    0.829540 0.809558 0.162942 0.351017
H3    H     H_    0.199694 0.828261 0.607564 0.328443
H4    H     H_    0.648662 0.198341 0.090104 0.305770
H5    H     H_    0.855100 0.778159 0.546777 0.306917
H6    H     H_    0.219386 0.766531 0.291460 0.339569
H7    H     H_    0.194664 0.352764 0.744303 0.342402
H8    H     H_    0.690037 0.787169 0.307958 0.340702
H9    H     H_    0.842571 0.211714 0.034068 0.172989
H10   H     H_    0.447798 0.864929 0.373867 0.208156
H11   H     H_    0.552797 0.135659 0.626415 0.211018
H12   H     H_    0.560320 0.953049 0.705603 0.186075
H13   H     H_    0.443717 0.046911 0.293636 0.177550
H14   H     H_    0.627007 0.623200 0.932551 0.267414
H15   H     H_    0.370488 0.379549 0.068264 0.234088
H16   H     H_    0.982970 0.423760 0.788732 0.348498
N1    N     N_2   0.445130 0.445420 0.137360 -0.312089
N2    N     N_2   0.554870 0.554580 0.862640 -0.297156
O1    O     O_R   0.511700 0.332340 0.577400 -0.573753
O2    O     O_R   0.980164 0.453937 0.897249 -0.713424
O3    O     O_2   0.026762 0.895682 0.141514 -0.594211
O4    O     O_R   0.847220 0.756859 0.062503 -0.704739
O5    O     O_2   0.380515 0.794187 0.869128 -0.505063
O6    O     O_R   0.285329 0.838734 0.673027 -0.758170
O7    O     O_2   0.786238 0.217637 0.400823 -0.562865
O8    O     O_R   0.664922 0.166394 0.174656 -0.697975
O9    O     O_2   0.753807 0.822577 0.833604 -0.513563
O10   O     O_R   0.792395 0.808344 0.613323 -0.770845
O11   O     O_2   0.195236 0.550586 0.105893 -0.572689
O12   O     O_R   0.488300 0.667660 0.422600 -0.580028
O13   O     O_R   0.160936 0.706543 0.314941 -0.763699
O14   O     O_2   0.398579 0.275641 0.771011 -0.614135
O15   O     O_R   0.259878 0.428900 0.809213 -0.710675
O16   O     O_2   0.729030 0.564673 0.178719 -0.598197
O17   O     O_R   0.608863 0.733560 0.243685 -0.750418
O18   O     O_R   0.474680 0.295500 0.332650 -0.557605
O19   O     O_R   0.525320 0.704500 0.667350 -0.518857
O20   O     O_R   0.338170 0.518410 0.622370 -0.568574
O21   O     O_R   0.661830 0.481590 0.377630 -0.581321
O22   O     O_R   0.301150 0.481570 0.377630 -0.589759
O23   O     O_R   0.698850 0.518430 0.622370 -0.567994
O24   O     O_2   0.004127 0.241833 0.867282 -0.573824

loop_
_geom_bond_atom_site_label_1
_geom_bond_atom_site_label_2
_ccdc_geom_bond_type
C19   O4    S    
C25   C31   S    
C18   O24   D    
C30   N1    D    
C5    C7    A    
C1    C23   S    
H2    O4    S    
C27   C29   D    
C2    C16   S    
C11   C16   A    
Cu2   O18   S    
C1    O18   A    
C25   O15   S    
C2    O23   A    
C13   C17   A    
C31   N2    D    
C6    H9    S    
C26   O16   D    
C1    O1    A    
C4    C15   A    
Cu2   O12   S    
Cu1   Cu2   S    
C3    C20   S    
H7    O15   S    
C21   O7    D    
C10   C13   A    
C23   C28   D    
Cu1   N2    S    
Cu1   O1    S    
C4    C21   S    
C9    C11   A    
C14   C17   A    
Cu2   N1    S    
H16   O2    S    
C3    C14   A    
C24   O13   S    
Cu2   O22   S    
H4    O8    S    
C5    H1    S    
C27   H12   S    
C2    O21   A    
C28   C29   S    
C12   O19   A    
C26   C30   S    
C24   O11   D    
C7    C19   S    
H6    O13   S    
C13   C15   A    
C29   H10   S    
C32   O22   A    
C30   C31   S    
C12   O12   A    
C11   C14   A    
C28   H11   S    
C4    C6    A    
C22   O10   S    
C18   O2    S    
Cu2   O21   S    
C20   O6    S    
C15   C16   A    
C22   O9    D    
H14   N2    S    
C23   H13   S    
C21   O8    S    
C8    C10   A    
C9    C22   S    
H15   N1    S    
C19   O3    D    
H5    O10   S    
C7    C9    A    
C17   C32   S    
Cu1   O19   S    
C6    C8    A    
C26   O17   S    
C12   C27   S    
Cu1   O20   S    
C10   C24   S    
C20   O5    D    
Cu1   O23   S    
H8    O17   S    
C8    C18   S    
C25   O14   D    
H3    O6    S    
C3    C5    A    
C32   O20   A    
