data_mof_unit_62593.cif
_audit_creation_date              2012-12-10T17:17:22-0500
_audit_creation_method            fapswitch 2.2
_symmetry_space_group_name_H-M    P1
_symmetry_Int_Tables_number       1
_space_group_crystal_system       triclinic
_cell_length_a                    18.801501
_cell_length_b                    18.778009
_cell_length_c                    18.75368
_cell_angle_alpha                 109.388695
_cell_angle_beta                  109.335898
_cell_angle_gamma                 109.501569
_cell_volume                      5108.65844001

loop_
_atom_site_label
_atom_site_type_symbol
_atom_type_description
_atom_site_fract_x
_atom_site_fract_y
_atom_site_fract_z
_atom_type_partial_charge
C1    C     C_R   0.119055 0.118856 0.500062 0.770672
C2    C     C_R   0.263468 0.004651 0.675876 0.095544
C3    C     C_R   0.191669 0.005140 0.684886 -0.100605
C4    C     C_R   0.183649 0.002564 0.755549 -0.201442
C5    C     C_R   0.245014 0.997999 0.816897 -0.200105
C6    C     C_R   0.315388 0.995442 0.808569 -0.097945
C7    C     C_R   0.178745 0.178625 0.421011 -0.173701
C8    C     C_R   0.242119 0.243528 0.421067 -0.176112
C9    C     C_R   0.314518 0.313942 0.500186 -0.012275
C10   C     C_R   0.322806 0.319960 0.579280 -0.174070
C11   C     C_R   0.257947 0.256569 0.579272 -0.179012
C12   C     C_R   0.121247 0.002382 0.618700 0.784127
C13   C     C_R   0.186179 0.185567 0.500122 -0.011474
C14   C     C_R   0.758876 0.924453 0.230188 -0.158617
C15   C     C_R   0.693574 0.922199 0.163981 0.144022
C16   C     C_R   0.684931 0.997309 0.183382 -0.051112
C17   C     C_R   0.740012 0.071765 0.265796 -0.205169
C18   C     C_R   0.803347 0.072355 0.330705 -0.173460
C19   C     C_R   0.813236 0.998926 0.313134 -0.074813
C20   C     C_R   0.820815 0.741888 0.498816 -0.174846
C21   C     C_R   0.757355 0.678463 0.500150 -0.175890
C22   C     C_R   0.685530 0.685812 0.499697 -0.010620
C23   C     C_R   0.881048 0.881117 0.500040 0.784315
C24   C     C_R   0.677983 0.757420 0.499374 -0.175176
C25   C     C_R   0.742971 0.822363 0.501066 -0.175611
C26   C     C_R   0.814073 0.814276 0.500057 -0.012666
C27   C     C_R   0.500581 0.881282 0.881613 0.813654
C28   C     C_R   0.381388 0.997806 0.878831 0.777122
C29   C     C_R   0.499885 0.118896 0.118943 0.779061
C30   C     C_R   0.618621 0.999497 0.118381 0.779168
C31   C     C_R   0.499980 0.618949 0.619022 0.803244
C32   C     C_R   0.381202 0.381100 0.500156 0.777903
C33   C     C_R   0.499970 0.381155 0.381166 0.777822
C34   C     C_R   0.880796 0.999811 0.380850 0.794971
C35   C     C_R   0.618794 0.618992 0.499963 0.778404
C36   C     C_R   0.580942 0.819776 0.825189 0.407361
C37   C     C_R   0.579541 0.753977 0.760421 -0.274070
C38   C     C_R   0.500485 0.686175 0.686138 -0.054872
C39   C     C_R   0.422173 0.682632 0.676465 -0.175994
C40   C     C_R   0.422676 0.745992 0.741613 -0.265431
C41   C     C_R   0.501644 0.814732 0.815394 -0.046581
C42   C     C_R   0.500426 0.257758 0.178533 -0.173973
C43   C     C_R   0.498999 0.321165 0.241928 -0.175929
C44   C     C_R   0.499905 0.314167 0.314229 -0.010674
C45   C     C_R   0.277134 0.013747 0.608843 -0.170827
C46   C     C_R   0.500689 0.242865 0.322252 -0.176164
C47   C     C_R   0.499091 0.177936 0.257343 -0.178842
C48   C     C_R   0.499729 0.185719 0.185813 -0.011085
C49   C     C_R   0.345378 0.007942 0.598381 -0.136888
C50   C     C_R   0.401154 0.993106 0.654128 -0.135111
C51   C     C_R   0.390954 0.987154 0.722607 -0.170232
C52   C     C_R   0.324172 0.996122 0.736556 0.094982
Cu1   Cu    Cu3+1 0.999980 0.061790 0.561790 0.949896
Cu2   Cu    Cu3+1 0.000020 0.938210 0.438210 0.944840
Cu3   Cu    Cu3+1 0.438200 0.938230 0.000040 0.943666
Cu4   Cu    Cu3+1 0.561800 0.061850 0.000040 0.978488
Cu5   Cu    Cu3+1 0.438190 0.500100 0.438300 0.950821
Cu6   Cu    Cu3+1 0.561810 0.500080 0.561880 0.948838
H1    H     H_    0.128789 0.002830 0.762606 0.156546
H2    H     H_    0.264299 0.262085 0.640712 0.139988
H3    H     H_    0.767478 0.868358 0.218532 0.161730
H4    H     H_    0.733109 0.129161 0.280064 0.139104
H5    H     H_    0.845257 0.130523 0.394251 0.156371
H6    H     H_    0.875798 0.735351 0.498335 0.141716
H7    H     H_    0.763455 0.623072 0.500090 0.140699
H8    H     H_    0.622761 0.763700 0.499401 0.139913
H9    H     H_    0.737145 0.878015 0.501641 0.139961
H10   H     H_    0.236351 0.026599 0.564675 0.148697
H11   H     H_    0.639909 0.756302 0.767111 0.138920
H12   H     H_    0.360723 0.630092 0.619306 0.154260
H13   H     H_    0.361612 0.742344 0.733868 0.158680
H14   H     H_    0.500603 0.264048 0.123205 0.141144
H15   H     H_    0.498722 0.376314 0.235448 0.140646
H16   H     H_    0.501035 0.236842 0.377841 0.139475
H17   H     H_    0.498922 0.122557 0.263583 0.138962
H18   H     H_    0.354597 0.014321 0.546360 0.137244
H19   H     H_    0.452987 0.986830 0.644696 0.138093
H20   H     H_    0.435126 0.974286 0.763335 0.146908
H21   H     H_    0.238143 0.997614 0.871937 0.156587
H22   H     H_    0.123247 0.123967 0.359539 0.141672
H23   H     H_    0.235463 0.238210 0.359604 0.142046
H24   H     H_    0.378497 0.374388 0.640758 0.141188
O1    O     O_R   0.090150 0.142360 0.552170 -0.583170
O2    O     O_R   0.552230 0.962090 0.909900 -0.549620
O3    O     O_R   0.357630 0.947820 0.909860 -0.583328
O4    O     O_R   0.462000 0.052220 0.909860 -0.591966
O5    O     O_R   0.447770 0.037990 0.090190 -0.584580
O6    O     O_R   0.552150 0.142390 0.090190 -0.585570
O7    O     O_R   0.538000 0.947860 0.090220 -0.596938
O8    O     O_R   0.642370 0.052260 0.090230 -0.564154
O9    O     O_R   0.447810 0.590260 0.538090 -0.587155
O10   O     O_R   0.552200 0.590240 0.642450 -0.585717
O11   O     O_R   0.357640 0.409920 0.447920 -0.584731
O12   O     O_R   0.090180 0.037990 0.447810 -0.592949
O13   O     O_R   0.462030 0.409900 0.552280 -0.586589
O14   O     O_R   0.447800 0.409940 0.357730 -0.584926
O15   O     O_R   0.552190 0.409920 0.462090 -0.585702
O16   O     O_R   0.537970 0.590270 0.447900 -0.585696
O17   O     O_R   0.642360 0.590260 0.552260 -0.585316
O18   O     O_R   0.090170 0.052200 0.642360 -0.582713
O19   O     O_R   0.090200 0.947840 0.538010 -0.587674
O20   O     O_R   0.909820 0.962010 0.552190 -0.584476
O21   O     O_R   0.909850 0.857640 0.447830 -0.583989
O22   O     O_R   0.909800 0.052160 0.461990 -0.587271
O23   O     O_R   0.909830 0.947800 0.357640 -0.590503
O24   O     O_R   0.447850 0.857690 0.909890 -0.601312
C53   C     C_3   0.633468 0.842464 0.072970 -0.387016
C54   C     C_3   0.655628 0.769380 0.054280 -0.847641
H25   H     H_    0.723039 0.794369 0.065328 0.257781
H26   H     H_    0.647845 0.740121 0.095748 0.247408
H27   H     H_    0.610432 0.717451 0.985072 0.251628
H28   H     H_    0.565933 0.814854 0.061567 0.216278
H29   H     H_    0.634677 0.863630 0.024483 0.231912
O25   O     O_3   0.658106 0.888133 0.898638 -0.743503
H30   H     H_    0.707119 0.881099 0.895387 0.321119

loop_
_geom_bond_atom_site_label_1
_geom_bond_atom_site_label_2
_ccdc_geom_bond_type
C43   H15   S    
Cu3   Cu4   S    
C50   H19   S    
Cu3   O3    S    
C40   H13   S    
C37   H11   S    
C53   H28   S    
Cu2   O19   S    
C25   H9    S    
C30   O8    A    
C36   O25   S    
O25   H30   S    
C7    C8    A    
Cu1   Cu2   S    
C29   O5    A    
C22   C35   S    
C36   C37   A    
C5    C6    A    
C18   H5    S    
Cu4   O6    S    
C23   O20   A    
Cu1   O22   S    
C16   C30   S    
C15   C16   A    
C54   H25   S    
C18   C19   A    
C23   C26   S    
C15   C53   S    
C53   H29   S    
C29   O6    A    
C3    C12   S    
C9    C32   S    
C6    C28   S    
C8    C9    A    
Cu5   O14   S    
C53   C54   S    
C5    H21   S    
C35   O16   A    
C9    C10   A    
C24   H8    S    
Cu4   O8    S    
C32   O11   A    
C2    C45   A    
Cu5   O11   S    
C21   C22   A    
C33   C44   S    
C36   C41   A    
Cu6   O15   S    
C30   O7    A    
C35   O17   A    
C44   C46   A    
Cu4   O2    S    
Cu1   O18   S    
C23   O21   A    
Cu2   O12   S    
C29   C48   S    
C51   C52   A    
Cu2   O21   S    
C24   C25   A    
C39   C40   A    
C16   C17   A    
Cu3   O24   S    
C27   O24   A    
C50   C51   A    
C25   C26   A    
C14   H3    S    
C10   H24   S    
C34   O22   A    
C8    H23   S    
C20   H6    S    
Cu6   O13   S    
C37   C38   A    
C17   H4    S    
C27   C41   S    
Cu4   O4    S    
C47   C48   A    
C45   C49   A    
Cu1   O20   S    
C45   H10   S    
C42   H14   S    
C17   C18   A    
C49   H18   S    
C42   C48   A    
C2    C52   A    
C40   C41   A    
C49   C50   A    
C31   O9    A    
C43   C44   A    
C28   O4    A    
C22   C24   A    
C1    C13   S    
C42   C43   A    
C3    C4    A    
C33   O14   A    
C46   H16   S    
C46   C47   A    
C27   O2    A    
Cu5   O9    S    
Cu2   O23   S    
C21   H7    S    
C34   O23   A    
C14   C19   A    
Cu6   O17   S    
C4    C5    A    
C19   C34   S    
C1    O12   A    
C31   C38   S    
C1    O1    A    
C54   H27   S    
Cu1   O1    S    
C2    C3    A    
C51   H20   S    
C47   H17   S    
C12   O19   A    
Cu3   O7    S    
C11   C13   A    
Cu5   Cu6   S    
C38   C39   A    
C20   C26   A    
Cu5   O16   S    
C4    H1    S    
C39   H12   S    
C54   H26   S    
C33   O15   A    
Cu3   O5    S    
C12   O18   A    
C10   C11   A    
C7    C13   A    
C32   O13   A    
C20   C21   A    
C31   O10   A    
C28   O3    A    
C14   C15   A    
C6    C52   A    
Cu6   O10   S    
C11   H2    S    
C7    H22   S    
