data_mof_unit_7224.cif
_audit_creation_date              2012-12-11T15:15:43-0500
_audit_creation_method            fapswitch 2.2
_symmetry_space_group_name_H-M    P1
_symmetry_Int_Tables_number       1
_space_group_crystal_system       triclinic
_cell_length_a                    20.639982
_cell_length_b                    22.826617
_cell_length_c                    6.936147
_cell_angle_alpha                 89.999942
_cell_angle_beta                  86.693406
_cell_angle_gamma                 90.000074
_cell_volume                      3262.46253055

loop_
_atom_site_label
_atom_site_type_symbol
_atom_type_description
_atom_site_fract_x
_atom_site_fract_y
_atom_site_fract_z
_atom_type_partial_charge
O1    O     O_R   0.387100 0.552640 0.378490 -0.542566
O2    O     O_R   0.612900 0.052640 0.621510 -0.542566
O3    O     O_R   0.249610 0.559600 0.072250 -0.532497
O4    O     O_R   0.750390 0.059600 0.927750 -0.532495
O5    O     O_R   0.249120 0.447360 0.902040 -0.557690
O6    O     O_R   0.750880 0.947360 0.097960 -0.557694
C1    C     C_R   0.225102 0.571360 0.244587 0.693627
C2    C     C_R   0.774898 0.071360 0.755413 0.693620
O7    O     O_R   0.386610 0.559560 0.048860 -0.514142
O8    O     O_R   0.613390 0.059560 0.951140 -0.514142
O9    O     O_R   0.387100 0.447320 0.878470 -0.540344
O10   O     O_R   0.612900 0.947320 0.121530 -0.540343
C3    C     C_R   0.406138 0.576348 0.214598 0.701999
C4    C     C_R   0.593862 0.076348 0.785401 0.702003
O11   O     O_R   0.249120 0.552680 0.402050 -0.543185
O12   O     O_R   0.750880 0.052680 0.597950 -0.543185
O13   O     O_3   0.318110 0.463180 0.223790 -0.379276
O14   O     O_3   0.681890 0.963180 0.776210 -0.379280
V1    V     V_3+5 0.318110 0.506830 0.948930 1.495382
V2    V     V_3+5 0.681890 0.006830 0.051070 1.495375
O15   O     O_R   0.386610 0.440400 0.548840 -0.542768
O16   O     O_R   0.613390 0.940400 0.451160 -0.542766
C5    C     C_R   0.407557 0.425293 0.713926 0.686075
C6    C     C_R   0.592443 0.925294 0.286074 0.686079
O17   O     O_R   0.249610 0.440440 0.572240 -0.537467
O18   O     O_R   0.750390 0.940440 0.427760 -0.537472
C7    C     C_R   0.225889 0.427492 0.744797 0.666018
C8    C     C_R   0.774112 0.927492 0.255202 0.666020
V3    V     V_3+5 0.318110 0.493170 0.448930 1.455767
V4    V     V_3+5 0.681890 0.993170 0.551070 1.455754
O19   O     O_3   0.318110 0.536820 0.723940 -0.350532
O20   O     O_3   0.681890 0.036820 0.276060 -0.350530
C9    C     C_R   0.172386 0.383655 0.761062 -0.130266
C10   C     C_R   0.827616 0.883657 0.238939 -0.130282
C11   C     C_R   0.167088 0.343405 0.608637 -0.114585
C12   C     C_R   0.832922 0.843414 0.391386 -0.114560
C13   C     C_R   0.119469 0.300038 0.616949 -0.059045
C14   C     C_R   0.880542 0.800048 0.383078 -0.059025
C15   C     C_R   0.076111 0.295440 0.778499 0.118536
C16   C     C_R   0.923891 0.795442 0.221512 0.118529
C17   C     C_R   0.081004 0.334442 0.932456 -0.082528
C18   C     C_R   0.918990 0.834435 0.067533 -0.082539
C19   C     C_R   0.127419 0.379789 0.924359 -0.042416
C20   C     C_R   0.872576 0.879783 0.075625 -0.042417
C21   C     C_R   0.889623 0.195302 0.862135 -0.111829
C22   C     C_R   0.110379 0.695303 0.137865 -0.111822
C23   C     C_R   0.840575 0.153322 0.885591 -0.119637
C24   C     C_R   0.159426 0.653322 0.114408 -0.119646
C25   C     C_R   0.870062 0.115018 0.567116 -0.143421
C26   C     C_R   0.129939 0.615019 0.432887 -0.143412
C27   C     C_R   0.920495 0.155893 0.545124 0.207788
C28   C     C_R   0.079508 0.655896 0.454879 0.207783
C29   C     C_R   0.929570 0.197427 0.691527 0.062236
C30   C     C_R   0.070433 0.697429 0.308475 0.062237
C31   C     C_2   0.026494 0.248810 0.790470 -0.237295
C32   C     C_2   0.973508 0.748810 0.209543 -0.237293
C33   C     C_2   0.978796 0.244352 0.666597 0.193077
C34   C     C_2   0.021208 0.744355 0.333405 0.193077
C35   C     C_R   0.829339 0.113600 0.736417 -0.100611
C36   C     C_R   0.170661 0.613601 0.263584 -0.100612
H1    H     H_    0.200506 0.344922 0.482452 0.133735
H2    H     H_    0.799511 0.844937 0.517586 0.133747
H3    H     H_    0.810288 0.153091 0.018356 0.172403
H4    H     H_    0.189712 0.653090 0.981641 0.172401
H5    H     H_    0.863356 0.083710 0.452604 0.145172
H6    H     H_    0.136646 0.583712 0.547400 0.145170
H7    H     H_    0.046633 0.330723 0.055844 0.185871
H8    H     H_    0.953356 0.830708 0.944130 0.185873
H9    H     H_    0.895940 0.226769 0.976490 0.165431
H10   H     H_    0.104062 0.726770 0.023510 0.165434
H11   H     H_    0.028284 0.217838 0.908821 0.167225
H12   H     H_    0.971714 0.717836 0.091200 0.167221
H13   H     H_    0.116861 0.269550 0.497922 0.143070
H14   H     H_    0.883155 0.769567 0.502123 0.143070
C37   C     C_R   0.576658 0.366434 0.659081 -0.149725
C38   C     C_R   0.423342 0.866434 0.340920 -0.149724
H15   H     H_    0.532051 0.450194 0.627706 0.108238
H16   H     H_    0.467949 0.950194 0.372297 0.108238
H17   H     H_    0.623736 0.385193 0.620932 0.114102
H18   H     H_    0.376264 0.885192 0.379070 0.114103
C39   C     C_R   0.461985 0.383779 0.710945 -0.038651
C40   C     C_R   0.538015 0.883779 0.289056 -0.038653
C41   C     C_R   0.478272 0.098724 0.796162 -0.160914
C42   C     C_R   0.521728 0.598724 0.203839 -0.160915
C43   C     C_R   0.425197 0.135574 0.788202 -0.112705
C44   C     C_R   0.574803 0.635574 0.211800 -0.112706
C45   C     C_R   0.433638 0.195711 0.769351 -0.141394
C46   C     C_R   0.566361 0.695711 0.230650 -0.141395
C47   C     C_R   0.496161 0.221406 0.761404 0.068625
C48   C     C_R   0.503839 0.721406 0.238596 0.068625
C49   C     C_R   0.551471 0.183626 0.772301 0.020591
C50   C     C_R   0.448529 0.683625 0.227697 0.020595
C51   C     C_R   0.504809 0.283437 0.738757 0.077529
C52   C     C_R   0.495191 0.783437 0.261242 0.077530
C53   C     C_R   0.568531 0.306348 0.704340 0.051817
C54   C     C_R   0.431469 0.806348 0.295660 0.051817
C55   C     C_R   0.623000 0.269505 0.717742 -0.077183
C56   C     C_R   0.377000 0.769504 0.282257 -0.077184
C57   C     C_R   0.614148 0.209784 0.766022 -0.062018
C58   C     C_R   0.385852 0.709783 0.233975 -0.062018
C59   C     C_R   0.452024 0.323876 0.747757 -0.202469
C60   C     C_R   0.547976 0.823876 0.252242 -0.202469
C61   C     C_R   0.524083 0.404313 0.661710 -0.156594
C62   C     C_R   0.475917 0.904312 0.338292 -0.156595
C63   C     C_R   0.541408 0.121069 0.786780 -0.069459
C64   C     C_R   0.458592 0.621069 0.213219 -0.069457
H19   H     H_    0.402804 0.310552 0.785112 0.090053
H20   H     H_    0.597196 0.810552 0.214887 0.090053
H21   H     H_    0.469991 0.051908 0.807318 0.105404
H22   H     H_    0.530009 0.551908 0.192683 0.105404
H23   H     H_    0.389935 0.220784 0.756158 0.107718
H24   H     H_    0.610064 0.720784 0.243844 0.107718
H25   H     H_    0.376769 0.117182 0.793330 0.127429
H26   H     H_    0.623230 0.617182 0.206672 0.127428
I1    I     I_    0.983858 0.149156 0.294390 -0.429329
I2    I     I_    0.016147 0.649162 0.705617 -0.429349
C65   C     C_2   0.689881 0.294556 0.696851 0.394931
H27   H     H_    0.701002 0.335517 0.767044 0.059662
O21   O     O_2   0.732683 0.270046 0.598317 -0.513286
C66   C     C_2   0.310119 0.794555 0.303148 0.394930
H28   H     H_    0.298999 0.835516 0.232957 0.059664
O22   O     O_2   0.267317 0.770045 0.401681 -0.513285
C67   C     C_2   0.670687 0.178239 0.832813 0.380931
H29   H     H_    0.710838 0.168725 0.731221 0.074714
O23   O     O_2   0.673901 0.166359 0.003583 -0.519340
C68   C     C_2   0.329314 0.678240 0.167176 0.380929
H30   H     H_    0.289161 0.668726 0.268763 0.074715
O24   O     O_2   0.326103 0.666358 0.996406 -0.519338
I3    I     I_    0.963226 0.309741 0.454744 -0.303961
I4    I     I_    0.036786 0.809748 0.545241 -0.303936
C69   C     C_2   0.124783 0.424069 0.081692 0.409498
H31   H     H_    0.144956 0.467455 0.058148 0.050162
O25   O     O_2   0.098391 0.412995 0.239616 -0.515681
C70   C     C_2   0.875208 0.924056 0.918267 0.409462
H32   H     H_    0.855028 0.967441 0.941786 0.050181
O26   O     O_2   0.901608 0.912980 0.760352 -0.515685

loop_
_geom_bond_atom_site_label_1
_geom_bond_atom_site_label_2
_ccdc_geom_bond_type
C38   C62   A    
V4    O20   S    
C59   H19   S    
C68   H30   S    
C48   C52   A    
O13   V3    S    
C49   C63   A    
O4    C2    A    
V1    O19   S    
C37   C53   A    
C67   H29   S    
C17   H7    S    
C39   C59   A    
C7    C9    S    
O9    V1    S    
C25   H5    S    
C58   C68   S    
C33   I3    S    
C11   C13   A    
C42   C44   A    
O3    C1    A    
C65   O21   D    
C2    C35   S    
C23   H3    S    
C66   O22   D    
C44   C46   A    
C24   H4    S    
C45   H23   S    
O12   V4    S    
C21   C23   A    
O7    C3    A    
C6    C40   S    
C9    C11   A    
O5    C7    A    
C48   C50   A    
O7    V1    S    
C4    C63   S    
O6    C8    A    
O8    V2    S    
C25   C27   A    
C54   C56   A    
C26   C28   A    
C41   H21   S    
C24   C36   A    
O14   V4    S    
C47   C49   A    
C5    C39   S    
C10   C12   A    
C15   C31   S    
C43   C45   A    
C8    C10   S    
C2    O12   A    
C55   C65   S    
C37   C61   A    
C17   C19   A    
O10   V2    S    
C18   C20   A    
C12   H2    S    
C55   C57   A    
C28   C30   A    
O11   V3    S    
C28   I2    S    
O17   V3    S    
C22   C24   A    
C60   H20   S    
C23   C35   A    
C21   H9    S    
C9    C19   A    
C10   C20   A    
C15   C17   A    
O8    C4    A    
C51   C59   A    
C29   C33   S    
C3    C64   S    
C70   O26   D    
C1    O11   A    
C14   H14   S    
C16   C32   S    
H16   C62   S    
C27   I1    S    
C41   C63   A    
C27   C29   A    
C39   C61   A    
C52   C54   A    
C42   C64   A    
C22   C30   A    
O1    V3    S    
C40   C60   A    
C11   H1    S    
O3    V1    S    
C26   H6    S    
C20   C70   S    
C19   C69   S    
C50   C64   A    
C41   C43   A    
C46   C48   A    
O18   V4    S    
C56   C58   A    
C43   H25   S    
O15   C5    A    
C30   C34   S    
O16   C6    A    
H15   C61   S    
O1    C3    A    
C69   H31   S    
C1    C36   S    
C66   H28   S    
C50   C58   A    
C57   C67   S    
V2    O20   S    
C13   H13   S    
C68   O24   D    
O16   V4    S    
C32   H12   S    
C38   H18   S    
C16   C18   A    
C69   O25   D    
C53   C55   A    
C56   C66   S    
C70   H32   S    
O5    V1    S    
O4    V2    S    
O17   C7    A    
O6    V2    S    
O10   C6    A    
O18   C8    A    
C25   C35   A    
C44   H26   S    
O2    V4    S    
C26   C36   A    
C31   C33   D    
V3    O19   S    
C65   H27   S    
C38   C54   A    
C12   C14   A    
C14   C16   A    
C51   C53   A    
O15   V3    S    
C34   I4    S    
O9    C5    A    
O13   V1    S    
C32   C34   D    
O14   V2    S    
C18   H8    S    
C47   C51   A    
O2    C4    A    
C42   H22   S    
C22   H10   S    
C67   O23   D    
C21   C29   A    
C46   H24   S    
C52   C60   A    
C13   C15   A    
C45   C47   A    
C40   C62   A    
C49   C57   A    
C37   H17   S    
C31   H11   S    
