data_mof_unit_9908.cif
_audit_creation_date              2012-12-10T18:58:09-0500
_audit_creation_method            fapswitch 2.2
_symmetry_space_group_name_H-M    P1
_symmetry_Int_Tables_number       1
_space_group_crystal_system       triclinic
_cell_length_a                    10.724731
_cell_length_b                    10.001332
_cell_length_c                    15.799935
_cell_angle_alpha                 89.999526
_cell_angle_beta                  93.637954
_cell_angle_gamma                 90.000984
_cell_volume                      1691.31121775

loop_
_atom_site_label
_atom_site_type_symbol
_atom_type_description
_atom_site_fract_x
_atom_site_fract_y
_atom_site_fract_z
_atom_type_partial_charge
C1    C     C_R   0.872419 0.500000 0.500290 -0.004935
C2    C     C_R   0.127568 0.500000 0.499656 -0.005480
C3    C     C_R   0.260304 0.500000 0.499661 0.851252
C4    C     C_R   0.739693 0.500000 0.500327 0.851573
C5    C     C_R   0.500112 0.500000 0.339577 0.894074
C6    C     C_R   0.501423 0.500000 0.660453 0.898457
C7    C     C_R   0.549883 0.623471 0.957566 0.149738
C8    C     C_R   0.547840 0.376484 0.046450 0.148314
C9    C     C_R   0.547908 0.623505 0.046451 0.148304
C10   C     C_R   0.549812 0.376516 0.957566 0.149731
C11   C     C_R   0.545634 0.499994 0.914125 0.041506
C12   C     C_R   0.542311 0.499996 0.089432 0.041693
C13   C     C_1   0.528900 0.499997 0.824351 -0.008542
C14   C     C_1   0.525472 0.500000 0.177767 -0.009812
C15   C     C_1   0.511811 0.500001 0.251754 -0.194983
C16   C     C_1   0.514459 0.499998 0.749235 -0.199740
C17   C     C_R   0.580330 0.071679 0.554761 0.204223
C18   C     C_R   0.419631 0.928324 0.445277 0.203578
C19   C     C_R   0.419634 0.071674 0.445275 0.203677
C20   C     C_R   0.580327 0.928323 0.554763 0.204324
C21   C     C_R   0.063823 0.378083 0.499521 -0.196590
C22   C     C_R   0.936161 0.621917 0.500407 -0.196385
C23   C     C_R   0.936105 0.378082 0.499874 -0.196326
C24   C     C_R   0.063879 0.621918 0.500054 -0.196533
H1    H     H_    0.112077 0.282934 0.499225 0.161576
H2    H     H_    0.887905 0.717066 0.500707 0.161489
H3    H     H_    0.887805 0.282932 0.499742 0.161571
H4    H     H_    0.112178 0.717068 0.500189 0.161660
N1    N     N_R   0.500000 0.857200 0.500000 -0.116183
N2    N     N_R   0.500000 0.142800 0.500000 -0.116182
O1    O     O_R   0.316770 0.614620 0.499990 -0.631505
O2    O     O_R   0.683230 0.385380 0.500010 -0.631826
O3    O     O_R   0.683230 0.614620 0.500010 -0.631778
O4    O     O_R   0.316770 0.385380 0.499990 -0.631457
O5    O     O_R   0.499980 0.614630 0.378020 -0.616830
O6    O     O_R   0.500020 0.385370 0.621980 -0.616553
O7    O     O_R   0.500020 0.614630 0.621980 -0.616568
O8    O     O_R   0.499980 0.385370 0.378020 -0.616846
Zn1   Zn    Zn3+2 0.500000 0.653120 0.500000 0.934737
Zn2   Zn    Zn3+2 0.500000 0.346880 0.500000 0.934737
C25   C     C_3   0.671179 0.142431 0.616816 -0.827824
H5    H     H_    0.667945 0.250622 0.613927 0.287696
H6    H     H_    0.651755 0.115395 0.682814 0.217377
H7    H     H_    0.768532 0.114573 0.604569 0.207728
C26   C     C_3   0.328685 0.857578 0.383302 -0.827460
H8    H     H_    0.332043 0.749388 0.386117 0.287669
H9    H     H_    0.231357 0.885352 0.395680 0.207578
H10   H     H_    0.347928 0.884708 0.317293 0.217928
C27   C     C_3   0.328716 0.142417 0.383281 -0.827635
H11   H     H_    0.332036 0.250606 0.386121 0.287648
H12   H     H_    0.348025 0.115325 0.317277 0.217965
H13   H     H_    0.231381 0.114597 0.395612 0.207493
C28   C     C_3   0.671149 0.857575 0.616836 -0.828000
H14   H     H_    0.667952 0.749383 0.613923 0.287674
H15   H     H_    0.768508 0.885476 0.604636 0.207642
H16   H     H_    0.651660 0.884573 0.682829 0.217413
C29   C     C_3   0.549179 0.756084 0.093904 -0.876528
H17   H     H_    0.549172 0.745905 0.163679 0.245590
H18   H     H_    0.634640 0.813212 0.081050 0.240079
H19   H     H_    0.465530 0.815727 0.073017 0.239548
C30   C     C_3   0.553714 0.244078 0.910246 -0.878432
H20   H     H_    0.558774 0.254613 0.840781 0.243124
H21   H     H_    0.637738 0.186469 0.932911 0.238337
H22   H     H_    0.468739 0.184784 0.921171 0.242279
C31   C     C_3   0.553863 0.755907 0.910247 -0.878447
H23   H     H_    0.558920 0.745368 0.840782 0.243114
H24   H     H_    0.468923 0.815254 0.921171 0.242281
H25   H     H_    0.637921 0.813462 0.932915 0.238339
C32   C     C_3   0.549039 0.243906 0.093903 -0.876549
H26   H     H_    0.549052 0.254086 0.163678 0.245582
H27   H     H_    0.465351 0.184318 0.073022 0.239548
H28   H     H_    0.634464 0.186722 0.081042 0.240082

loop_
_geom_bond_atom_site_label_1
_geom_bond_atom_site_label_2
_ccdc_geom_bond_type
C32   H28   S    
O5    Zn1   S    
C27   H11   S    
C23   H3    S    
C7    C31   S    
C11   C13   S    
C25   H5    S    
C19   C27   S    
C30   H20   S    
C12   C14   S    
C8    C12   A    
C1    C4    S    
C31   H25   S    
C2    C21   A    
C28   H15   S    
C2    C3    S    
C29   H17   S    
C6    O7    A    
N2    Zn2   S    
C1    C22   A    
O7    Zn1   S    
C18   N1    A    
O3    Zn1   S    
C28   H14   S    
C3    O1    A    
C7    C11   A    
C17   N2    A    
C25   H6    S    
N1    Zn1   S    
C8    C32   S    
C4    O2    A    
C5    O8    A    
O4    Zn2   S    
C5    O5    A    
C5    C15   S    
C8    C10   A    
O8    Zn2   S    
C6    O6    A    
C30   H22   S    
C1    C23   A    
C9    C29   S    
C20   N1    A    
O2    Zn2   S    
C21   C23   A    
C2    C24   A    
C32   H26   S    
C25   H7    S    
C22   C24   A    
C29   H18   S    
C17   C25   S    
C28   H16   S    
C9    C12   A    
C4    O3    A    
C6    C16   S    
C10   C30   S    
C18   C26   S    
O6    Zn2   S    
C17   C20   A    
C26   H9    S    
C32   H27   S    
C31   H23   S    
C10   C11   A    
C13   C16   T    
C7    C9    A    
C21   H1    S    
C14   C15   T    
C18   C19   A    
C29   H19   S    
C22   H2    S    
C26   H10   S    
C3    O4    A    
C31   H24   S    
C26   H8    S    
C19   N2    A    
C30   H21   S    
C24   H4    S    
C27   H13   S    
O1    Zn1   S    
C20   C28   S    
C27   H12   S    
