data_mof_unit_49783.cif
_audit_creation_date              2012-12-11T17:41:27-0500
_audit_creation_method            fapswitch 2.2
_symmetry_space_group_name_H-M    P1
_symmetry_Int_Tables_number       1
_space_group_crystal_system       triclinic
_cell_length_a                    15.565094
_cell_length_b                    15.197525
_cell_length_c                    14.974219
_cell_angle_alpha                 109.423585
_cell_angle_beta                  121.402965
_cell_angle_gamma                 59.347033
_cell_volume                      2590.05980442

loop_
_atom_site_label
_atom_site_type_symbol
_atom_type_description
_atom_site_fract_x
_atom_site_fract_y
_atom_site_fract_z
_atom_type_partial_charge
C1    C     C_R   0.768353 0.984195 0.790863 -0.127642
C2    C     C_R   0.168718 0.365419 0.107487 0.236897
C3    C     C_R   0.699178 0.823593 0.017157 -0.183217
C4    C     C_R   0.273683 0.302093 0.109600 -0.180231
C5    C     C_R   0.702524 0.918261 0.032414 0.047393
C6    C     C_R   0.287234 0.220133 0.031495 0.062527
C7    C     C_R   0.804475 0.921513 0.070104 -0.168057
C8    C     C_R   0.193697 0.202180 0.952611 -0.140804
C9    C     C_R   0.900973 0.830485 0.086306 -0.075342
C10   C     C_R   0.089514 0.264697 0.951789 -0.101965
C11   C     C_R   0.896948 0.736428 0.069949 -0.086353
C12   C     C_R   0.199596 0.058675 0.224326 -0.109592
C13   C     C_R   0.077045 0.346227 0.028961 -0.157659
C14   C     C_R   0.598208 0.061450 0.118760 -0.200594
C15   C     C_R   0.405703 0.122537 0.937367 -0.195092
C16   C     C_R   0.205025 0.276221 0.446254 -0.072788
C17   C     C_R   0.770148 0.713450 0.520730 -0.103029
C18   C     C_R   0.496426 0.109211 0.122944 0.053029
C19   C     C_R   0.503762 0.045084 0.930848 0.053230
C20   C     C_R   0.398269 0.151494 0.032405 0.081920
C21   C     C_R   0.602194 0.014140 0.024371 0.042617
C22   C     C_2   0.033311 0.354285 0.474665 -0.201464
C23   C     C_R   0.143989 0.277273 0.488549 0.134128
C24   C     C_2   0.869834 0.609384 0.404557 -0.141164
C25   C     C_2   0.977403 0.426348 0.408718 -0.071357
C26   C     C_2   0.888522 0.519841 0.423268 -0.071046
C27   C     C_2   0.864881 0.103737 0.896455 -0.173486
C28   C     C_2   0.019039 0.044730 0.153879 -0.215123
C29   C     C_R   0.311963 0.803363 0.673152 -0.238670
C30   C     C_R   0.734691 0.203755 0.263740 -0.260138
C31   C     C_R   0.389380 0.719773 0.639847 0.277795
C32   C     C_R   0.641759 0.281401 0.279154 0.284931
C33   C     C_R   0.352510 0.668830 0.538766 0.011296
C34   C     C_R   0.803201 0.704969 0.446907 0.117401
C35   C     C_R   0.650235 0.315403 0.382395 0.019655
C36   C     C_R   0.238430 0.702234 0.473204 -0.321761
C37   C     C_R   0.753300 0.273285 0.467490 -0.377653
C38   C     C_R   0.161357 0.784752 0.507387 0.573826
C39   C     C_R   0.843982 0.192581 0.451442 0.599197
C40   C     C_R   0.595134 0.217835 0.497336 -0.111653
C41   C     C_R   0.402354 0.773335 0.451468 -0.104013
C42   C     C_R   0.198556 0.835369 0.607607 -0.215643
C43   C     C_R   0.834682 0.158227 0.349069 -0.223684
C44   C     C_R   0.445208 0.481720 0.503328 0.207076
C45   C     C_R   0.505270 0.301453 0.447350 0.100653
C46   C     C_R   0.547508 0.502745 0.406291 0.187991
C47   C     C_R   0.505736 0.396655 0.452929 -0.074231
C48   C     C_R   0.484494 0.586845 0.453972 -0.067646
C49   C     C_R   0.560687 0.405341 0.406986 0.000498
C50   C     C_R   0.429942 0.578105 0.499369 0.001286
C51   C     C_2   0.869131 0.102151 0.987240 -0.092006
C52   C     C_2   0.961031 0.113666 0.084119 -0.094971
C53   C     C_R   0.407900 0.029292 0.731324 -0.108953
C54   C     C_R   0.589789 0.020152 0.286903 -0.117506
C55   C     C_R   0.411245 0.289299 0.416262 -0.088878
C56   C     C_R   0.491570 0.680914 0.472504 0.129311
C57   C     C_R   0.587761 0.695942 0.536211 -0.063119
C58   C     C_R   0.592885 0.952011 0.805389 -0.096014
C59   C     C_R   0.406276 0.086900 0.209648 -0.124150
C60   C     C_R   0.201668 0.186987 0.536348 -0.139002
C61   C     C_R   0.763611 0.803122 0.422720 -0.070641
C62   C     C_R   0.764661 0.077470 0.699300 -0.066482
C63   C     C_R   0.196448 0.970483 0.314936 -0.134112
C64   C     C_R   0.801221 0.057363 0.799371 0.124259
C65   C     C_R   0.135238 0.022027 0.225712 0.148646
C66   C     C_R   0.501631 0.005795 0.827036 0.059415
C67   C     C_R   0.496482 0.076018 0.203907 0.044975
C68   C     C_R   0.796619 0.733113 0.037843 0.297445
H1    H     H_    0.793801 0.944723 0.854028 0.097053
H2    H     H_    0.201556 0.138452 0.892723 0.150193
H3    H     H_    0.979437 0.832712 0.114003 0.130891
H4    H     H_    0.018392 0.249731 0.891346 0.164117
H5    H     H_    0.675050 0.037814 0.188833 0.153033
H6    H     H_    0.332416 0.156325 0.867927 0.134800
H7    H     H_    0.850429 0.516468 0.464619 0.148940
H8    H     H_    0.006505 0.424268 0.355838 0.146058
H9    H     H_    0.909547 0.612210 0.364250 0.190619
H10   H     H_    0.002113 0.358381 0.526703 0.129955
H11   H     H_    0.140060 0.899091 0.635471 0.227668
H12   H     H_    0.174179 0.111878 0.173186 0.089521
H13   H     H_    0.904707 0.097265 0.335027 0.199931
H14   H     H_    0.181357 0.328526 0.395114 0.110829
H15   H     H_    0.795235 0.653944 0.564076 0.097833
H16   H     H_    0.339650 0.842926 0.750608 0.173042
H17   H     H_    0.729504 0.178520 0.185124 0.173387
H18   H     H_    0.209837 0.663489 0.395464 0.212310
H19   H     H_    0.762471 0.302695 0.547145 0.189403
H20   H     H_    0.681366 0.198165 0.526257 0.126655
H21   H     H_    0.315543 0.788959 0.408697 0.116426
H22   H     H_    0.321733 0.065760 0.716146 0.117677
H23   H     H_    0.985414 0.995496 0.149919 0.133810
H24   H     H_    0.674682 0.006855 0.315629 0.137012
H25   H     H_    0.326465 0.338534 0.371153 0.140790
H26   H     H_    0.670211 0.638721 0.575348 0.119588
H27   H     H_    0.678045 0.913775 0.857042 0.109382
H28   H     H_    0.319635 0.130096 0.163987 0.110959
H29   H     H_    0.171276 0.158933 0.566337 0.154217
H30   H     H_    0.775780 0.824443 0.369460 0.172092
H31   H     H_    0.780041 0.127748 0.678409 0.132756
H32   H     H_    0.164489 0.945911 0.346834 0.138622
H33   H     H_    0.993821 0.163144 0.086840 0.134171
H34   H     H_    0.915424 0.132082 0.894500 0.138853
H35   H     H_    0.818816 0.073735 0.989036 0.124231
H36   H     H_    0.975049 0.831126 0.542740 0.329721
H37   H     H_    0.025208 0.253248 0.627012 0.324643
H38   H     H_    0.972142 0.666581 0.084456 0.167481
H39   H     H_    0.996209 0.394111 0.027876 0.178288
H40   H     H_    0.621876 0.820815 0.993589 0.162424
H41   H     H_    0.344280 0.315711 0.173082 0.161855
H42   H     H_    0.808758 0.994514 0.087959 0.110692
I1    I     I_    0.793759 0.593529 0.030063 -0.333010
I2    I     I_    0.147726 0.490538 0.221975 -0.458271
I3    I     I_    0.559018 0.672158 0.746443 -0.397322
I4    I     I_    0.497078 0.349972 0.144112 -0.362480
I5    I     I_    0.390180 0.466753 0.601718 -0.343522
I6    I     I_    0.624010 0.525479 0.335454 -0.388606
N1    N     N_R   0.705410 0.966550 0.689210 -0.051333
N2    N     N_R   0.556610 0.796750 0.548620 -0.047354
N3    N     N_R   0.556610 0.951620 0.703500 -0.044532
N4    N     N_R   0.443390 0.048380 0.296500 -0.043962
N5    N     N_R   0.294590 0.131500 0.522480 -0.045545
N6    N     N_R   0.705410 0.868500 0.477520 -0.052325
N7    N     N_R   0.705410 0.023370 0.632390 -0.049668
N8    N     N_R   0.294590 0.976630 0.367610 -0.046789
N9    N     N_R   0.294590 0.033450 0.310790 -0.049030
N10   N     N_R   0.294590 0.188320 0.465660 -0.049261
N11   N     N_R   0.705410 0.811680 0.534340 -0.051827
N12   N     N_R   0.556610 0.157790 0.497330 -0.045838
N13   N     N_R   0.443390 0.842210 0.502670 -0.048362
N14   N     N_R   0.443390 0.997080 0.657540 -0.041273
N15   N     N_R   0.556610 0.002920 0.342460 -0.045351
N16   N     N_R   0.443390 0.203250 0.451380 -0.042833
Ni1   Ni    Ni4+2 0.629830 0.882720 0.617850 0.237240
Ni2   Ni    Ni4+2 0.370170 0.117280 0.382150 0.218260
Ni3   Ni    Ni4+2 0.629830 0.013030 0.487540 0.263356
Ni4   Ni    Ni4+2 0.370170 0.986970 0.512460 0.250282
O1    O     O_2   0.983694 0.897575 0.353227 -0.279805
O2    O     O_2   0.995471 0.732571 0.358192 -0.307668
O3    O     O_3   0.945704 0.882448 0.495642 -0.501465
O4    O     O_2   0.946062 0.073936 0.603977 -0.259295
O5    O     O_2   0.059619 0.061759 0.529289 -0.335664
O6    O     O_3   0.001801 0.223123 0.655072 -0.548271
S1    S     S_3+6 0.018679 0.823813 0.424351 -0.030734
S2    S     S_3+6 0.966686 0.133565 0.560520 -0.060137

loop_
_geom_bond_atom_site_label_1
_geom_bond_atom_site_label_2
_ccdc_geom_bond_type
N9    Ni2   S    
C41   H21   S    
C4    H41   S    
C63   C65   A    
C59   N4    A    
C29   C42   A    
N4    N15   A    
C38   S1    S    
C14   C18   A    
C3    C68   A    
C55   H25   S    
N1    Ni1   S    
C33   C36   A    
C63   N8    A    
C47   C49   A    
C15   C19   A    
C54   N15   A    
C46   C49   A    
C2    I2    S    
N3    Ni1   S    
C14   C21   A    
C35   C37   A    
C24   C26   D    
C38   C42   A    
N15   Ni3   S    
O2    S1    D    
C51   H35   S    
C40   N12   A    
N3    N14   A    
C56   C57   A    
C19   C66   S    
C48   C56   S    
N6    N11   A    
C2    C13   A    
C62   C64   A    
C59   C67   A    
O3    S1    S    
C58   C66   A    
C61   H30   S    
C44   I5    S    
C22   C25   D    
C35   C49   S    
C31   C33   A    
N4    Ni2   S    
C44   C47   A    
C13   H39   S    
C48   C50   A    
O1    S1    D    
C42   H11   S    
C40   C45   A    
N12   N16   A    
C62   N7    A    
C27   C51   D    
C45   C47   S    
C23   C60   A    
C37   C39   A    
C46   C48   A    
C52   H33   S    
N8    Ni4   S    
C51   C52   S    
C14   H5    S    
C9    H3    S    
C22   H10   S    
C29   H16   S    
C4    C6    A    
C60   H29   S    
N12   Ni3   S    
H37   O6    S    
C5    C7    A    
C17   N11   A    
C39   C43   A    
C12   N9    A    
C36   H18   S    
C25   C26   S    
C34   C61   A    
C24   C34   S    
N7    Ni3   S    
C61   N6    A    
C17   H15   S    
C68   I1    S    
C2    C4    A    
C58   H27   S    
C32   C35   A    
C41   C56   A    
C54   H24   S    
C63   H32   S    
C41   N13   A    
N13   Ni4   S    
C15   C20   A    
C11   H38   S    
C16   H14   S    
C26   H7    S    
C1    N1    A    
C30   H17   S    
C53   C66   A    
C9    C11   A    
N10   Ni2   S    
N2    Ni1   S    
N16   Ni2   S    
C16   C23   A    
C57   H26   S    
C43   H13   S    
O6    S2    S    
C30   C43   A    
O5    S2    D    
C17   C34   A    
C1    C64   A    
C11   C68   A    
N11   Ni1   S    
C44   C50   A    
C7    C9    A    
C19   C21   A    
C37   H19   S    
N14   Ni4   S    
O4    S2    D    
C3    C5    A    
C10   C13   A    
C6    C8    A    
H36   O3    S    
C54   C67   A    
C3    H40   S    
C6    C20   S    
C12   C65   A    
C27   H34   S    
C8    H2    S    
C7    H42   S    
C46   I6    S    
C25   H8    S    
C40   H20   S    
C36   C38   A    
C28   C65   S    
C33   C50   S    
N5    N10   A    
C29   C31   A    
N2    N13   A    
C30   C32   A    
C28   C52   D    
C12   H12   S    
C58   N3    A    
C28   H23   S    
C18   C20   A    
N5    Ni4   S    
N1    N7    A    
C60   N5    A    
C1    H1    S    
N6    Ni3   S    
C27   C64   S    
C62   H31   S    
C24   H9    S    
C15   H6    S    
C5    C21   S    
C39   S2    S    
C45   C55   A    
C8    C10   A    
C55   N16   A    
C59   H28   S    
C53   H22   S    
C18   C67   S    
C22   C23   S    
N8    N9    A    
C53   N14   A    
C32   I4    S    
C16   N10   A    
C31   I3    S    
C57   N2    A    
C10   H4    S    
