data_mof_unit_46116.cif
_audit_creation_date              2012-12-10T17:53:16-0500
_audit_creation_method            fapswitch 2.2
_symmetry_space_group_name_H-M    P1
_symmetry_Int_Tables_number       1
_space_group_crystal_system       triclinic
_cell_length_a                    23.419746
_cell_length_b                    10.576609
_cell_length_c                    9.91979
_cell_angle_alpha                 89.77077
_cell_angle_beta                  89.7124
_cell_angle_gamma                 92.988124
_cell_volume                      2453.75272881

loop_
_atom_site_label
_atom_site_type_symbol
_atom_type_description
_atom_site_fract_x
_atom_site_fract_y
_atom_site_fract_z
_atom_type_partial_charge
C1    C     C_R   0.503349 0.258678 0.501248 0.940035
C2    C     C_R   0.965693 0.278253 0.461486 -0.157125
C3    C     C_R   0.025125 0.278604 0.463010 -0.158034
C4    C     C_R   0.057730 0.392283 0.481651 -0.016958
C5    C     C_R   0.030257 0.506602 0.498669 -0.021343
C6    C     C_R   0.062624 0.621204 0.517638 -0.016078
C7    C     C_R   0.034847 0.734619 0.534051 -0.155177
C8    C     C_R   0.975407 0.734352 0.531926 -0.160048
C9    C     C_R   0.117382 0.395038 0.483753 0.505000
C10   C     C_R   0.122190 0.618998 0.519262 0.503750
C11   C     C_R   0.238067 0.505605 0.379517 -0.107901
C12   C     C_R   0.389390 0.500704 0.500390 0.896486
C13   C     C_R   0.297248 0.504088 0.378820 -0.174118
C14   C     C_R   0.327189 0.503530 0.501098 -0.026984
C15   C     C_R   0.297196 0.506512 0.623912 -0.239502
C16   C     C_R   0.237981 0.508493 0.624207 -0.096746
C17   C     C_R   0.208589 0.507495 0.502072 0.326423
C18   C     C_R   0.762098 0.492605 0.622139 0.237178
C19   C     C_R   0.702516 0.491485 0.621453 -0.207561
C20   C     C_R   0.672957 0.501264 0.499369 -0.084122
C21   C     C_R   0.703306 0.512190 0.377321 -0.214915
C22   C     C_R   0.762530 0.513708 0.377330 -0.145098
C23   C     C_R   0.488917 0.735799 0.499775 0.890551
C24   C     C_R   0.791849 0.504127 0.498842 0.321631
C25   C     C_R   0.512266 0.101578 0.755175 -0.154411
C26   C     C_R   0.494890 0.039840 0.873984 -0.189834
C27   C     C_R   0.459373 0.930574 0.868263 -0.146961
C28   C     C_R   0.445366 0.875627 0.744044 0.234174
C29   C     C_R   0.469393 0.930294 0.623726 0.070179
C30   C     C_R   0.494807 0.053069 0.628081 0.051331
C31   C     C_R   0.500988 0.121457 0.504664 -0.176519
C32   C     C_R   0.490769 0.060468 0.381599 -0.147046
C33   C     C_R   0.473697 0.934126 0.377999 0.195685
C34   C     C_R   0.610628 0.500502 0.499709 0.882159
C35   C     C_R   0.471376 0.865760 0.499726 -0.173786
C36   C     C_R   0.405600 0.365139 0.129569 0.385832
C37   C     C_R   0.358614 0.328618 0.049518 -0.208855
C38   C     C_R   0.364825 0.319993 0.912347 -0.274643
C39   C     C_R   0.415913 0.360475 0.853720 -0.138194
C40   C     C_R   0.457601 0.431460 0.926200 0.100852
C41   C     C_R   0.455639 0.432121 0.071110 0.069641
C42   C     C_R   0.541113 0.564583 0.070830 -0.122196
C43   C     C_R   0.540818 0.565330 0.927941 -0.111341
C44   C     C_R   0.883126 0.617707 0.512326 0.504290
C45   C     C_R   0.878367 0.393529 0.478375 0.503581
C46   C     C_R   0.937923 0.391588 0.478454 -0.016523
C47   C     C_R   0.970279 0.506286 0.496844 -0.020457
C48   C     C_R   0.942794 0.620629 0.513627 -0.016013
H1    H     H_    0.941649 0.189069 0.447217 0.195326
H2    H     H_    0.679294 0.482626 0.716063 0.161244
H3    H     H_    0.681398 0.520037 0.281989 0.166176
H4    H     H_    0.785857 0.522316 0.282910 0.146764
H5    H     H_    0.494151 0.111837 0.286890 0.197775
H6    H     H_    0.540572 0.184939 0.764844 0.171814
H7    H     H_    0.507316 0.079343 0.970677 0.155627
H8    H     H_    0.442496 0.888226 0.960398 0.148458
H9    H     H_    0.574666 0.617703 0.123837 0.145248
H10   H     H_    0.045374 0.189692 0.449740 0.192720
H11   H     H_    0.319795 0.285791 0.093980 0.200255
H12   H     H_    0.331342 0.274010 0.852337 0.187267
H13   H     H_    0.421501 0.334306 0.751339 0.228701
H14   H     H_    0.574151 0.619207 0.873749 0.151111
H15   H     H_    0.058890 0.823767 0.548562 0.195629
H16   H     H_    0.955153 0.823283 0.544996 0.192383
H17   H     H_    0.215004 0.505226 0.285154 0.135832
H18   H     H_    0.319372 0.503251 0.282812 0.164807
H19   H     H_    0.319338 0.507491 0.719453 0.174001
H20   H     H_    0.214845 0.510166 0.718924 0.137969
N1    N     N_R   0.852591 0.505241 0.496010 -0.354598
N2    N     N_R   0.147940 0.507156 0.502267 -0.362085
N3    N     N_R   0.499460 0.498800 0.142780 -0.109472
N4    N     N_R   0.499440 0.498720 0.857170 -0.121885
O1    O     O_R   0.500000 0.316780 0.614690 -0.654766
O2    O     O_2   0.846292 0.285005 0.461668 -0.548168
O3    O     O_2   0.144811 0.286929 0.467737 -0.540488
O4    O     O_2   0.154270 0.727365 0.536935 -0.543945
O5    O     O_R   0.500000 0.316750 0.385360 -0.559635
O6    O     O_R   0.416160 0.499970 0.614690 -0.660559
O7    O     O_R   0.416150 0.499950 0.385360 -0.589106
O8    O     O_R   0.500000 0.683250 0.614640 -0.604331
O9    O     O_R   0.500000 0.683220 0.385310 -0.609659
O10   O     O_R   0.583850 0.500050 0.614640 -0.624869
O11   O     O_R   0.583840 0.500030 0.385310 -0.622028
O12   O     O_2   0.855645 0.725791 0.527881 -0.549538
Zn1   Zn    Zn3+2 0.500000 0.500020 0.653130 0.927432
Zn2   Zn    Zn3+2 0.500000 0.499980 0.346870 0.975720
C49   C     C_3   0.400094 0.769038 0.743499 -0.846419
H21   H     H_    0.386797 0.742765 0.639836 0.226526
H22   H     H_    0.415860 0.685357 0.796759 0.259286
H23   H     H_    0.361359 0.799208 0.797017 0.231981
C50   C     C_3   0.455871 0.877957 0.244303 -0.856689
H24   H     H_    0.428473 0.789823 0.257189 0.250035
H25   H     H_    0.429663 0.945509 0.189008 0.243438
H26   H     H_    0.494289 0.858944 0.183082 0.236039
Cl1   Cl    Cl    0.399972 0.270261 0.274303 -0.641468
C51   C     C_3   0.793604 0.481036 0.753147 -0.883992
H27   H     H_    0.819562 0.396182 0.750720 0.254289
H28   H     H_    0.822278 0.566545 0.768855 0.257140
H29   H     H_    0.763764 0.471472 0.840415 0.232424

loop_
_geom_bond_atom_site_label_1
_geom_bond_atom_site_label_2
_ccdc_geom_bond_type
C49   H21   S    
C51   H29   S    
C43   N4    A    
C1    O5    A    
C19   C20   A    
C36   Cl1   S    
C26   H7    S    
N4    Zn1   S    
C7    C8    A    
C45   C46   A    
C2    C46   A    
C5    C47   A    
C26   C27   A    
C29   C30   A    
C18   C24   A    
C36   C37   A    
C37   C38   A    
C33   C50   S    
C30   C31   A    
C15   C16   A    
C12   O7    A    
C1    C31   S    
C18   C51   S    
C18   C19   A    
C10   O4    S    
C11   C17   A    
C31   C32   A    
C16   C17   A    
C51   H28   S    
C16   H20   S    
C23   O8    A    
C23   O9    A    
O9    Zn2   S    
C50   H24   S    
C41   N3    A    
C20   C34   S    
C17   N2    S    
C21   C22   A    
C36   C41   A    
C42   H9    S    
C24   N1    S    
C13   H18   S    
C38   C39   A    
C39   H13   S    
C45   N1    A    
C25   H6    S    
C39   C40   A    
C27   H8    S    
C25   C26   A    
C12   O6    A    
C45   O2    S    
C8    C48   A    
O8    Zn1   S    
C2    H1    S    
C50   H25   S    
N3    Zn2   S    
C47   C48   A    
C15   H19   S    
C51   H27   S    
C28   C49   S    
C44   N1    A    
C9    N2    A    
C7    H15   S    
C37   H11   S    
C8    H16   S    
C38   H12   S    
C10   N2    A    
O6    Zn1   S    
C40   C41   A    
C12   C14   S    
O5    Zn2   S    
C23   C35   S    
C49   H22   S    
C22   C24   A    
C34   O11   A    
C3    C4    A    
C32   H5    S    
C21   H3    S    
C22   H4    S    
O1    Zn1   S    
C25   C30   A    
C46   C47   A    
C28   C29   A    
C40   N4    A    
C4    C5    A    
C44   O12   S    
C6    C10   A    
C6    C7    A    
O10   Zn1   S    
C9    O3    S    
C29   C35   A    
C1    O1    A    
C32   C33   A    
C2    C3    A    
C50   H26   S    
C11   C13   A    
C19   H2    S    
C5    C6    A    
C42   N3    A    
C33   C35   A    
C3    H10   S    
C44   C48   A    
O11   Zn2   S    
C20   C21   A    
C42   C43   A    
C49   H23   S    
C27   C28   A    
C14   C15   A    
C34   O10   A    
C4    C9    A    
C13   C14   A    
O7    Zn2   S    
C11   H17   S    
C43   H14   S    
