data_mof_unit_21942.cif
_audit_creation_date              2012-12-10T18:42:37-0500
_audit_creation_method            fapswitch 2.2
_symmetry_space_group_name_H-M    P1
_symmetry_Int_Tables_number       1
_space_group_crystal_system       triclinic
_cell_length_a                    10.877448
_cell_length_b                    15.113584
_cell_length_c                    13.985659
_cell_angle_alpha                 89.073206
_cell_angle_beta                  91.040261
_cell_angle_gamma                 92.253389
_cell_volume                      2296.771839

loop_
_atom_site_label
_atom_site_type_symbol
_atom_type_description
_atom_site_fract_x
_atom_site_fract_y
_atom_site_fract_z
_atom_type_partial_charge
C1    C     C_R   0.505464 0.329685 0.500873 0.886286
C2    C     C_R   0.407174 0.807457 0.443106 0.253411
C3    C     C_R   0.508074 0.231752 0.502764 -0.329340
C4    C     C_R   0.498709 0.766209 0.498062 -0.274058
C5    C     C_R   0.551137 0.185049 0.424333 0.015943
C6    C     C_R   0.581660 0.816740 0.555403 0.016004
C7    C     C_R   0.532804 0.092613 0.420538 0.334454
C8    C     C_R   0.572512 0.908717 0.558319 0.387858
C9    C     C_R   0.478550 0.046463 0.498704 -0.080650
C10   C     C_R   0.479610 0.949697 0.503816 -0.068352
C11   C     C_R   0.541177 0.574705 0.108080 -0.312026
C12   C     C_R   0.501863 0.669819 0.499344 0.962948
C13   C     C_R   0.410385 0.457679 0.893331 -0.347037
C14   C     C_R   0.553761 0.569339 0.207664 0.337511
C15   C     C_R   0.412224 0.453204 0.793468 0.344344
C16   C     C_R   0.262347 0.497675 0.498801 0.822036
C17   C     C_R   0.737617 0.497828 0.501306 0.817752
C18   C     C_R   0.451028 0.429473 0.209610 -0.085872
C19   C     C_R   0.586360 0.551054 0.788980 -0.083350
C20   C     C_R   0.461452 0.424107 0.107645 0.369239
C21   C     C_R   0.588408 0.556932 0.890930 0.347035
C22   C     C_R   0.499643 0.501514 0.054691 0.076242
C23   C     C_R   0.871508 0.493948 0.503787 -0.099079
C24   C     C_R   0.501029 0.505452 0.945254 0.057082
C25   C     C_R   0.135989 0.446317 0.155980 -0.251272
C26   C     C_R   0.820909 0.396588 0.814550 -0.270051
C27   C     C_R   0.119057 0.487146 0.243405 -0.152489
C28   C     C_R   0.840861 0.413723 0.717502 -0.135669
C29   C     C_R   0.106577 0.435897 0.327236 0.088869
C30   C     C_R   0.895193 0.494880 0.687303 0.105270
C31   C     C_R   0.114174 0.343568 0.323048 -0.300917
C32   C     C_R   0.930908 0.557882 0.756009 -0.355312
C33   C     C_R   0.129795 0.302073 0.234824 0.457097
C34   C     C_R   0.128393 0.495435 0.496745 -0.082720
C35   C     C_R   0.919746 0.538134 0.854157 0.482439
C36   C     C_R   0.136615 0.354057 0.151023 0.214245
C37   C     C_R   0.860206 0.458287 0.883015 0.236859
C38   C     C_R   0.930123 0.479137 0.417525 -0.184529
C39   C     C_R   0.069915 0.511388 0.582302 -0.214543
C40   C     C_3   0.672470 0.011763 0.340474 0.072726
C41   C     C_3   0.711609 0.992035 0.239440 -0.715455
C42   C     C_3   0.751063 0.992566 0.579922 0.066084
C43   C     C_3   0.849092 0.012665 0.656350 -0.756775
C44   C     C_3   0.461207 0.269599 0.114106 0.108481
C45   C     C_R   0.942881 0.504247 0.588903 0.053821
C46   C     C_3   0.476276 0.190222 0.051227 -0.756195
C47   C     C_3   0.695919 0.692348 0.898549 0.079031
C48   C     C_3   0.753891 0.754175 0.973105 -0.704244
C49   C     C_3   0.208121 0.170452 0.289014 0.038310
C50   C     C_3   0.248313 0.086153 0.242896 -0.675286
C51   C     C_3   0.091820 0.606409 0.918607 0.066992
C52   C     C_3   0.138808 0.667321 0.997623 -0.801832
C53   C     C_3   0.277600 0.063348 0.675014 0.098026
C54   C     C_3   0.224295 0.996747 0.747237 -0.780920
C55   C     C_3   0.182997 0.908243 0.463085 0.106041
C56   C     C_R   0.057263 0.474753 0.414071 0.030913
C57   C     C_3   0.076333 0.966936 0.438560 -0.838032
C58   C     C_3   0.577481 0.216464 0.717456 0.131142
C59   C     C_3   0.560431 0.216512 0.824372 -0.745014
C60   C     C_3   0.353092 0.778404 0.288494 0.141393
C61   C     C_3   0.289655 0.709511 0.224961 -0.819755
C62   C     C_R   0.443010 0.091822 0.579289 0.359907
C63   C     C_R   0.391227 0.898821 0.452651 0.333806
C64   C     C_R   0.466263 0.183415 0.583734 0.279134
Cu1   Cu    Cu3+1 0.500000 0.499990 0.596430 0.988775
Cu2   Cu    Cu3+1 0.500000 0.500010 0.403570 0.995660
H1    H     H_    0.569323 0.635977 0.073393 0.208398
H2    H     H_    0.973635 0.620421 0.733138 0.166053
H3    H     H_    0.876403 0.465360 0.352960 0.203881
H4    H     H_    0.123976 0.523612 0.646933 0.176269
H5    H     H_    0.667494 0.948072 0.380889 0.125721
H6    H     H_    0.744530 0.056676 0.373251 0.152873
H7    H     H_    0.717674 0.054225 0.196065 0.266765
H8    H     H_    0.803120 0.961876 0.241628 0.203582
H9    H     H_    0.643657 0.945086 0.205324 0.235185
H10   H     H_    0.730212 0.055835 0.542969 0.121456
H11   H     H_    0.789916 0.946392 0.528140 0.136087
H12   H     H_    0.336009 0.423312 0.930237 0.229567
H13   H     H_    0.874292 0.950625 0.694176 0.266141
H14   H     H_    0.932601 0.043131 0.622746 0.190305
H15   H     H_    0.814283 0.059436 0.708992 0.241551
H16   H     H_    0.383175 0.254120 0.161929 0.156993
H17   H     H_    0.548276 0.278922 0.155409 0.192737
H18   H     H_    0.564667 0.198163 0.013602 0.248311
H19   H     H_    0.480006 0.129154 0.096226 0.214381
H20   H     H_    0.398088 0.183297 0.999425 0.271771
H21   H     H_    0.606763 0.720088 0.874424 0.137758
H22   H     H_    0.759521 0.691413 0.837526 0.191395
H23   H     H_    0.409632 0.375312 0.250404 0.131965
H24   H     H_    0.839899 0.726719 0.002919 0.294349
H25   H     H_    0.776130 0.819838 0.939593 0.203133
H26   H     H_    0.689135 0.763395 0.032188 0.223051
H27   H     H_    0.163684 0.153326 0.358003 0.157979
H28   H     H_    0.292147 0.213101 0.304029 0.118674
H29   H     H_    0.282917 0.101182 0.170131 0.239127
H30   H     H_    0.322859 0.056779 0.286154 0.271076
H31   H     H_    0.169461 0.037668 0.236742 0.244422
H32   H     H_    0.122733 0.636349 0.849521 0.140449
H33   H     H_    0.134071 0.540855 0.928940 0.149889
H34   H     H_    0.655562 0.586455 0.747561 0.169123
H35   H     H_    0.107296 0.641588 0.068164 0.256936
H36   H     H_    0.240939 0.671305 0.997437 0.197683
H37   H     H_    0.103751 0.734716 0.985693 0.250929
H38   H     H_    0.220749 0.058826 0.608109 0.119567
H39   H     H_    0.270668 0.130598 0.704953 0.210924
H40   H     H_    0.276314 0.001925 0.816131 0.258503
H41   H     H_    0.126300 0.010299 0.759656 0.207453
H42   H     H_    0.230094 0.928464 0.719966 0.240423
H43   H     H_    0.198088 0.909192 0.542110 0.139153
H44   H     H_    0.155046 0.839828 0.441652 0.201056
H45   H     H_    0.142311 0.485951 0.091278 0.179222
H46   H     H_    0.055512 0.965530 0.360654 0.255095
H47   H     H_    0.993600 0.942006 0.477132 0.209851
H48   H     H_    0.098657 0.035920 0.460627 0.233166
H49   H     H_    0.637886 0.274113 0.696672 0.141502
H50   H     H_    0.625169 0.154538 0.700714 0.149550
H51   H     H_    0.494548 0.161739 0.844713 0.265743
H52   H     H_    0.650089 0.205849 0.861030 0.186729
H53   H     H_    0.524698 0.280639 0.846763 0.277458
H54   H     H_    0.453498 0.779200 0.273907 0.154769
H55   H     H_    0.316964 0.844113 0.268556 0.180193
H56   H     H_    0.778740 0.334027 0.836957 0.171586
H57   H     H_    0.188294 0.713109 0.230589 0.244628
H58   H     H_    0.316290 0.722393 0.149714 0.198858
H59   H     H_    0.317721 0.642219 0.246798 0.269998
H60   H     H_    0.108789 0.557981 0.245076 0.160670
H61   H     H_    0.818263 0.362629 0.666020 0.130687
H62   H     H_    0.098716 0.303662 0.387062 0.145727
I1    I     I_    0.137798 0.293521 0.015498 -0.322132
I2    I     I_    0.829760 0.428399 0.029368 -0.265888
I3    I     I_    0.681049 0.665002 0.266174 -0.381251
I4    I     I_    0.273352 0.366142 0.735324 -0.336342
I5    I     I_    0.677652 0.247294 0.327129 -0.403090
I6    I     I_    0.731055 0.757825 0.630177 -0.444701
N1    N     N_R   0.500000 0.500020 0.258690 -0.200493
N2    N     N_R   0.500000 0.499980 0.741310 -0.207086
O1    O     O_R   0.500010 0.371450 0.581430 -0.530947
O2    O     O_3   0.644096 0.956627 0.623934 -0.520654
O3    O     O_3   0.436873 0.345705 0.058003 -0.584422
O4    O     O_3   0.680883 0.605936 0.938262 -0.564130
O5    O     O_3   0.122582 0.210855 0.226739 -0.553509
O6    O     O_3   0.962132 0.597796 0.922254 -0.552031
O7    O     O_3   0.401622 0.044343 0.658853 -0.533443
O8    O     O_3   0.289143 0.938991 0.413541 -0.591326
O9    O     O_3   0.461220 0.222954 0.671467 -0.534219
O10   O     O_3   0.328628 0.756785 0.385145 -0.578175
O11   O     O_R   0.499990 0.628550 0.418570 -0.540280
O12   O     O_R   0.500010 0.371460 0.418560 -0.578296
O13   O     O_R   0.499990 0.628540 0.581440 -0.578418
O14   O     O_R   0.319640 0.500000 0.581430 -0.574857
O15   O     O_R   0.680360 0.500000 0.418570 -0.551022
O16   O     O_R   0.319640 0.500010 0.418560 -0.579819
O17   O     O_R   0.680360 0.499990 0.581440 -0.590159
O18   O     O_3   0.555724 0.049509 0.336235 -0.564180

loop_
_geom_bond_atom_site_label_1
_geom_bond_atom_site_label_2
_ccdc_geom_bond_type
C52   H37   S    
C34   C56   A    
C39   C45   A    
C23   C45   A    
C40   H5    S    
C64   O9    S    
C27   C29   A    
C30   C45   S    
C10   C63   A    
C62   O7    S    
C44   H17   S    
C17   O17   A    
C58   O9    S    
C53   C54   S    
C5    I5    S    
C52   H36   S    
C17   C23   S    
C54   H41   S    
C61   H58   S    
C12   O11   A    
C19   C21   A    
C44   H16   S    
C27   H60   S    
C50   H29   S    
C57   H46   S    
C42   O2    S    
C14   N1    A    
C53   H38   S    
C43   H13   S    
C33   C36   A    
C37   I2    S    
C8    O2    S    
Cu1   O14   S    
C62   C64   A    
C16   C34   S    
C41   H8    S    
C15   I4    S    
C44   C46   S    
C48   H25   S    
C49   O5    S    
C47   O4    S    
Cu1   O17   S    
C63   O8    S    
C31   C33   A    
C49   H28   S    
C4    C12   S    
C9    C10   S    
Cu2   O12   S    
C28   H61   S    
C32   H2    S    
C46   H19   S    
Cu1   O1    S    
C51   H32   S    
C38   H3    S    
C59   H51   S    
C48   H24   S    
C55   H43   S    
C58   H50   S    
C19   N2    A    
C40   O18   S    
C17   O15   A    
C60   O10   S    
C31   H62   S    
C11   H1    S    
C14   I3    S    
C51   H33   S    
C52   H35   S    
C54   H40   S    
C51   C52   S    
C32   C35   A    
C4    C6    A    
C1    C3    S    
C5    C7    A    
C57   H47   S    
C15   N2    A    
C35   O6    S    
C33   O5    S    
C43   H14   S    
C3    C64   A    
C34   C39   A    
C13   C24   A    
C60   C61   S    
C53   O7    S    
C47   H21   S    
C2    C4    A    
Cu2   O16   S    
C41   H9    S    
C47   C48   S    
C18   N1    A    
C16   O16   A    
Cu2   O11   S    
C46   H18   S    
C8    C10   A    
C40   C41   S    
C20   C22   A    
Cu1   Cu2   S    
C44   O3    S    
C55   C57   S    
C55   H44   S    
C58   H49   S    
C43   H15   S    
C22   C24   S    
C2    O10   S    
C42   C43   S    
C1    O1    A    
C2    C63   A    
C20   O3    S    
C51   O6    S    
C7    C9    A    
C13   H12   S    
C50   H31   S    
C59   H53   S    
C55   O8    S    
C40   H6    S    
C35   C37   A    
C18   H23   S    
C42   H10   S    
C12   O13   A    
C3    C5    A    
C6    C8    A    
C19   H34   S    
C26   C37   A    
C57   H48   S    
C29   C56   S    
C59   H52   S    
C23   C38   A    
C11   C22   A    
C26   C28   A    
C9    C62   A    
C54   H42   S    
C61   H57   S    
C47   H22   S    
C13   C15   A    
C58   C59   S    
Cu2   O15   S    
C29   C31   A    
C36   I1    S    
C30   C32   A    
C50   H30   S    
C7    O18   S    
C28   C30   A    
C11   C14   A    
C39   H4    S    
C60   H54   S    
C18   C20   A    
Cu1   O13   S    
C60   H55   S    
Cu1   N2    S    
C25   H45   S    
C25   C36   A    
C41   H7    S    
Cu2   N1    S    
C53   H39   S    
C38   C56   A    
C42   H11   S    
C6    I6    S    
C49   C50   S    
C48   H26   S    
C21   C24   A    
C1    O12   A    
C61   H59   S    
C26   H56   S    
C21   O4    S    
C49   H27   S    
C16   O14   A    
C46   H20   S    
C25   C27   A    
