data_mof_unit_57135.cif
_audit_creation_date              2013-03-05T15:41:15-0500
_audit_creation_method            fapswitch 2.2
_symmetry_space_group_name_H-M    P1
_symmetry_Int_Tables_number       1
_space_group_crystal_system       triclinic
_cell_length_a                    8.161953
_cell_length_b                    8.706014
_cell_length_c                    13.600116
_cell_angle_alpha                 102.027962
_cell_angle_beta                  75.87905
_cell_angle_gamma                 91.558804
_cell_volume                      916.336437639

loop_
_atom_site_label
_atom_site_type_symbol
_atom_site_description
_atom_site_fract_x
_atom_site_fract_y
_atom_site_fract_z
_atom_type_partial_charge
O1    O     O_R   0.388300 0.738660 0.506400 -0.618303
O2    O     O_R   0.611700 0.261340 0.493600 -0.618303
O3    O     O_R   0.679920 0.711490 0.489690 -0.656254
O4    O     O_R   0.320080 0.288510 0.510310 -0.656253
C1    C     C_R   0.542319 0.792206 0.497109 0.884953
C2    C     C_R   0.457681 0.207794 0.502892 0.884954
O5    O     O_R   0.333200 0.515510 0.649910 -0.635878
O6    O     O_R   0.666800 0.484490 0.350090 -0.635877
O7    O     O_R   0.624820 0.488340 0.633200 -0.616789
O8    O     O_R   0.375180 0.511660 0.366800 -0.616789
C3    C     C_R   0.466118 0.504383 0.687640 0.844245
C4    C     C_R   0.533882 0.495617 0.312360 0.844245
Zn1   Zn    Zn3+2 0.305280 0.518140 0.511160 0.910249
Zn2   Zn    Zn3+2 0.694720 0.481860 0.488840 0.910249
C5    C     C_1   0.562128 0.493332 0.205305 -0.163353
C6    C     C_1   0.437872 0.506668 0.794694 -0.163352
C7    C     C_2   0.573798 0.493918 0.011722 -0.169168
C8    C     C_2   0.426202 0.506081 0.988278 -0.169168
C9    C     C_1   0.425704 0.507192 0.884011 0.000889
C10   C     C_1   0.574296 0.492808 0.115988 0.000889
H1    H     H_    0.307099 0.514715 0.046560 0.167624
H2    H     H_    0.692901 0.485284 0.953440 0.167624
C11   C     C_2   0.565065 0.947987 0.481156 -0.085213
C12   C     C_2   0.434935 0.052013 0.518844 -0.085215
N1    N     N_2   0.954190 0.457600 0.473930 -0.108507
N2    N     N_2   0.045810 0.542400 0.526070 -0.108507
N3    N     N_3   0.723806 0.984077 0.417091 -0.453439
H3    H     H_    0.746344 0.904565 0.345743 0.184004
H4    H     H_    0.820200 0.969116 0.453009 0.213472
N4    N     N_3   0.276198 0.015925 0.582915 -0.453451
H5    H     H_    0.253669 0.095436 0.654259 0.184005
H6    H     H_    0.179799 0.030884 0.547003 0.213475
C13   C     C_R   0.019854 0.338157 0.375394 0.243400
C14   C     C_R   0.906842 0.264182 0.316162 -0.100120
C15   C     C_R   0.956059 0.174542 0.215129 -0.215689
C16   C     C_R   0.124626 0.140037 0.169453 -0.085112
C17   C     C_R   0.239564 0.185911 0.228535 -0.201971
C18   C     C_R   0.186025 0.275419 0.329625 -0.142005
H7    H     H_    0.776971 0.261447 0.344987 0.210116
H8    H     H_    0.861706 0.127241 0.173915 0.132085
H9    H     H_    0.164426 0.069400 0.091796 0.129792
H10   H     H_    0.370771 0.147951 0.197407 0.129497
H11   H     H_    0.282348 0.281101 0.365195 0.201476
C19   C     C_R   0.980146 0.661843 0.624606 0.243400
C20   C     C_R   0.093158 0.735819 0.683837 -0.100122
C21   C     C_R   0.043942 0.825461 0.784870 -0.215688
C22   C     C_R   0.875375 0.859968 0.830545 -0.085111
C23   C     C_R   0.760437 0.814093 0.771463 -0.201973
C24   C     C_R   0.813975 0.724582 0.670375 -0.142006
H12   H     H_    0.223029 0.738552 0.655012 0.210118
H13   H     H_    0.138295 0.872763 0.826083 0.132086
H14   H     H_    0.835576 0.930608 0.908201 0.129792
H15   H     H_    0.629229 0.852054 0.802592 0.129497
H16   H     H_    0.717651 0.718899 0.634805 0.201476

loop_
_geom_bond_atom_site_label_1
_geom_bond_atom_site_label_2
_geom_bond_distance
_ccdc_geom_bond_type
C19   C24   1.418440 A    
C22   H14   1.082551 S    
N4    H6    1.046013 S    
C11   C12   1.343226 D    
C17   C18   1.402574 A    
C14   C15   1.399741 A    
C11   N3    1.441418 S    
N3    H4    1.046047 S    
C8    H1    1.087244 S    
C3    C6    1.413415 S    
C14   H7    1.038082 S    
C7    H2    1.087244 S    
C1    C11   1.417808 S    
C4    C5    1.413416 S    
O6    C4    1.322002 A    
N4    H5    1.046126 S    
O7    Zn2   1.895342 S    
C2    C12   1.417810 S    
C15   H8    1.083505 S    
N2    C19   1.504500 S    
C18   H11   1.013923 S    
C20   C21   1.399739 A    
O5    C3    1.322002 A    
O7    C3    1.320732 A    
C16   H9    1.082552 S    
O2    C2    1.314813 A    
O3    Zn2   2.003546 S    
O8    C4    1.320731 A    
C20   H12   1.038080 S    
C6    C9    1.193433 T    
O1    C1    1.314812 A    
C16   C17   1.378009 A    
C13   C14   1.424258 A    
Zn2   N1    2.089897 S    
C7    C8    1.331363 D    
C23   H15   1.083986 S    
O2    Zn2   2.027014 S    
C12   N4    1.441420 S    
Zn1   N2    2.089898 S    
O1    Zn1   2.027014 S    
C24   H16   1.013922 S    
O5    Zn1   1.959950 S    
C7    C10   1.421080 S    
C19   C20   1.424259 A    
O4    C2    1.312790 A    
C8    C9    1.421080 S    
C17   H10   1.083985 S    
C21   C22   1.377217 A    
C23   C24   1.402575 A    
C13   C18   1.418438 A    
O6    Zn2   1.959947 S    
C15   C16   1.377219 A    
O3    C1    1.312790 A    
N1    N2    1.271848 D    
C21   H13   1.083506 S    
C22   C23   1.378009 A    
O4    Zn1   2.003546 S    
N1    C13   1.504499 S    
C5    C10   1.193433 T    
N3    H3    1.046165 S    
O8    Zn1   1.895341 S    
