data_mof_unit_27070.cif
_audit_creation_date              2012-12-10T20:27:13-0500
_audit_creation_method            fapswitch 2.2
_symmetry_space_group_name_H-M    P1
_symmetry_Int_Tables_number       1
_space_group_crystal_system       triclinic
_cell_length_a                    10.835296
_cell_length_b                    10.756001
_cell_length_c                    9.914763
_cell_angle_alpha                 90.671505
_cell_angle_beta                  103.617469
_cell_angle_gamma                 90.591539
_cell_volume                      1122.84949319

loop_
_atom_site_label
_atom_site_type_symbol
_atom_type_description
_atom_site_fract_x
_atom_site_fract_y
_atom_site_fract_z
_atom_type_partial_charge
C1    C     C_R   0.512187 0.261360 0.501785 0.910375
C2    C     C_R   0.588515 0.568579 0.091429 0.453042
C3    C     C_R   0.586947 0.566095 0.948215 -0.116875
C4    C     C_R   0.259673 0.498632 0.441783 0.908006
C5    C     C_R   0.419701 0.422973 0.907799 0.234285
C6    C     C_3   0.278079 0.420340 0.866089 -0.492648
C7    C     C_3   0.277910 0.421931 0.019298 -0.405722
C8    C     C_R   0.499888 0.739792 0.500960 0.963810
C9    C     C_R   0.740337 0.497309 0.558110 0.955224
C10   C     C_2   0.124879 0.477584 0.407755 0.149777
C11   C     C_2   0.057361 0.527037 0.490985 0.290627
C12   C     C_R   0.533021 0.130498 0.503837 -0.177372
C13   C     C_2   0.876351 0.504680 0.591206 -0.308695
C14   C     C_2   0.933214 0.476884 0.490302 -0.092268
C15   C     C_R   0.526454 0.066168 0.622112 -0.047568
C16   C     C_R   0.549539 0.060569 0.386765 0.317458
C17   C     C_R   0.531875 0.932215 0.386390 -0.209817
C18   C     C_R   0.510994 0.871577 0.504076 -0.112239
C19   C     C_R   0.511931 0.942228 0.622410 -0.034064
C20   C     C_3   0.501285 0.942763 0.771184 0.167128
C21   C     C_3   0.517282 0.085174 0.767980 0.222537
C22   C     C_R   0.419113 0.423834 0.049444 0.256540
Cl1   Cl    Cl    0.664038 0.141550 0.874249 -0.421439
Cl2   Cl    Cl    0.110743 0.662651 0.592168 -0.547030
Cl3   Cl    Cl    0.064495 0.362434 0.279315 -0.521782
H1    H     H_    0.881789 0.424444 0.399796 0.250869
H2    H     H_    0.433143 0.140573 0.775882 0.163190
H3    H     H_    0.799472 0.755654 0.381637 0.401292
H4    H     H_    0.397014 0.118557 0.140703 0.362141
H5    H     H_    0.352514 0.700603 0.771311 0.389989
H6    H     H_    0.655642 0.618986 0.908170 0.198207
H7    H     H_    0.237978 0.505825 0.812333 0.261875
H8    H     H_    0.240414 0.331868 0.812105 0.232841
H9    H     H_    0.238830 0.508807 0.053586 0.244464
H10   H     H_    0.240059 0.334396 0.053558 0.255740
H11   H     H_    0.926329 0.547571 0.688801 0.214637
H12   H     H_    0.536227 0.879919 0.293737 0.243398
H13   H     H_    0.580642 0.894284 0.841839 0.172842
N1    N     N_R   0.499160 0.499140 0.142600 -0.174038
N2    N     N_R   0.499160 0.499180 0.856960 -0.158196
O1    O     O_R   0.500020 0.316790 0.614700 -0.610551
O2    O     O_2   0.735048 0.770539 0.102177 -0.261722
O3    O     O_3   0.715435 0.715263 0.345266 -0.542580
O4    O     O_2   0.687668 0.230886 0.284861 -0.230963
O5    O     O_2   0.662453 0.024833 0.175510 -0.173235
O6    O     O_3   0.468452 0.169397 0.123874 -0.522724
O7    O     O_2   0.311940 0.984863 0.899670 -0.239310
O8    O     O_2   0.249715 0.911451 0.658854 -0.218965
O9    O     O_3   0.348521 0.753884 0.851835 -0.519365
O10   O     O_R   0.500000 0.316760 0.385350 -0.566896
O11   O     O_R   0.317820 0.500020 0.571850 -0.626930
O12   O     O_R   0.317800 0.499980 0.342510 -0.605523
O13   O     O_R   0.500000 0.683240 0.614650 -0.647041
O14   O     O_R   0.499980 0.683210 0.385300 -0.576880
O15   O     O_R   0.682200 0.500020 0.657490 -0.608593
O16   O     O_R   0.682180 0.499980 0.428150 -0.542520
O17   O     O_2   0.835828 0.581870 0.201855 -0.272736
S1    S     S_3+6 0.719471 0.659735 0.188106 0.076450
S2    S     S_3+6 0.597235 0.122934 0.241514 0.110667
S3    S     S_3+6 0.347138 0.899951 0.793687 0.088823
Zn1   Zn    Zn3+2 0.500010 0.500020 0.653140 1.001462
Zn2   Zn    Zn3+2 0.499990 0.499980 0.346860 1.088591

loop_
_geom_bond_atom_site_label_1
_geom_bond_atom_site_label_2
_ccdc_geom_bond_type
C8    O13   A    
C6    H7    S    
C2    S1    S    
C6    C7    S    
C9    O15   A    
O6    S2    S    
C20   S3    S    
C7    C22   S    
C20   H13   S    
C1    O10   A    
H3    O3    S    
C19   C20   S    
O11   Zn1   S    
C6    H8    S    
O1    Zn1   S    
H4    O6    S    
O2    S1    D    
C2    C3    A    
C21   H2    S    
C9    O16   A    
C17   H12   S    
C13   C14   D    
C14   H1    S    
C3    H6    S    
C1    C12   S    
O17   S1    D    
O9    S3    S    
C7    H10   S    
O4    S2    D    
C4    O12   A    
C22   N1    A    
O15   Zn1   S    
C10   Cl3   S    
C1    O1    A    
C7    H9    S    
H5    O9    S    
C3    N2    A    
O8    S3    D    
C12   C15   A    
C21   Cl1   S    
C5    C6    S    
O10   Zn2   S    
C11   C14   S    
O16   Zn2   S    
C10   C11   D    
N2    Zn1   S    
C4    O11   A    
C4    C10   S    
C11   Cl2   S    
C15   C21   S    
C20   C21   S    
C13   H11   S    
C17   C18   A    
C18   C19   A    
C5    N2    A    
C8    O14   A    
N1    Zn2   S    
C9    C13   S    
O5    S2    D    
O12   Zn2   S    
O14   Zn2   S    
O3    S1    S    
O7    S3    D    
C15   C19   A    
O13   Zn1   S    
C2    N1    A    
C8    C18   S    
C5    C22   A    
C12   C16   A    
C16   C17   A    
C16   S2    S    
