data_mof_unit_45355.cif
_audit_creation_date              2013-03-05T15:44:39-0500
_audit_creation_method            fapswitch 2.2
_symmetry_space_group_name_H-M    P1
_symmetry_Int_Tables_number       1
_space_group_crystal_system       triclinic
_cell_length_a                    18.935872
_cell_length_b                    11.025519
_cell_length_c                    18.752729
_cell_angle_alpha                 89.746365
_cell_angle_beta                  90.407363
_cell_angle_gamma                 89.533377
_cell_volume                      3914.88565129

loop_
_atom_site_label
_atom_site_type_symbol
_atom_site_description
_atom_site_fract_x
_atom_site_fract_y
_atom_site_fract_z
_atom_type_partial_charge
O1    O     O_R   0.787540 0.042690 0.170470 -0.411019
O2    O     O_R   0.212460 0.042690 0.829530 -0.478177
O3    O     O_R   0.287540 0.542690 0.170470 -0.452921
O4    O     O_R   0.712460 0.542690 0.829530 -0.419208
O5    O     O_R   0.765660 0.292160 0.175050 -0.532339
O6    O     O_R   0.234340 0.292160 0.824950 -0.493618
O7    O     O_R   0.265660 0.792160 0.175050 -0.513312
O8    O     O_R   0.734340 0.792160 0.824950 -0.532481
C1    C     C_R   0.731813 0.381777 0.148078 0.557207
C2    C     C_R   0.270212 0.375678 0.854159 0.609810
C3    C     C_R   0.229773 0.877768 0.146098 0.569831
C4    C     C_R   0.768380 0.880289 0.852490 0.561241
O9    O     O_R   0.670190 0.408980 0.168550 -0.438168
O10   O     O_R   0.329810 0.408980 0.831450 -0.464974
O11   O     O_R   0.170190 0.908980 0.168550 -0.444011
O12   O     O_R   0.829810 0.908980 0.831450 -0.453265
O13   O     O_R   0.556580 0.251450 0.175160 -0.464704
O14   O     O_R   0.443420 0.251450 0.824840 -0.469412
O15   O     O_R   0.056580 0.751450 0.175160 -0.449851
O16   O     O_R   0.943420 0.751450 0.824840 -0.476306
C5    C     C_R   0.529533 0.156114 0.147916 0.572336
C6    C     C_R   0.467384 0.154226 0.854404 0.582526
C7    C     C_R   0.033512 0.654740 0.144934 0.586165
C8    C     C_R   0.970989 0.655499 0.851565 0.571119
O17   O     O_R   0.545920 0.049510 0.170320 -0.492102
O18   O     O_R   0.454080 0.049510 0.829680 -0.495161
O19   O     O_R   0.045920 0.549510 0.170320 -0.504739
O20   O     O_R   0.954080 0.549510 0.829680 -0.488950
O21   O     O_R   0.681390 0.957840 0.176710 -0.417288
O22   O     O_R   0.318610 0.957840 0.823290 -0.459153
O23   O     O_R   0.181390 0.457840 0.176710 -0.481228
O24   O     O_R   0.818610 0.457840 0.823290 -0.402193
C9    C     C_R   0.725939 0.018697 0.139694 0.552354
C10   C     C_R   0.258715 0.970947 0.852976 0.622158
C11   C     C_R   0.241302 0.470405 0.147587 0.623044
C12   C     C_R   0.773481 0.518531 0.860366 0.565008
O25   O     O_R   0.787500 0.044280 0.330990 -0.432360
O26   O     O_R   0.212500 0.044280 0.669010 -0.398796
O27   O     O_R   0.287500 0.544280 0.330990 -0.433367
O28   O     O_R   0.712500 0.544280 0.669010 -0.393777
O29   O     O_R   0.765610 0.293630 0.323860 -0.456570
O30   O     O_R   0.234390 0.293630 0.676140 -0.482295
O31   O     O_R   0.265610 0.793630 0.323860 -0.454211
O32   O     O_R   0.734390 0.793630 0.676140 -0.485699
C13   C     C_R   0.731032 0.380430 0.351532 0.563789
C14   C     C_R   0.270186 0.378905 0.647902 0.609547
C15   C     C_R   0.231034 0.880434 0.351531 0.564764
C16   C     C_R   0.770201 0.878868 0.647884 0.605596
O33   O     O_R   0.670140 0.410570 0.329080 -0.492583
O34   O     O_R   0.329860 0.410570 0.670920 -0.451684
O35   O     O_R   0.170140 0.910570 0.329080 -0.497853
O36   O     O_R   0.829860 0.910570 0.670920 -0.445730
O37   O     O_R   0.556540 0.252920 0.323970 -0.453928
O38   O     O_R   0.443460 0.252920 0.676030 -0.460319
O39   O     O_R   0.056540 0.752920 0.323970 -0.454715
O40   O     O_R   0.943460 0.752920 0.676030 -0.459338
C17   C     C_R   0.535890 0.155755 0.356086 0.603766
C18   C     C_R   0.470742 0.157749 0.648631 0.584755
C19   C     C_R   0.035913 0.655755 0.356103 0.606656
C20   C     C_R   0.970755 0.657747 0.648644 0.584031
O41   O     O_R   0.545870 0.051100 0.330840 -0.443317
O42   O     O_R   0.454130 0.051100 0.669160 -0.467369
O43   O     O_R   0.045870 0.551100 0.330840 -0.442697
O44   O     O_R   0.954130 0.551100 0.669160 -0.468558
O45   O     O_R   0.681340 0.959300 0.325510 -0.471007
O46   O     O_R   0.318660 0.959300 0.674490 -0.473925
O47   O     O_R   0.181340 0.459300 0.325510 -0.475589
O48   O     O_R   0.818660 0.459300 0.674490 -0.468137
C21   C     C_R   0.741770 0.971716 0.354127 0.619741
C22   C     C_R   0.271794 0.022225 0.638245 0.534985
C23   C     C_R   0.241765 0.471727 0.354138 0.615927
C24   C     C_R   0.771794 0.522226 0.638244 0.536543
Cr1   Cr    Cr6+3 0.772000 0.169640 0.250110 1.178534
Cr2   Cr    Cr6+3 0.228000 0.169640 0.749890 1.188015
Cr3   Cr    Cr6+3 0.272000 0.669640 0.250110 1.183863
Cr4   Cr    Cr6+3 0.728000 0.669640 0.749890 1.178684
Cr5   Cr    Cr6+3 0.614960 0.323350 0.249260 1.191999
Cr6   Cr    Cr6+3 0.385040 0.323350 0.750740 1.186006
Cr7   Cr    Cr6+3 0.114960 0.823350 0.249260 1.194177
Cr8   Cr    Cr6+3 0.885040 0.823350 0.750740 1.186379
Cr9   Cr    Cr6+3 0.616670 0.010620 0.250840 1.200786
Cr10  Cr    Cr6+3 0.383330 0.010620 0.749160 1.165108
Cr11  Cr    Cr6+3 0.116670 0.510620 0.250840 1.165739
Cr12  Cr    Cr6+3 0.883330 0.510620 0.749160 1.187017
O49   O     O_3   0.667880 0.167870 0.250070 -0.371687
O50   O     O_3   0.332120 0.167870 0.749930 -0.373858
O51   O     O_3   0.167880 0.667870 0.250070 -0.354456
O52   O     O_3   0.832120 0.667870 0.749930 -0.390070
H1    H     H_    0.474138 0.974053 0.072282 0.223826
H2    H     H_    0.467543 0.969222 0.945156 0.231635
H3    H     H_    0.051051 0.474578 0.052731 0.205767
H4    H     H_    0.039788 0.478999 0.925097 0.217979
C25   C     C_R   0.491854 0.159360 0.929062 0.024752
C26   C     C_R   0.493230 0.166559 0.078539 0.074528
C27   C     C_R   0.009193 0.667222 0.919748 0.080582
C28   C     C_R   0.012145 0.659501 0.069187 0.022463
C29   C     C_R   0.503624 0.270695 0.964546 -0.077481
C30   C     C_R   0.491901 0.276456 0.039044 -0.064704
C31   C     C_R   0.004835 0.776021 0.959128 -0.059796
C32   C     C_R   0.992865 0.768734 0.033426 -0.075963
C33   C     C_R   0.480752 0.058107 0.043072 -0.060920
C34   C     C_R   0.479585 0.054847 0.969825 -0.109255
C35   C     C_R   0.032371 0.558140 0.028238 -0.115980
C36   C     C_R   0.029173 0.561205 0.954737 -0.057023
C37   C     C_R   0.524277 0.377156 0.928608 0.213447
C38   C     C_R   0.475606 0.390364 0.069693 0.214672
C39   C     C_R   0.013525 0.891028 0.927335 0.218414
C40   C     C_R   0.963238 0.871137 0.067667 0.226110
C41   C     C_R   0.994226 0.995143 0.965034 0.261843
C42   C     C_R   0.963199 0.984251 0.032606 0.282238
C43   C     C_R   0.511747 0.490113 0.960060 0.269939
C44   C     C_R   0.481377 0.496154 0.028244 0.286623
C45   C     C_R   0.677369 0.904658 0.028497 0.190927
C46   C     C_R   0.295058 0.853699 0.960849 0.190833
C47   C     C_R   0.281171 0.332517 0.050164 0.233250
C48   C     C_R   0.825433 0.418810 0.974797 0.202321
C49   C     C_R   0.692671 0.872089 0.958346 -0.147869
C50   C     C_R   0.293430 0.844949 0.034751 -0.136212
C51   C     C_R   0.286412 0.315373 0.976709 -0.149376
C52   C     C_R   0.814597 0.391570 0.046801 -0.136710
H5    H     H_    0.662709 0.801394 0.933002 0.197600
H6    H     H_    0.325660 0.776036 0.060602 0.205066
H7    H     H_    0.313955 0.236100 0.956563 0.125704
H8    H     H_    0.848995 0.327075 0.073636 0.214700
C53   C     C_R   0.741668 0.935013 0.918218 -0.027872
C54   C     C_R   0.245653 0.915920 0.074226 0.008124
C55   C     C_R   0.256467 0.398826 0.928206 0.001239
C56   C     C_R   0.757888 0.440913 0.083316 -0.018961
C57   C     C_R   0.765041 0.046908 0.943556 0.206280
C58   C     C_R   0.202147 0.003349 0.039454 0.209454
C59   C     C_R   0.220127 0.502309 0.951738 0.197022
C60   C     C_R   0.718679 0.534224 0.051379 0.183931
C61   C     C_R   0.761709 0.068321 0.017081 -0.131933
C62   C     C_R   0.204933 0.011787 0.966812 -0.125300
C63   C     C_R   0.216410 0.521182 0.025056 -0.157746
C64   C     C_R   0.722574 0.552158 0.978317 -0.152252
H9    H     H_    0.784170 0.150430 0.038173 0.162664
H10   H     H_    0.171433 0.080260 0.941972 0.212070
H11   H     H_    0.189819 0.601577 0.044971 0.125870
H12   H     H_    0.685500 0.613396 0.953272 0.175958
C65   C     C_R   0.723202 0.991677 0.062199 -0.038978
C66   C     C_R   0.250408 0.937806 0.926901 0.017085
C67   C     C_R   0.246327 0.437774 0.073626 0.021163
C68   C     C_R   0.773942 0.492576 0.937875 -0.014778
C69   C     C_R   0.527902 0.053194 0.474587 0.196361
C70   C     C_R   0.530232 0.061758 0.548116 0.226264
C71   C     C_R   0.027940 0.553200 0.474616 0.196120
C72   C     C_R   0.030274 0.561756 0.548147 0.226346
C73   C     C_R   0.507878 0.169243 0.580776 -0.027261
C74   C     C_R   0.517722 0.159903 0.432137 -0.038873
C75   C     C_R   0.007924 0.669239 0.580810 -0.026961
C76   C     C_R   0.017769 0.659914 0.432167 -0.038864
C77   C     C_R   0.501697 0.277734 0.540431 0.128962
C78   C     C_R   0.506120 0.272871 0.465889 0.142045
C79   C     C_R   0.001776 0.777739 0.540476 0.128261
C80   C     C_R   0.006201 0.772888 0.465933 0.142234
C81   C     C_R   0.784199 0.836295 0.452398 0.225507
C82   C     C_R   0.213708 0.052846 0.518454 0.159807
C83   C     C_R   0.284062 0.336320 0.452435 0.224678
C84   C     C_R   0.713725 0.552875 0.518445 0.159725
C85   C     C_R   0.790397 0.819940 0.525979 -0.096057
C86   C     C_R   0.211367 0.024676 0.446834 -0.066395
C87   C     C_R   0.290324 0.319983 0.526000 -0.096641
C88   C     C_R   0.711388 0.524705 0.446823 -0.066057
H13   H     H_    0.818702 0.741610 0.546964 0.098630
H14   H     H_    0.170955 0.068297 0.414268 0.225260
H15   H     H_    0.318585 0.241588 0.546960 0.098614
H16   H     H_    0.670987 0.568345 0.414249 0.226503
C89   C     C_R   0.759433 0.902628 0.573390 0.071544
C90   C     C_R   0.254430 0.933341 0.418619 0.018536
C91   C     C_R   0.259406 0.402704 0.573416 0.071394
C92   C     C_R   0.754430 0.433329 0.418620 0.017518
C93   C     C_R   0.728090 0.009669 0.548730 0.260708
C94   C     C_R   0.309150 0.882389 0.460672 0.238313
C95   C     C_R   0.228092 0.509784 0.548764 0.260195
C96   C     C_R   0.809129 0.382335 0.460685 0.238806
C97   C     C_R   0.721102 0.026818 0.475861 -0.080317
C98   C     C_R   0.315430 0.916749 0.531434 -0.078404
C99   C     C_R   0.221122 0.526967 0.475890 -0.080129
C100  C     C_R   0.815410 0.416699 0.531445 -0.077531
H17   H     H_    0.696286 0.109573 0.456121 0.113174
H18   H     H_    0.357518 0.876185 0.563135 0.215317
H19   H     H_    0.196352 0.609757 0.456147 0.113446
H20   H     H_    0.857483 0.376104 0.563153 0.215334
C101  C     C_R   0.747825 0.940244 0.428078 0.034751
C102  C     C_R   0.265929 0.996185 0.562175 -0.048791
C103  C     C_R   0.247781 0.440333 0.428108 0.036568
C104  C     C_R   0.765928 0.496181 0.562175 -0.049611
N1    N     N_R   0.813914 0.747412 0.404578 0.090228
O53   O     O_R   0.794879 0.742937 0.337813 -0.263634
O54   O     O_R   0.857018 0.664291 0.428854 -0.372614
N2    N     N_R   0.161296 0.136541 0.544518 0.097785
O55   O     O_R   0.147535 0.234023 0.507624 -0.272212
O56   O     O_R   0.111974 0.096986 0.586110 -0.150195
N3    N     N_R   0.313543 0.247290 0.404597 0.090167
O57   O     O_R   0.293370 0.241488 0.338252 -0.260671
O58   O     O_R   0.357107 0.164730 0.428668 -0.370864
N4    N     N_R   0.661321 0.636588 0.544502 0.097611
O59   O     O_R   0.647575 0.734073 0.507606 -0.271805
O60   O     O_R   0.611990 0.597047 0.586090 -0.150715
Cl1   Cl    Cl    0.701398 0.125774 0.607161 -0.494031
Cl2   Cl    Cl    0.368602 0.770430 0.430163 -0.386837
Cl3   Cl    Cl    0.201394 0.625861 0.607213 -0.490359
Cl4   Cl    Cl    0.868560 0.270331 0.430193 -0.388854
Cl5   Cl    Cl    0.574830 0.369369 0.849534 -0.391072
Cl6   Cl    Cl    0.437369 0.401783 0.155393 -0.398007
Cl7   Cl    Cl    0.060246 0.906425 0.846197 -0.403214
Cl8   Cl    Cl    0.918089 0.856963 0.149553 -0.423277
Cl9   Cl    Cl    0.012396 0.138460 0.928305 -0.361724
Cl10  Cl    Cl    0.932985 0.114592 0.077414 -0.423265
Cl11  Cl    Cl    0.534296 0.622517 0.912931 -0.377654
Cl12  Cl    Cl    0.453746 0.636211 0.064156 -0.371546
N5    N     N_R   0.610024 0.862393 0.055254 0.092211
O61   O     O_R   0.598924 0.831866 0.121030 -0.182970
O62   O     O_R   0.561228 0.833899 0.009366 -0.282273
N6    N     N_R   0.340478 0.775128 0.921053 0.093264
O63   O     O_R   0.317085 0.717700 0.865336 -0.233512
O64   O     O_R   0.407171 0.769530 0.936687 -0.250359
N7    N     N_R   0.307280 0.239981 0.098709 0.110685
O65   O     O_R   0.337434 0.142856 0.073886 -0.391001
O66   O     O_R   0.294259 0.244167 0.166685 -0.230466
N8    N     N_R   0.888356 0.369264 0.943339 0.094070
O67   O     O_R   0.885022 0.300823 0.887330 -0.180825
O68   O     O_R   0.943923 0.357801 0.983837 -0.306655
N9    N     N_R   0.769719 0.148280 0.895630 0.123029
O69   O     O_R   0.793501 0.135213 0.831207 -0.210024
O70   O     O_R   0.731133 0.243374 0.909011 -0.306397
N10   N     N_R   0.153324 0.082557 0.075625 0.124534
O71   O     O_R   0.093035 0.040217 0.096183 -0.266656
O72   O     O_R   0.156830 0.198660 0.064593 -0.308166
N11   N     N_R   0.187791 0.588396 0.903083 0.096081
O73   O     O_R   0.169149 0.695422 0.925400 -0.341671
O74   O     O_R   0.172454 0.558837 0.837668 -0.263253
N12   N     N_R   0.674040 0.609460 0.093141 0.106434
O75   O     O_R   0.699468 0.659818 0.150391 -0.245932
O76   O     O_R   0.606314 0.599694 0.085598 -0.229209
Cl13  Cl    Cl    0.535370 0.903483 0.440055 -0.327349
Cl14  Cl    Cl    0.559758 0.934193 0.599276 -0.364065
Cl15  Cl    Cl    0.035388 0.403493 0.440080 -0.330266
Cl16  Cl    Cl    0.059792 0.434192 0.599315 -0.356811
N13   N     N_R   0.489631 0.392382 0.574792 0.133856
O77   O     O_R   0.526894 0.421873 0.630551 -0.201741
O78   O     O_R   0.439826 0.465464 0.552412 -0.229806
N14   N     N_R   0.497360 0.382568 0.424956 0.130673
O79   O     O_R   0.447535 0.391384 0.377031 -0.214911
O80   O     O_R   0.537427 0.475522 0.437373 -0.228617
N15   N     N_R   0.989738 0.892384 0.574852 0.134205
O81   O     O_R   0.026973 0.921793 0.630645 -0.199987
O82   O     O_R   0.939942 0.965499 0.552485 -0.228620
N16   N     N_R   0.997489 0.882610 0.425017 0.129969
O83   O     O_R   0.947648 0.891527 0.377116 -0.216961
O84   O     O_R   0.037567 0.975534 0.437478 -0.230475

loop_
_geom_bond_atom_site_label_1
_geom_bond_atom_site_label_2
_geom_bond_distance
_ccdc_geom_bond_type
C14   C91   1.432983 S    
C18   O42   1.278094 A    
C21   C101  1.431622 S    
Cr11  O51   1.993449 S    
O4    C12   1.313243 A    
C61   H9    1.078869 S    
C33   C34   1.374236 A    
O39   C19   1.291423 A    
O20   Cr12  2.060344 S    
O5    Cr1   1.949000 S    
H4    C36   1.083477 S    
O29   C13   1.269991 A    
C96   Cl4   1.763862 S    
O15   C7    1.287808 A    
C43   C44   1.407368 A    
C72   C75   1.400207 A    
C45   N5    1.453231 S    
C40   Cl8   1.769774 S    
O29   Cr1   1.952598 S    
N10   O72   1.298114 A    
C29   C30   1.417735 A    
C97   C101  1.405805 A    
O27   Cr3   2.065296 S    
C38   C44   1.404217 A    
C19   C76   1.470405 S    
C7    C28   1.474790 S    
C63   H11   1.084917 S    
C96   C100  1.386158 A    
O5    C1    1.274190 A    
C5    O17   1.281453 A    
C78   N14   1.437439 S    
C84   C88   1.380369 A    
H1    C33   1.083026 S    
C81   C101  1.404986 A    
N6    O64   1.295361 A    
C59   C63   1.393670 A    
O26   Cr2   2.077447 S    
C52   C56   1.386444 A    
C64   C68   1.399049 A    
C27   C31   1.413588 A    
C60   C64   1.386004 A    
O47   C23   1.269112 A    
C99   C103  1.405797 A    
C5    C26   1.470748 S    
C26   C30   1.417252 A    
N16   O84   1.300953 A    
C56   C60   1.394322 A    
C70   Cl14  1.782926 S    
C94   Cl2   1.763866 S    
O23   Cr11  1.947518 S    
N14   O79   1.301149 A    
C93   Cl1   1.761970 S    
N13   O77   1.301223 A    
O30   C14   1.278645 A    
C81   C85   1.394766 A    
C83   C103  1.404740 A    
O32   Cr4   1.945390 S    
C73   C77   1.416120 A    
H2    C34   1.078483 S    
O38   Cr6   1.951225 S    
C1    O9    1.265168 A    
C100  C104  1.405972 A    
C71   C72   1.382964 A    
C86   H14   1.083810 S    
C79   N15   1.438708 S    
C3    O11   1.253151 A    
O44   Cr12  2.068727 S    
C77   C78   1.402202 A    
C4    O12   1.272896 A    
C26   C33   1.391896 A    
N14   O80   1.300958 A    
C69   Cl13  1.780717 S    
C37   Cl5   1.772730 S    
O6    Cr2   1.958968 S    
N4    O59   1.299246 A    
C7    O19   1.271621 A    
O7    Cr3   1.949000 S    
C87   C91   1.403961 A    
C48   C52   1.398893 A    
Cr4   O52   1.971535 S    
C39   Cl7   1.773685 S    
C69   C74   1.428596 A    
O2    Cr2   2.066546 S    
C18   C73   1.463722 S    
C64   H12   1.074285 S    
C29   C37   1.410366 A    
O2    C10   1.251527 A    
C63   C67   1.404626 A    
C37   C43   1.399600 A    
C58   N10   1.441692 S    
O21   C9    1.287282 A    
C48   C68   1.436680 A    
C94   C98   1.386179 A    
O17   Cr9   2.053006 S    
C39   C41   1.398250 A    
C47   N7    1.446113 S    
C58   C62   1.366407 A    
N12   O76   1.294649 A    
C41   Cl9   1.758473 S    
C82   C102  1.419229 A    
Cr7   O51   1.978543 S    
N10   O71   1.297391 A    
C10   C66   1.442092 S    
C14   O34   1.259311 A    
C69   C70   1.382922 A    
C43   Cl11  1.760285 S    
C85   C89   1.404026 A    
N15   O82   1.301491 A    
O31   Cr3   1.952598 S    
O24   Cr12  1.949804 S    
O11   Cr7   2.074087 S    
C32   C40   1.415282 A    
C1    C56   1.466495 S    
O30   Cr2   1.945390 S    
O22   C10   1.274419 A    
O26   C22   1.287875 A    
O1    C9    1.326851 A    
O48   Cr12  1.942789 S    
C99   H19   1.085287 S    
C76   C80   1.415967 A    
C88   H16   1.083822 S    
C3    C54   1.444545 S    
N6    O63   1.301026 A    
C2    O10   1.265690 A    
C8    C27   1.471301 S    
N13   O78   1.301487 A    
N7    O65   1.299109 A    
C54   C58   1.416681 A    
O16   Cr8   1.932758 S    
C15   O35   1.266044 A    
C4    C53   1.466152 S    
C9    C65   1.485371 S    
N16   O83   1.301130 A    
N5    O61   1.296192 A    
C91   C95   1.392488 A    
O13   C5    1.279847 A    
O28   Cr4   2.077447 S    
O43   Cr11  2.066882 S    
O48   C24   1.306953 A    
O12   Cr8   2.072429 S    
C20   C75   1.463688 S    
N2    O56   1.298006 A    
O22   Cr10  1.949804 S    
O37   Cr5   1.953457 S    
N5    O62   1.299527 A    
C50   H6    1.081552 S    
C38   Cl6   1.771936 S    
C82   N2    1.439227 S    
C62   C66   1.403623 A    
C70   C73   1.400235 A    
O39   Cr7   1.953457 S    
O25   C21   1.261649 A    
C25   C29   1.417345 A    
O7    C3    1.275618 A    
C31   C32   1.415220 A    
C86   C90   1.398734 A    
O3    C11   1.262920 A    
C87   H15   1.083720 S    
O8    C4    1.279164 A    
C17   C74   1.470259 S    
O13   Cr5   1.945150 S    
C13   O33   1.266038 A    
C83   N3    1.444279 S    
N11   O74   1.302084 A    
C46   C50   1.389377 A    
O47   Cr11  1.933347 S    
C42   Cl10  1.761463 S    
O15   Cr7   1.945150 S    
O35   Cr7   2.064931 S    
Cr1   O49   1.971853 S    
C40   C42   1.407258 A    
C98   H18   1.083375 S    
C6    O18   1.272490 A    
C57   C61   1.401658 A    
Cr3   O51   1.971853 S    
O14   Cr6   1.932758 S    
N11   O73   1.300722 A    
C46   N6    1.431726 S    
O21   Cr9   1.947518 S    
C47   C51   1.395354 A    
O8    Cr4   1.958968 S    
C24   C104  1.460010 S    
C6    C25   1.473059 S    
C83   C87   1.394554 A    
C88   C92   1.398741 A    
N12   O75   1.301928 A    
C84   C104  1.419246 A    
C49   H5    1.077948 S    
C2    C55   1.438145 S    
C13   C92   1.456714 S    
C44   Cl12  1.764329 S    
O34   Cr6   2.050787 S    
C15   C90   1.456745 S    
O3    Cr3   2.072248 S    
C27   C36   1.386527 A    
C77   N13   1.438689 S    
O38   C18   1.277355 A    
C45   C49   1.396916 A    
C59   N11   1.443339 S    
O45   C21   1.269093 A    
O25   Cr1   2.065296 S    
C23   C103  1.431727 S    
N8    O68   1.298279 A    
O37   C17   1.291418 A    
C71   Cl15  1.780659 S    
O28   C24   1.287878 A    
N9    O69   1.300492 A    
C72   Cl16  1.782935 S    
C19   O43   1.262531 A    
C35   C36   1.379502 A    
C48   N8    1.438165 S    
C8    O20   1.282581 A    
H3    C35   1.083302 S    
N4    O60   1.298013 A    
O40   Cr8   1.951225 S    
C25   C34   1.401863 A    
C62   H10   1.083609 S    
C45   C65   1.443715 A    
C84   N4    1.439213 S    
N15   O81   1.301235 A    
O24   C12   1.290219 A    
C17   O41   1.262470 A    
C90   C94   1.409292 A    
C51   H7    1.084884 S    
Cr2   O50   1.971535 S    
C31   C39   1.410135 A    
C95   C99   1.384057 A    
C61   C65   1.405034 A    
C75   C79   1.416047 A    
C30   C38   1.416136 A    
C20   O44   1.278070 A    
O1    Cr1   2.072248 S    
N2    O55   1.299239 A    
C85   H13   1.083719 S    
C55   C59   1.402146 A    
O14   C6    1.282810 A    
C71   C76   1.428620 A    
C12   C68   1.480127 S    
C22   C102  1.459994 S    
C95   Cl3   1.761995 S    
C46   C66   1.397999 A    
Cr8   O52   1.992751 S    
O32   C16   1.278633 A    
Cr10  O50   1.979776 S    
C41   C42   1.405574 A    
O46   Cr10  1.942789 S    
Cr6   O50   1.992751 S    
O46   C22   1.306947 A    
Cr12  O52   1.979776 S    
O31   C15   1.270004 A    
C97   H17   1.085304 S    
C28   C32   1.419746 A    
O23   C11   1.270908 A    
O19   Cr11  2.053006 S    
N9    O70   1.299448 A    
C52   H8    1.080634 S    
O33   Cr5   2.064931 S    
C80   N16   1.437409 S    
N7    O66   1.301039 A    
O10   Cr6   2.072429 S    
C47   C67   1.404234 A    
O42   Cr10  2.068727 S    
N1    O53   1.301672 A    
N8    O67   1.297469 A    
C81   N1    1.444690 S    
O4    Cr4   2.066546 S    
O6    C2    1.272288 A    
C82   C86   1.380338 A    
Cr5   O49   1.978543 S    
N3    O57   1.300872 A    
C98   C102  1.405987 A    
C92   C96   1.409309 A    
C16   O36   1.259289 A    
O40   C20   1.277373 A    
O18   Cr10  2.060344 S    
C53   C57   1.398137 A    
C74   C78   1.415894 A    
C28   C35   1.410703 A    
C57   N9    1.434803 S    
C79   C80   1.402218 A    
C89   C93   1.392399 A    
O45   Cr9   1.933347 S    
O41   Cr9   2.066882 S    
C16   C89   1.433038 S    
C50   C54   1.407797 A    
N1    O54   1.300827 A    
C93   C97   1.383942 A    
O36   Cr8   2.050787 S    
C49   C53   1.387158 A    
C60   N12   1.421141 S    
O9    Cr5   2.074087 S    
O16   C8    1.274939 A    
Cr9   O49   1.993449 S    
C100  H20   1.083377 S    
C11   C67   1.438019 S    
N3    O58   1.300651 A    
O27   C23   1.261699 A    
C51   C55   1.404345 A    
