data_mof_unit_29604.cif
_audit_creation_date              2012-12-11T16:51:06-0500
_audit_creation_method            fapswitch 2.2
_symmetry_space_group_name_H-M    P1
_symmetry_Int_Tables_number       1
_space_group_crystal_system       triclinic
_cell_length_a                    6.934405
_cell_length_b                    28.812116
_cell_length_c                    32.127666
_cell_angle_alpha                 100.823688
_cell_angle_beta                  89.230828
_cell_angle_gamma                 90.527088
_cell_volume                      6304.03440511

loop_
_atom_site_label
_atom_site_type_symbol
_atom_type_description
_atom_site_fract_x
_atom_site_fract_y
_atom_site_fract_z
_atom_type_partial_charge
O1    O     O_R   0.494350 0.453170 0.452520 -0.538093
O2    O     O_R   0.820980 0.455850 0.538220 -0.541047
O3    O     O_R   0.994300 0.546830 0.547480 -0.538356
C1    C     C_R   0.651207 0.445764 0.551663 0.724970
O4    O     O_R   0.823860 0.447590 0.452270 -0.543835
O5    O     O_R   0.997200 0.538510 0.460920 -0.536636
C2    C     C_R   0.655542 0.434188 0.437150 0.702158
O6    O     O_R   0.491440 0.461490 0.539080 -0.535549
O7    O     O_3   0.661790 0.529840 0.502940 -0.367510
V1    V     V_3+5 0.935470 0.494460 0.499450 1.404149
O8    O     O_R   0.327090 0.544150 0.461780 -0.540288
C3    C     C_R   0.159669 0.554353 0.448400 0.715826
O9    O     O_R   0.324210 0.552410 0.547730 -0.542757
C4    C     C_R   0.154932 0.565410 0.563326 0.713531
V2    V     V_3+5 0.435840 0.505540 0.500550 1.407714
O10   O     O_3   0.159650 0.470160 0.497060 -0.369537
C5    C     C_R   0.226635 0.877247 0.883114 -0.155558
H1    H     H_    0.359048 0.890409 0.898703 0.119877
C6    C     C_R   0.238025 0.841360 0.847128 -0.139572
H2    H     H_    0.378727 0.828282 0.835788 0.101658
C7    C     C_R   0.070471 0.823300 0.825496 0.093494
C8    C     C_R   0.890947 0.841890 0.841003 -0.136867
H3    H     H_    0.758949 0.828444 0.825390 0.102150
C9    C     C_R   0.879344 0.877613 0.877173 -0.154887
H4    H     H_    0.738657 0.891060 0.888129 0.117405
C10   C     C_R   0.047159 0.895925 0.898659 -0.049635
C11   C     C_R   0.968067 0.787136 0.751346 -0.153952
H5    H     H_    0.867999 0.815840 0.751710 0.113161
C12   C     C_R   0.983860 0.752294 0.714644 -0.140093
H6    H     H_    0.895117 0.754627 0.687701 0.117719
C13   C     C_R   0.115195 0.715110 0.712458 0.081954
C14   C     C_R   0.227078 0.712731 0.748110 -0.159356
H7    H     H_    0.326156 0.683758 0.747508 0.125468
C15   C     C_R   0.212833 0.747776 0.784691 -0.146054
H8    H     H_    0.301384 0.744990 0.811604 0.118627
C16   C     C_R   0.083518 0.785550 0.786757 0.079987
C17   C     C_R   0.302252 0.669909 0.648927 0.320435
C18   C     C_R   0.308600 0.632589 0.613649 -0.173786
H9    H     H_    0.442171 0.626021 0.595722 0.134813
C19   C     C_R   0.145201 0.604458 0.600986 -0.115875
C20   C     C_R   0.973275 0.614097 0.624544 -0.150330
H10   H     H_    0.844340 0.593289 0.615656 0.136709
C21   C     C_R   0.966354 0.650112 0.660441 -0.158209
H11   H     H_    0.832645 0.656057 0.678412 0.153910
C22   C     C_R   0.129997 0.677911 0.673548 0.005319
C23   C     C_R   0.183662 0.658458 0.283540 0.548011
N1    N     N_R   0.144909 0.676787 0.325395 -0.545489
C24   C     C_R   0.099274 0.723653 0.337961 0.613703
C25   C     C_R   0.093593 0.753966 0.308210 -0.072435
C26   C     C_R   0.132500 0.735643 0.265252 -0.014030
C27   C     C_R   0.177636 0.687403 0.252708 -0.017379
C28   C     C_R   0.046558 0.801879 0.320442 -0.220189
C29   C     C_R   0.036659 0.831715 0.290604 0.284975
C30   C     C_R   0.080247 0.813848 0.247220 -0.090264
C31   C     C_R   0.124974 0.765411 0.234718 -0.073499
C32   C     C_R   0.160648 0.746400 0.191598 -0.017091
C33   C     C_R   0.206419 0.698263 0.179542 -0.136740
C34   C     C_R   0.215438 0.669200 0.209699 -0.146132
C35   C     C_R   0.079216 0.842451 0.215705 0.634979
N2    N     N_R   0.102677 0.822727 0.173594 -0.561481
C36   C     C_R   0.145399 0.775702 0.161323 0.530883
O11   O     O_2   0.229903 0.612440 0.271767 -0.525796
O12   O     O_2   0.057769 0.740888 0.379072 -0.527388
H12   H     H_    0.012421 0.816335 0.353304 0.168350
O13   O     O_2   0.055643 0.889569 0.226840 -0.477064
O14   O     O_2   0.169829 0.757084 0.119836 -0.523910
H13   H     H_    0.234875 0.682772 0.146663 0.170900
H14   H     H_    0.250847 0.632304 0.199104 0.170769
C37   C     C_R   0.230998 0.858994 0.115210 -0.160022
H15   H     H_    0.366151 0.841679 0.117240 0.148346
C38   C     C_R   0.215338 0.889081 0.086183 -0.198659
H16   H     H_    0.340420 0.894103 0.066913 0.140255
C39   C     C_R   0.041728 0.912265 0.081929 -0.080095
C40   C     C_R   0.882204 0.903790 0.107178 -0.244584
H17   H     H_    0.746796 0.921265 0.104181 0.133576
C41   C     C_R   0.896747 0.873466 0.136964 0.336435
C42   C     C_R   0.075778 0.851582 0.141648 0.361421
C43   C     C_R   0.288143 0.653663 0.389371 0.333770
C44   C     C_R   0.289512 0.623520 0.419213 -0.270952
H18   H     H_    0.395349 0.629328 0.444203 0.129201
C45   C     C_R   0.154757 0.586431 0.417242 -0.080118
C46   C     C_R   0.018251 0.579633 0.384752 -0.204829
H19   H     H_    0.913491 0.551163 0.382350 0.136552
C47   C     C_R   0.018710 0.608713 0.354371 -0.174525
H20   H     H_    0.913569 0.602403 0.329286 0.146980
C48   C     C_R   0.151385 0.646225 0.356470 0.349712
C49   C     C_R   0.462319 0.214579 0.829651 0.591649
N3    N     N_R   0.577007 0.175380 0.824370 -0.567563
C50   C     C_R   0.697599 0.164130 0.789864 0.578176
C51   C     C_R   0.707059 0.192823 0.758552 -0.061842
C52   C     C_R   0.587496 0.233178 0.763508 -0.125410
C53   C     C_R   0.460340 0.243821 0.798834 -0.050194
C54   C     C_R   0.833574 0.183015 0.722803 0.281270
C55   C     C_R   0.840417 0.213318 0.693401 -0.213435
C56   C     C_R   0.722564 0.253186 0.698081 -0.057886
C57   C     C_R   0.596556 0.263315 0.733244 -0.032964
C58   C     C_R   0.480835 0.303893 0.738277 -0.071215
C59   C     C_R   0.352511 0.313598 0.772760 -0.194273
C60   C     C_R   0.337995 0.283778 0.802472 0.283885
C61   C     C_R   0.727541 0.283259 0.668154 0.646525
N4    N     N_R   0.615740 0.323011 0.673879 -0.547909
C62   C     C_R   0.495416 0.333936 0.708440 0.669089
O15   O     O_2   0.354204 0.225714 0.865284 -0.498423
O16   O     O_2   0.807607 0.125180 0.786030 -0.507297
H21   H     H_    0.938506 0.205111 0.666528 0.168978
O17   O     O_2   0.842982 0.272786 0.633573 -0.519162
O18   O     O_2   0.392002 0.374092 0.714263 -0.470774
H22   H     H_    0.258956 0.344057 0.776418 0.184946
C63   C     C_R   0.791404 0.381256 0.639308 0.433337
C64   C     C_R   0.799575 0.410477 0.609081 -0.241867
H23   H     H_    0.928936 0.431211 0.606603 0.163055
C65   C     C_R   0.640920 0.414045 0.583071 -0.123566
C66   C     C_R   0.473623 0.387463 0.587728 -0.190758
H24   H     H_    0.349141 0.389449 0.568146 0.146677
C67   C     C_R   0.466763 0.357359 0.617273 -0.110934
H25   H     H_    0.337864 0.336592 0.619973 0.182889
C68   C     C_R   0.625286 0.353911 0.643261 0.286443
C69   C     C_R   0.393775 0.123682 0.864334 -0.089186
H26   H     H_    0.264603 0.129465 0.847473 0.138967
C70   C     C_R   0.384284 0.094627 0.894625 -0.200402
H27   H     H_    0.247010 0.078636 0.900452 0.130293
C71   C     C_R   0.550279 0.085759 0.916575 -0.053304
C72   C     C_R   0.725822 0.107017 0.907635 -0.203977
H28   H     H_    0.856177 0.101087 0.924023 0.132472
C73   C     C_R   0.734536 0.136656 0.877698 -0.085332
H29   H     H_    0.870532 0.153129 0.871698 0.135860
C74   C     C_R   0.568680 0.145099 0.855628 0.364353
C75   C     C_R   0.704974 0.132587 0.108657 -0.160894
H30   H     H_    0.822014 0.128564 0.085612 0.157868
C76   C     C_R   0.717387 0.168703 0.144352 -0.112234
H31   H     H_    0.842844 0.191668 0.147503 0.120850
C77   C     C_R   0.568731 0.175555 0.175071 0.022306
C78   C     C_R   0.407392 0.145191 0.169015 -0.167199
H32   H     H_    0.293134 0.148651 0.192675 0.147302
C79   C     C_R   0.392963 0.109167 0.133182 0.379207
C80   C     C_R   0.542745 0.102557 0.102263 -0.139148
C81   C     C_R   0.415805 0.237676 0.231491 -0.147295
H33   H     H_    0.275993 0.229497 0.217268 0.104581
C82   C     C_R   0.427468 0.272823 0.267941 -0.139061
H34   H     H_    0.295612 0.289558 0.281249 0.105714
C83   C     C_R   0.606055 0.285633 0.287239 0.101492
C84   C     C_R   0.772615 0.262150 0.268986 -0.151820
H35   H     H_    0.913197 0.271435 0.282429 0.105249
C85   C     C_R   0.760671 0.226605 0.232816 -0.132566
H36   H     H_    0.891663 0.208734 0.220372 0.112043
C86   C     C_R   0.582059 0.213820 0.213494 0.107800
C87   C     C_R   0.752842 0.319895 0.357900 -0.148881
H37   H     H_    0.844982 0.289270 0.354906 0.132054
C88   C     C_R   0.768857 0.355339 0.394226 0.278815
C89   C     C_R   0.646277 0.395308 0.399571 -0.109976
C90   C     C_R   0.509409 0.397934 0.368247 -0.201207
H38   H     H_    0.413917 0.427986 0.371441 0.131768
C91   C     C_R   0.496753 0.362694 0.331951 -0.134247
H39   H     H_    0.393187 0.366905 0.308053 0.121942
C92   C     C_R   0.618638 0.323222 0.326161 0.030020
O19   O     O_R   0.699170 0.038480 0.960880 -0.543507
O20   O     O_R   0.366800 0.052460 0.047690 -0.508685
O21   O     O_R   0.193520 0.961530 0.039110 -0.529150
C93   C     C_R   0.534609 0.064645 0.063821 0.762121
O22   O     O_R   0.369630 0.044100 0.961740 -0.545536
O23   O     O_R   0.196370 0.953120 0.952550 -0.545766
C94   C     C_R   0.539428 0.054146 0.948189 0.689039
O24   O     O_R   0.696320 0.046890 0.047450 -0.532447
O25   O     O_3   0.528890 0.970170 0.997080 -0.378484
V3    V     V_3+5 0.255190 0.005530 0.000540 1.473868
O26   O     O_R   0.866460 0.947530 0.952310 -0.546138
C95   C     C_R   0.035865 0.934581 0.936652 0.671880
O27   O     O_R   0.863630 0.955880 0.038270 -0.543295
C96   C     C_R   0.031507 0.945461 0.051575 0.771101
V4    V     V_3+5 0.754830 0.994440 0.999470 1.436882
O28   O     O_3   0.031000 0.029830 0.002920 -0.359338
N5    N     N_2   0.973980 0.879029 0.304571 -0.468132
H40   H     H_    0.022484 0.894125 0.334304 0.250605
C97   C     C_3   0.768387 0.885066 0.300711 -0.426629
H41   H     H_    0.687938 0.865390 0.322120 0.163485
H42   H     H_    0.722025 0.872188 0.267534 0.223452
H43   H     H_    0.732494 0.923142 0.309614 0.205790
N6    N     N_2   0.733766 0.867252 0.163139 -0.503877
H44   H     H_    0.624208 0.891102 0.162553 0.264990
C98   C     C_3   0.663182 0.819269 0.160717 -0.526228
H45   H     H_    0.521632 0.819920 0.177335 0.189575
H46   H     H_    0.759683 0.798402 0.177007 0.206122
H47   H     H_    0.646865 0.801318 0.127172 0.205238
N7    N     N_2   0.421492 0.692016 0.393142 -0.494139
H48   H     H_    0.463715 0.704872 0.423848 0.262741
C99   C     C_3   0.584104 0.683990 0.364166 -0.510863
H49   H     H_    0.672834 0.716688 0.367427 0.225793
H50   H     H_    0.673897 0.655108 0.371725 0.191056
H51   H     H_    0.535623 0.674656 0.330848 0.206906
N8    N     N_2   0.956367 0.142953 0.715945 -0.471029
H52   H     H_    0.093801 0.150220 0.706111 0.248087
C100  C     C_3   0.873772 0.101775 0.689177 -0.454406
H53   H     H_    0.853825 0.108502 0.656555 0.167153
H54   H     H_    0.732382 0.092496 0.702241 0.215951
H55   H     H_    0.972125 0.071303 0.687693 0.196182
N9    N     N_2   0.196083 0.294002 0.835262 -0.462613
H56   H     H_    0.177980 0.329665 0.846593 0.259149
C101  C     C_3   0.013922 0.270013 0.824881 -0.452082
H57   H     H_    0.946735 0.282669 0.797876 0.179821
H58   H     H_    0.914596 0.277426 0.852688 0.202946
H59   H     H_    0.035186 0.231188 0.816453 0.208561
Cl1   Cl    Cl    0.988278 0.380989 0.673085 -0.595095
Cl2   Cl    Cl    0.188653 0.071802 0.130055 -0.655625
N10   N     N_2   0.905913 0.348900 0.425154 -0.531573
H60   H     H_    0.003850 0.376098 0.433077 0.273072
C102  C     C_3   0.826282 0.331458 0.461152 -0.501899
H61   H     H_    0.945059 0.324506 0.481944 0.200074
H62   H     H_    0.746185 0.297866 0.450344 0.207109
H63   H     H_    0.727837 0.357914 0.479824 0.170571
N11   N     N_2   0.468364 0.699518 0.658087 -0.541042
H64   H     H_    0.478019 0.718437 0.688500 0.260163
C103  C     C_3   0.513888 0.728126 0.626692 -0.552954
H65   H     H_    0.646265 0.749254 0.635913 0.192581
H66   H     H_    0.393436 0.752693 0.624452 0.200384
H67   H     H_    0.541133 0.705575 0.595186 0.203014

loop_
_geom_bond_atom_site_label_1
_geom_bond_atom_site_label_2
_ccdc_geom_bond_type
V3    O28   S    
C31   C32   A    
C55   H21   S    
C19   C20   A    
C54   C55   A    
C17   C22   A    
C11   C12   A    
C20   H10   S    
C37   C42   A    
C56   C57   A    
C1    O6    A    
C75   H30   S    
C69   C70   A    
N6    H44   S    
C51   C52   A    
C63   C68   A    
C72   H28   S    
C7    C16   S    
C54   N8    S    
C70   H27   S    
C81   C82   A    
N4    C62   A    
C40   C41   A    
C23   O11   S    
C5    C10   A    
C8    C9    A    
O25   V3    S    
C6    C7    A    
C17   C18   A    
C47   C48   A    
N3    C74   S    
C41   N6    S    
C75   C80   A    
O5    C3    A    
C18   H9    S    
C102  H62   S    
C72   C73   A    
O25   V4    S    
V2    O10   S    
C59   C60   A    
C59   H22   S    
N7    H48   S    
C15   H8    S    
C39   C40   A    
C37   C38   A    
O24   V4    S    
C69   H26   S    
C29   N5    S    
C5    C6    A    
C52   C57   A    
C97   H41   S    
C80   C93   S    
O8    V2    S    
C36   O14   S    
V4    O28   S    
C87   H37   S    
C98   H46   S    
C77   C78   A    
C67   C68   A    
N1    C24   A    
C90   H38   S    
C101  H57   S    
O1    V2    S    
C91   C92   A    
C87   C92   A    
O7    V1    S    
C43   N7    S    
C58   C62   A    
C98   H47   S    
N3    C50   A    
C43   C48   A    
O27   V4    S    
C1    C65   S    
O19   C94   A    
C35   N2    A    
O20   C93   A    
O1    C2    A    
O9    C4    A    
C20   C21   A    
O26   C95   A    
C55   C56   A    
C83   C84   A    
C33   H13   S    
C65   C66   A    
C70   C71   A    
C58   C59   A    
C97   H42   S    
C30   C35   A    
C8    H3    S    
N2    C42   S    
C10   C95   S    
C71   C72   A    
C40   H17   S    
C100  H55   S    
C81   C86   A    
C79   C80   A    
C47   H20   S    
C9    H4    S    
C56   C61   A    
C85   C86   A    
C28   H12   S    
O20   V3    S    
C52   C53   A    
C38   C39   A    
C102  H61   S    
C83   C92   S    
C24   O12   S    
C79   Cl2   S    
C26   C27   A    
C29   C30   A    
C23   C27   A    
C46   H19   S    
C45   C46   A    
C64   H23   S    
N2    C36   A    
C14   C15   A    
C76   C77   A    
C21   H11   S    
N1    C48   S    
N8    H52   S    
C12   H6    S    
C2    C89   S    
C13   C14   A    
C97   H43   S    
C103  H67   S    
C82   H34   S    
C25   C28   A    
C57   C58   A    
C101  H59   S    
C5    H1    S    
C62   O18   S    
C32   C36   A    
C27   C34   A    
C23   N1    A    
O22   V3    S    
C103  H65   S    
C73   C74   A    
C21   C22   A    
C88   N10   S    
O23   C95   A    
O3    C4    A    
C49   O15   S    
N9    C101  S    
O27   C96   A    
N10   C102  S    
N11   H64   S    
O6    V2    S    
C46   C47   A    
O9    V2    S    
C50   O16   S    
O23   V3    S    
C78   H32   S    
C93   O24   A    
C69   C74   A    
C99   H50   S    
O2    V1    S    
C84   C85   A    
C49   C53   A    
N5    H40   S    
C51   C54   A    
O4    C2    A    
C66   H24   S    
C34   H14   S    
C32   C33   A    
C50   C51   A    
C30   C31   A    
C63   Cl1   S    
N8    C100  S    
C87   C88   A    
C43   C44   A    
C61   O17   S    
O22   C94   A    
C9    C10   A    
N9    H56   S    
C75   C76   A    
O5    V1    S    
N6    C98   S    
O8    C3    A    
C44   C45   A    
O21   C96   A    
O26   V4    S    
C11   C16   A    
C81   H33   S    
N11   C103  S    
C26   C31   A    
C71   C94   S    
C85   H36   S    
C77   C86   S    
C100  H53   S    
C6    H2    S    
C76   H31   S    
C99   H49   S    
N4    C68   S    
O4    V1    S    
C12   C13   A    
O3    V1    S    
V1    O10   S    
C88   C89   A    
C14   H7    S    
C18   C19   A    
C41   C42   A    
C82   C83   A    
C102  H63   S    
C33   C34   A    
C73   H29   S    
C99   H51   S    
C24   C25   A    
O2    C1    A    
C60   N9    S    
O19   V4    S    
C61   N4    A    
N5    C97   S    
N7    C99   S    
C3    C45   S    
C15   C16   A    
C90   C91   A    
O7    V2    S    
C37   H15   S    
C64   C65   A    
C17   N11   S    
C103  H66   S    
C4    C19   S    
C44   H18   S    
C38   H16   S    
N10   H60   S    
C53   C60   A    
C49   N3    A    
C25   C26   A    
C13   C22   S    
C63   C64   A    
C11   H5    S    
C78   C79   A    
C84   H35   S    
C101  H58   S    
C91   H39   S    
C7    C8    A    
C39   C96   S    
C35   O13   S    
C98   H45   S    
C67   H25   S    
O21   V3    S    
C28   C29   A    
C89   C90   A    
C66   C67   A    
C100  H54   S    
