data_mof_unit_7526.cif
_audit_creation_date              2013-03-05T15:55:43-0500
_audit_creation_method            fapswitch 2.2
_symmetry_space_group_name_H-M    P1
_symmetry_Int_Tables_number       1
_space_group_crystal_system       triclinic
_cell_length_a                    6.936258
_cell_length_b                    17.643156
_cell_length_c                    19.473256
_cell_angle_alpha                 108.531502
_cell_angle_beta                  89.647791
_cell_angle_gamma                 90.426154
_cell_volume                      2259.4421775

loop_
_atom_site_label
_atom_site_type_symbol
_atom_site_description
_atom_site_fract_x
_atom_site_fract_y
_atom_site_fract_z
_atom_type_partial_charge
O1    O     O_R   0.494330 0.415710 0.413720 -0.543812
O2    O     O_R   0.819360 0.430070 0.560210 -0.563151
O3    O     O_R   0.994320 0.584290 0.586280 -0.594374
C1    C     C_R   0.650890 0.416612 0.583148 0.997614
O4    O     O_R   0.823740 0.406290 0.412670 -0.563669
O5    O     O_R   0.998730 0.560340 0.437690 -0.573353
C2    C     C_R   0.653047 0.381573 0.385532 1.032627
O6    O     O_R   0.489920 0.439660 0.562310 -0.613298
O7    O     O_3   0.662330 0.550570 0.508380 -0.278431
V1    V     V_3+5 0.935370 0.490620 0.498440 1.292588
O8    O     O_R   0.328720 0.569930 0.439790 -0.578712
C3    C     C_R   0.161190 0.583230 0.416674 1.028456
O9    O     O_R   0.324340 0.593710 0.587330 -0.599635
C4    C     C_R   0.155049 0.614990 0.616678 0.934335
V2    V     V_3+5 0.435940 0.509380 0.501560 1.273822
O10   O     O_3   0.159110 0.449430 0.491620 -0.231480
C5    C     C_R   0.301288 0.733252 0.710969 -0.137907
H1    H     H_    0.433337 0.724348 0.679506 0.169372
C6    C     C_R   0.291274 0.798153 0.774994 -0.107559
H2    H     H_    0.416357 0.836701 0.791241 0.132529
C7    C     C_R   0.121209 0.814090 0.816671 -0.215244
C8    C     C_R   0.962794 0.762538 0.793539 -0.181405
H3    H     H_    0.831454 0.772423 0.825509 0.161097
C9    C     C_R   0.973553 0.695255 0.731401 0.551962
C10   C     C_R   0.142931 0.681270 0.687287 -0.300674
C11   C     C_R   0.301010 0.617865 0.309538 0.372059
C12   C     C_R   0.156039 0.628066 0.363409 -0.311224
C13   C     C_R   0.003774 0.680537 0.366085 -0.175472
C14   C     C_R   0.993182 0.723480 0.316907 0.226569
C15   C     C_R   0.139064 0.715234 0.263952 0.036363
C16   C     C_R   0.292277 0.660729 0.258495 -0.263874
C17   C     C_R   0.836796 0.774357 0.319785 -0.168326
C18   C     C_R   0.825269 0.818154 0.271644 -0.203695
C19   C     C_R   0.972007 0.813326 0.220664 0.232345
C20   C     C_R   0.129864 0.761663 0.216384 0.017867
C21   C     C_R   0.277131 0.756443 0.164601 -0.256464
C22   C     C_R   0.416855 0.695223 0.153582 0.392648
C23   C     C_R   0.427128 0.649355 0.200703 0.302551
C24   C     C_R   0.962264 0.859490 0.173998 -0.321914
C25   C     C_R   0.114609 0.860115 0.126471 -0.209405
C26   C     C_R   0.277283 0.811412 0.124309 0.474657
H4    H     H_    0.893743 0.688818 0.407582 0.158259
H5    H     H_    0.722409 0.780045 0.359246 0.135585
H6    H     H_    0.702340 0.856739 0.274943 0.128313
H7    H     H_    0.839332 0.898065 0.177069 0.148598
C27   C     C_R   0.770282 0.197354 0.881231 0.303996
C28   C     C_R   0.623151 0.139534 0.873531 -0.292564
C29   C     C_R   0.478585 0.131905 0.821953 -0.105108
C30   C     C_R   0.475795 0.180137 0.776781 -0.019037
C31   C     C_R   0.627558 0.235722 0.781677 0.031862
C32   C     C_R   0.773027 0.246770 0.835649 -0.109797
C33   C     C_R   0.327627 0.171634 0.724804 0.382173
C34   C     C_R   0.337462 0.214272 0.674916 0.264572
C35   C     C_R   0.487192 0.270491 0.679779 -0.091633
C36   C     C_R   0.633280 0.280499 0.732558 0.043644
C37   C     C_R   0.785947 0.335117 0.735940 0.040919
C38   C     C_R   0.921569 0.348706 0.791685 -0.295115
C39   C     C_R   0.915045 0.307182 0.841850 0.344757
C40   C     C_R   0.490970 0.318465 0.634006 -0.214053
C41   C     C_R   0.644923 0.370667 0.635318 -0.246622
C42   C     C_R   0.796429 0.377382 0.684996 0.512148
H8    H     H_    0.371336 0.085452 0.816029 0.149113
H9    H     H_    0.375521 0.314883 0.595981 0.194939
H10   H     H_    0.030493 0.394853 0.799370 0.181186
C43   C     C_R   0.794285 0.261866 0.291342 -0.075653
H11   H     H_    0.921549 0.268973 0.323356 0.205399
C44   C     C_R   0.788456 0.200120 0.225269 -0.084933
H12   H     H_    0.915548 0.163684 0.207499 0.128416
C45   C     C_R   0.619345 0.184201 0.183906 -0.175983
C46   C     C_R   0.455901 0.230484 0.210923 -0.211185
H13   H     H_    0.321147 0.217072 0.181536 0.173432
C47   C     C_R   0.460518 0.292112 0.277518 0.443135
C48   C     C_R   0.635231 0.311322 0.317521 -0.307820
O11   O     O_R   0.774940 0.060470 0.937800 -0.572241
O12   O     O_R   0.440880 0.093730 0.087350 -0.606503
O13   O     O_R   0.266130 0.939630 0.062280 -0.557586
C49   C     C_R   0.609662 0.116741 0.115162 0.990054
O14   O     O_R   0.445480 0.069960 0.939820 -0.572254
O15   O     O_R   0.270770 0.915690 0.913690 -0.602620
C50   C     C_R   0.614829 0.086578 0.919620 1.002500
O16   O     O_R   0.770300 0.084410 0.086380 -0.593907
O17   O     O_3   0.602600 0.949510 0.991670 -0.266983
V3    V     V_3+5 0.329470 0.009370 0.001550 1.247652
O18   O     O_R   0.940760 0.906160 0.912560 -0.610437
C51   C     C_R   0.110049 0.883174 0.884658 0.958773
O19   O     O_R   0.936150 0.929930 0.060100 -0.607246
C52   C     C_R   0.104889 0.913540 0.080642 0.984794
V4    V     V_3+5 0.828930 0.990450 0.998310 1.224187
O20   O     O_3   0.105670 0.050490 0.008320 -0.236316
O21   O     O_3   0.435468 0.820375 0.084179 -0.738396
H14   H     H_    0.552867 0.814641 0.110796 0.337371
O22   O     O_3   0.535635 0.673057 0.093412 -0.679010
H15   H     H_    0.460681 0.677126 0.051575 0.360312
N1    N     N_R   0.564171 0.585587 0.183452 0.290393
O23   O     O_R   0.747501 0.601863 0.183617 -0.304436
O24   O     O_R   0.505308 0.512734 0.151406 -0.248404
N2    N     N_R   0.916105 0.204469 0.934838 0.253456
O25   O     O_R   0.869627 0.227174 0.003194 -0.320387
O26   O     O_R   0.087976 0.176808 0.915089 -0.391719
O27   O     O_3   0.174788 0.119513 0.719175 -0.700650
H16   H     H_    0.128291 0.125191 0.768701 0.327636
N3    N     N_R   0.196796 0.198143 0.617978 0.253367
O28   O     O_R   0.252867 0.175927 0.550645 -0.376601
O29   O     O_R   0.014371 0.194086 0.632387 -0.364530
O30   O     O_3   0.949530 0.427608 0.684242 -0.772096
H17   H     H_    0.069685 0.400818 0.690944 0.314814
N4    N     N_R   0.047417 0.331847 0.901116 0.261807
O31   O     O_R   0.982487 0.369586 0.965690 -0.259146
O32   O     O_R   0.231134 0.334678 0.888155 -0.367219
N5    N     N_R   0.282113 0.328776 0.306509 0.227059
O33   O     O_R   0.218260 0.320185 0.366538 -0.427483
O34   O     O_R   0.164802 0.352610 0.265769 -0.343410
O35   O     O_3   0.817189 0.644090 0.717051 -0.752990
H18   H     H_    0.866743 0.588718 0.699981 0.344856
N6    N     N_R   0.455680 0.563816 0.307241 0.246497
O36   O     O_R   0.623801 0.591504 0.332643 -0.404130
O37   O     O_R   0.422492 0.487332 0.288237 -0.326158

loop_
_geom_bond_atom_site_label_1
_geom_bond_atom_site_label_2
_geom_bond_distance
_ccdc_geom_bond_type
C36   C37   1.414077 A    
C35   C36   1.417411 A    
C45   C49   1.483343 S    
C20   C21   1.413663 A    
C1    O6    1.301491 A    
N2    O25   1.301514 A    
C38   C39   1.395322 A    
C2    C48   1.503935 S    
C34   C35   1.413361 A    
C9    O35   1.377710 S    
C13   C14   1.399805 A    
C11   C12   1.419072 A    
C14   C15   1.415072 A    
C15   C20   1.420196 A    
C25   C52   1.491919 S    
C21   C22   1.420444 A    
C6    C7    1.406175 A    
C39   N4    1.432540 S    
C14   C17   1.402599 A    
O5    C3    1.301161 A    
C15   C16   1.419257 A    
O14   C50   1.297310 A    
N6    O36   1.299302 A    
C43   C48   1.401088 A    
C37   C38   1.401634 A    
C19   C20   1.414947 A    
C11   N6    1.431729 S    
O27   H16   0.989658 S    
N1    O24   1.301429 A    
N5    O33   1.300323 A    
O8    V2    1.995210 S    
O14   V3    2.006839 S    
O11   V4    1.998114 S    
C6    H2    1.083148 S    
C43   C44   1.397467 A    
N4    O31   1.301038 A    
C46   H13   1.083659 S    
O1    V2    2.006408 S    
C42   O30   1.381036 S    
O7    V1    2.153631 S    
C24   H7    1.084432 S    
C26   O21   1.380202 S    
C40   C41   1.399990 A    
O11   C50   1.298838 A    
O9    C4    1.307035 A    
N4    O32   1.301219 A    
C23   N1    1.433156 S    
C21   C26   1.428244 A    
C45   C46   1.400779 A    
C28   C50   1.487731 S    
O13   V3    2.004016 S    
N2    O26   1.300381 A    
C31   C32   1.428497 A    
C7    C51   1.489566 S    
C35   C40   1.410873 A    
V3    O20   1.704962 S    
C47   N5    1.428171 S    
C3    C12   1.491756 S    
C19   C24   1.402085 A    
C9    C10   1.426987 A    
C24   C25   1.402710 A    
O4    C2    1.313297 A    
O19   C52   1.303011 A    
N6    O37   1.299949 A    
C27   C32   1.428230 A    
C33   O27   1.379982 S    
C44   H12   1.083230 S    
C41   C42   1.411397 A    
C44   C45   1.402324 A    
O2    C1    1.295490 A    
C22   C23   1.405570 A    
C29   H8    1.081808 S    
C28   C29   1.398882 A    
C49   O16   1.295981 A    
C34   N3    1.439075 S    
C30   C33   1.420285 A    
C1    C41   1.487728 S    
C5    H1    1.083080 S    
N1    O23   1.301362 A    
C37   C42   1.419166 A    
C32   C39   1.423042 A    
O18   C51   1.302947 A    
N3    O29   1.300774 A    
O12   C49   1.299877 A    
O13   C52   1.297161 A    
O3    C4    1.296928 A    
C29   C30   1.405185 A    
C27   N2    1.434005 S    
C43   H11   1.067244 S    
O6    V2    1.997515 S    
O9    V2    2.006029 S    
C8    C9    1.402159 A    
O2    V1    2.006930 S    
O15   C51   1.297531 A    
C33   C34   1.406173 A    
C38   H10   1.082075 S    
O35   H18   0.990067 S    
C27   C28   1.412024 A    
C25   C26   1.415676 A    
C22   O22   1.380685 S    
O1    C2    1.291638 A    
C18   H6    1.083861 S    
O18   V4    2.006077 S    
C47   C48   1.424060 A    
O5    V1    2.004067 S    
O8    C3    1.298318 A    
O30   H17   0.990678 S    
C40   H9    1.081816 S    
C31   C36   1.421263 A    
C16   C23   1.424079 A    
C5    C10   1.408077 A    
C17   C18   1.394493 A    
O7    V2    1.713429 S    
O4    V1    2.005494 S    
O3    V1    2.006476 S    
V1    O10   1.705024 S    
O15   V3    2.006452 S    
O12   V3    2.005505 S    
O21   H14   0.990820 S    
O17   V4    1.711503 S    
C13   H4    1.084372 S    
O22   H15   0.991025 S    
C5    C6    1.401097 A    
C17   H5    1.083848 S    
C18   C19   1.401376 A    
O19   V4    1.995126 S    
C4    C10   1.497697 S    
N3    O28   1.301312 A    
N5    O34   1.301313 A    
O16   V4    2.012223 S    
C11   C16   1.429267 A    
V4    O20   2.165142 S    
C30   C31   1.416125 A    
C12   C13   1.399430 A    
C8    H3    1.083654 S    
C46   C47   1.403105 A    
O17   V3    2.153521 S    
C7    C8    1.402980 A    
V2    O10   2.165055 S    
