data_mof_unit_52685.cif
_audit_creation_date              2012-10-26T21:10:49-0400
_audit_creation_method            fapswitch 2.2
_symmetry_space_group_name_H-M    P1
_symmetry_Int_Tables_number       1
_space_group_crystal_system       triclinic
_cell_length_a                    10.820955
_cell_length_b                    14.695871
_cell_length_c                    14.758578
_cell_angle_alpha                 64.865825
_cell_angle_beta                  103.604537
_cell_angle_gamma                 103.177119
_cell_volume                      2043.13714338

loop_
_atom_site_label
_atom_site_type_symbol
_atom_type_description
_atom_site_fract_x
_atom_site_fract_y
_atom_site_fract_z
_atom_type_partial_charge
C1    C     C_R   0.477926 0.119847 0.312333 0.604252
C2    C     C_R   0.573105 0.784773 0.973233 0.238319
C3    C     C_R   0.378330 0.151910 0.133280 -0.188882
C4    C     C_R   0.569247 0.850558 0.870762 -0.149322
C5    C     C_R   0.511663 0.290150 0.174653 0.224283
C6    C     C_R   0.538872 0.706551 0.824155 0.213086
C7    C     C_R   0.468170 0.360371 0.077202 -0.017921
C8    C     C_R   0.517747 0.639635 0.922823 0.041530
C9    C     C_R   0.398106 0.322595 0.003049 0.072293
C10   C     C_R   0.543541 0.679103 0.999137 0.062092
C11   C     C_R   0.491492 0.466792 0.051753 0.007402
C12   C     C_R   0.527815 0.880084 0.687660 0.563234
C13   C     C_R   0.477438 0.533859 0.948613 0.063267
C14   C     C_R   0.413617 0.494128 0.875127 -0.093100
C15   C     C_R   0.516999 0.507724 0.126342 -0.155406
C16   C     C_R   0.262623 0.999939 0.500653 0.604066
C17   C     C_R   0.737312 0.999999 0.499558 0.607816
C18   C     C_R   0.371738 0.390646 0.902395 -0.085938
C19   C     C_R   0.540346 0.612044 0.100235 -0.087550
C20   C     C_R   0.717538 0.285740 0.665847 -0.090261
C21   C     C_R   0.292324 0.719578 0.326376 -0.084918
C22   C     C_R   0.677714 0.201464 0.640844 0.043138
C23   C     C_R   0.871213 0.999750 0.499155 0.018922
C24   C     C_R   0.325470 0.800452 0.356836 0.052308
C25   C     C_R   0.522965 0.287301 0.506425 0.094216
C26   C     C_R   0.479251 0.713734 0.491511 0.085478
C27   C     C_R   0.550785 0.372680 0.533697 -0.038577
C28   C     C_R   0.457399 0.631671 0.459844 -0.040415
C29   C     C_R   0.657268 0.373199 0.610633 0.039231
C30   C     C_R   0.355117 0.633318 0.379351 0.033849
C31   C     C_R   0.481831 0.458476 0.484385 -0.031727
C32   C     C_R   0.530204 0.547882 0.506020 -0.027304
C33   C     C_R   0.649433 0.550775 0.572108 0.234159
C34   C     C_R   0.128593 0.000544 0.500711 0.011743
C35   C     C_R   0.363691 0.456760 0.417115 0.213506
C36   C     C_R   0.709708 0.462610 0.626417 0.263464
C37   C     C_R   0.312423 0.547862 0.355182 0.240436
C38   C     C_R   0.339908 0.004147 0.813357 -0.053070
C39   C     C_R   0.647518 0.032002 0.188330 -0.046744
C40   C     C_R   0.248100 0.972567 0.744013 0.240832
C41   C     C_R   0.753180 0.051294 0.256809 0.245832
C42   C     C_R   0.193143 0.047026 0.653509 0.006154
C43   C     C_R   0.805782 0.968170 0.338753 -0.004088
C44   C     C_R   0.231276 0.150321 0.635711 -0.136157
C45   C     C_R   0.905947 0.982413 0.421957 -0.081686
C46   C     C_R   0.754431 0.868667 0.347026 -0.151356
C47   C     C_R   0.325142 0.180444 0.704358 -0.034180
C48   C     C_R   0.647972 0.850855 0.278889 -0.025248
C49   C     C_R   0.380798 0.108022 0.793139 0.232512
C50   C     C_R   0.591773 0.931893 0.200793 0.233911
C51   C     C_R   0.963289 0.017158 0.576966 0.204741
C52   C     C_R   0.036133 0.982137 0.423243 0.206737
C53   C     C_R   0.093756 0.020188 0.576557 -0.087280
C54   C     C_R   0.456693 0.187811 0.204867 0.024458
C55   C     C_R   0.547356 0.811962 0.795646 -0.010544
C56   C     C_R   0.353658 0.217834 0.031099 0.245128
Cu1   Cu    Cu3+1 0.466270 0.918260 0.475690 0.993914
Cu2   Cu    Cu3+1 0.533730 0.081740 0.524310 1.020649
H1    H     H_    0.386214 0.542868 0.796888 0.183737
H2    H     H_    0.219114 0.500582 0.249919 0.344341
H3    H     H_    0.543038 0.713612 0.559044 0.208590
H4    H     H_    0.457190 0.286097 0.439837 0.211415
H5    H     H_    0.277895 0.867060 0.315491 0.160012
H6    H     H_    0.724345 0.134464 0.683220 0.157806
H7    H     H_    0.796770 0.282581 0.727128 0.177169
H8    H     H_    0.216340 0.724370 0.262608 0.180816
H9    H     H_    0.748541 0.628896 0.649144 0.342877
H10   H     H_    0.200785 0.372496 0.395749 0.345990
H11   H     H_    0.149767 0.856812 0.713952 0.331327
H12   H     H_    0.512670 0.459698 0.205279 0.168580
H13   H     H_    0.877914 0.155489 0.291000 0.336728
H14   H     H_    0.188586 0.207688 0.567774 0.168248
H15   H     H_    0.793871 0.804609 0.408961 0.177897
H16   H     H_    0.354767 0.260572 0.688438 0.156730
H17   H     H_    0.607110 0.773528 0.288238 0.160068
H18   H     H_    0.991351 0.027429 0.709452 0.337052
H19   H     H_    0.005340 0.957876 0.297596 0.333426
H20   H     H_    0.318684 0.364274 0.843930 0.180502
H21   H     H_    0.557385 0.639786 0.160046 0.180633
H22   H     H_    0.632810 0.717516 0.722769 0.333257
H23   H     H_    0.379437 0.947297 0.883420 0.142236
H24   H     H_    0.673027 0.373804 0.196618 0.341484
H25   H     H_    0.584491 0.931922 0.849896 0.116492
H26   H     H_    0.337805 0.072322 0.156621 0.127599
H27   H     H_    0.607395 0.095525 0.126172 0.133926
H28   H     H_    0.506092 0.080846 0.916086 0.309105
H29   H     H_    0.452594 0.975956 0.089380 0.306749
H30   H     H_    0.260499 0.107324 0.990946 0.328851
H31   H     H_    0.624972 0.897092 0.017399 0.331597
H32   H     H_    0.877911 0.531181 0.663634 0.345793
N1    N     N_R   0.584450 0.204570 0.560790 -0.255387
N2    N     N_R   0.415550 0.795430 0.439210 -0.257551
O1    O     O_R   0.455540 0.022090 0.338120 -0.525003
O2    O     O_3   0.481956 0.911006 0.138924 -0.686793
O3    O     O_3   0.282390 0.182244 0.958766 -0.677764
O4    O     O_3   0.602903 0.822110 0.048470 -0.676222
O5    O     O_3   0.825429 0.463668 0.690792 -0.703434
O6    O     O_3   0.214599 0.552743 0.274492 -0.705744
O7    O     O_3   0.712147 0.641612 0.577313 -0.759898
O8    O     O_3   0.293016 0.365114 0.419049 -0.764515
O9    O     O_3   0.215067 0.869327 0.768384 -0.693152
O10   O     O_3   0.799259 0.151572 0.241764 -0.674966
O11   O     O_3   0.921095 0.029337 0.652416 -0.694842
O12   O     O_R   0.544460 0.977910 0.661880 -0.514985
O13   O     O_3   0.078163 0.969014 0.348285 -0.693991
O14   O     O_3   0.565151 0.668346 0.761012 -0.717026
O15   O     O_3   0.614499 0.317271 0.238631 -0.670180
O16   O     O_R   0.512510 0.160150 0.379180 -0.454472
O17   O     O_R   0.487490 0.839850 0.620820 -0.493319
O18   O     O_R   0.291160 0.930970 0.479480 -0.451663
O19   O     O_R   0.708840 0.069030 0.520520 -0.443430
O20   O     O_R   0.348130 0.069020 0.520540 -0.515029
O21   O     O_R   0.651870 0.930980 0.479460 -0.519093
O22   O     O_3   0.474233 0.140885 0.858546 -0.677859

loop_
_geom_bond_atom_site_label_1
_geom_bond_atom_site_label_2
_ccdc_geom_bond_type
C56   O3    S    
C8    C13   A    
C23   C45   A    
Cu1   N2    S    
H22   O14   S    
C21   H8    S    
C27   C29   A    
C14   C18   A    
C6    C55   A    
C16   O18   A    
C39   C41   A    
C38   C49   A    
C15   C19   A    
C14   H1    S    
C29   C36   A    
C17   C23   S    
Cu2   O20   S    
C35   C37   A    
C26   H3    S    
C12   O12   A    
H2    O6    S    
C42   C53   S    
C3    C54   A    
C51   O11   S    
H29   O2    S    
C17   O19   A    
C33   C36   A    
C41   O10   S    
C37   O6    S    
C16   C34   S    
C40   O9    S    
C11   C15   A    
Cu1   O17   S    
C31   C32   A    
C22   N1    A    
C36   O5    S    
Cu2   N1    S    
H32   O5    S    
C44   C47   A    
H9    O7    S    
H18   O11   S    
C40   C42   A    
C49   O22   S    
H30   O3    S    
Cu1   O1    S    
C13   C14   A    
C41   C43   A    
C48   H17   S    
C42   C44   A    
C24   N2    A    
C12   O17   A    
C7    C11   A    
C20   C29   A    
C46   C48   A    
C25   N1    A    
C17   O21   A    
Cu2   O19   S    
C20   H7    S    
C28   C32   A    
C47   C49   A    
C5    C7    A    
C50   O2    S    
C6    C8    A    
C45   C52   A    
C27   C31   A    
C30   C37   A    
C33   O7    S    
C2    C4    A    
C1    C54   S    
H10   O8    S    
C3    C56   A    
C5    C54   A    
C23   C51   A    
Cu1   O18   S    
C10   C19   A    
C18   H20   S    
C6    O14   S    
C9    C56   A    
H24   O15   S    
C19   H21   S    
C48   C50   A    
C43   C45   S    
C1    O1    A    
H13   O10   S    
C20   C22   A    
C52   O13   S    
C24   H5    S    
C4    C55   A    
C31   C35   A    
Cu2   O12   S    
C39   H27   S    
C35   O8    S    
C2    C10   A    
C16   O20   A    
C5    O15   S    
C7    C9    A    
C15   H12   S    
C26   C28   A    
C47   H16   S    
Cu1   O21   S    
H11   O9    S    
C25   C27   A    
C21   C30   A    
C34   C52   A    
H28   O22   S    
C32   C33   A    
H31   O4    S    
H19   O13   S    
C28   C30   A    
C38   H23   S    
C38   C40   A    
C11   C13   A    
Cu1   Cu2   S    
C4    H25   S    
C2    O4    S    
C44   H14   S    
Cu2   O16   S    
C25   H4    S    
C43   C46   A    
C12   C55   S    
C1    O16   A    
C22   H6    S    
C9    C18   A    
C39   C50   A    
C34   C53   A    
C8    C10   A    
C21   C24   A    
C3    H26   S    
C51   C53   A    
C26   N2    A    
C46   H15   S    
