data_mof_unit_57273.cif
_audit_creation_date              2012-12-10T17:15:50-0500
_audit_creation_method            fapswitch 2.2
_symmetry_space_group_name_H-M    P1
_symmetry_Int_Tables_number       1
_space_group_crystal_system       triclinic
_cell_length_a                    10.116422
_cell_length_b                    10.662685
_cell_length_c                    10.57574
_cell_angle_alpha                 89.201004
_cell_angle_beta                  93.39059
_cell_angle_gamma                 84.957973
_cell_volume                      1134.17262091

loop_
_atom_site_label
_atom_site_type_symbol
_atom_type_description
_atom_site_fract_x
_atom_site_fract_y
_atom_site_fract_z
_atom_type_partial_charge
C1    C     C_R   0.445495 0.505205 0.266121 0.919801
C2    C     C_R   0.541776 0.064344 0.619803 0.113963
C3    C     C_R   0.488449 0.129404 0.509363 -0.074638
C4    C     C_R   0.445781 0.067687 0.401831 -0.229342
C5    C     C_R   0.456734 0.938495 0.402423 -0.173164
C6    C     C_R   0.517769 0.871453 0.507466 -0.105785
C7    C     C_2   0.414930 0.491244 0.132144 -0.359864
C8    C     C_2   0.492133 0.409260 0.069200 -0.201605
C9    C     C_2   0.572363 0.448738 0.867521 -0.384434
C10   C     C_2   0.475307 0.402701 0.933102 0.106802
C11   C     C_2   0.078102 0.465492 0.526163 -0.197828
C12   C     C_R   0.495210 0.260948 0.498357 0.828349
C13   C     C_2   0.929073 0.490014 0.531323 -0.020587
C14   C     C_R   0.552081 0.482087 0.733565 0.943909
C15   C     C_R   0.506415 0.739137 0.507016 0.872275
C16   C     C_R   0.571847 0.127897 0.732427 -0.164067
C17   C     C_R   0.624636 0.062232 0.840737 -0.170137
C18   C     C_R   0.662976 0.934508 0.834252 -0.152998
C19   C     C_R   0.645250 0.871498 0.719734 -0.115425
C20   C     C_R   0.568346 0.933189 0.615933 -0.022989
H1    H     H_    0.404842 0.119707 0.317517 0.133725
H2    H     H_    0.329498 0.545612 0.085354 0.161093
H3    H     H_    0.892901 0.546158 0.607857 0.227844
H4    H     H_    0.120985 0.375437 0.494477 0.171292
H5    H     H_    0.113940 0.637486 0.577343 0.209648
H6    H     H_    0.553860 0.228297 0.737412 0.120672
H7    H     H_    0.644342 0.112109 0.927302 0.139796
H8    H     H_    0.718937 0.888089 0.914896 0.160912
H9    H     H_    0.418189 0.890237 0.320417 0.141462
H10   H     H_    0.573080 0.350730 0.115888 0.155749
H11   H     H_    0.665420 0.469641 0.916187 0.180463
N1    N     N_2   0.157290 0.551390 0.551110 -0.190086
N2    N     N_2   0.842740 0.448550 0.448960 -0.080065
O1    O     O_R   0.568950 0.489660 0.307530 -0.621411
O2    O     O_R   0.348880 0.522640 0.340350 -0.599431
O3    O     O_R   0.610060 0.300270 0.483590 -0.621487
O4    O     O_R   0.389990 0.333260 0.516410 -0.633647
O5    O     O_R   0.651120 0.477360 0.659650 -0.584358
O6    O     O_R   0.431050 0.510340 0.692470 -0.620430
O7    O     O_R   0.610010 0.666740 0.483590 -0.585610
O8    O     O_R   0.389940 0.699730 0.516410 -0.599531
Zn1   Zn    Zn3+2 0.646940 0.477980 0.478090 0.967019
Zn2   Zn    Zn3+2 0.353060 0.522020 0.521910 0.936239
C21   C     C_3   0.897509 0.357466 0.358574 -0.244808
C22   C     C_3   0.801621 0.334360 0.247223 -0.303627
C23   C     C_3   0.867461 0.245646 0.152450 -0.979684
H12   H     H_    0.954628 0.286591 0.114418 0.276347
H13   H     H_    0.900255 0.152899 0.198403 0.274265
H14   H     H_    0.795251 0.230974 0.072030 0.254453
H15   H     H_    0.715495 0.289847 0.281746 0.251742
H16   H     H_    0.770252 0.425544 0.197575 0.240813
H17   H     H_    0.985185 0.393199 0.315581 0.176869
H18   H     H_    0.928512 0.266320 0.408987 0.171822
C24   C     C_2   0.743209 0.763987 0.700767 0.919756
O9    O     O_2   0.761852 0.679341 0.780379 -0.634314
O10   O     O_R   0.826161 0.765415 0.599571 -0.805860
H19   H     H_    0.810493 0.844580 0.544706 0.311281
C25   C     C_3   0.344303 0.360445 0.875708 -0.316836
C26   C     C_3   0.295958 0.250055 0.950192 -0.391618
C27   C     C_3   0.171528 0.203412 0.884475 -0.863603
H20   H     H_    0.090163 0.280687 0.875483 0.264448
H21   H     H_    0.193178 0.168358 0.788755 0.267775
H22   H     H_    0.137920 0.125080 0.941233 0.256151
H23   H     H_    0.375458 0.170997 0.958648 0.232935
H24   H     H_    0.271845 0.279970 0.047031 0.232769
H25   H     H_    0.267178 0.441543 0.873658 0.208939
H26   H     H_    0.354679 0.328105 0.777463 0.217889

loop_
_geom_bond_atom_site_label_1
_geom_bond_atom_site_label_2
_ccdc_geom_bond_type
C11   N1    D    
C9    C14   S    
C13   N2    D    
C14   O5    A    
C7    H2    S    
C2    C16   A    
C9    C10   D    
C11   H4    S    
O3    Zn1   S    
C19   C20   A    
O1    Zn1   S    
C6    C15   S    
C8    H10   S    
O2    Zn2   S    
C21   H17   S    
H5    N1    S    
O7    Zn1   S    
C17   C18   A    
C25   C26   S    
C5    H9    S    
C18   H8    S    
C7    C8    D    
C1    C7    S    
C22   C23   S    
C21   C22   S    
C4    H1    S    
C11   C13   S    
C23   H14   S    
C15   O8    A    
C26   H23   S    
C4    C5    A    
C22   H15   S    
C27   H22   S    
N2    Zn1   S    
C19   C24   S    
C8    C10   S    
C10   C25   S    
N1    Zn2   S    
C1    O1    A    
C2    C3    A    
C24   O10   S    
C16   H6    S    
C5    C6    A    
C23   H13   S    
C15   O7    A    
C12   O3    A    
C9    H11   S    
C2    C20   A    
C3    C4    A    
C17   H7    S    
O5    Zn1   S    
C25   H26   S    
C26   C27   S    
C6    C20   A    
O10   H19   S    
C13   H3    S    
C27   H21   S    
C18   C19   A    
C12   O4    A    
C1    O2    A    
C22   H16   S    
C24   O9    D    
C16   C17   A    
O6    Zn2   S    
C3    C12   S    
C14   O6    A    
C23   H12   S    
N2    C21   S    
C21   H18   S    
C25   H25   S    
O4    Zn2   S    
C26   H24   S    
O8    Zn2   S    
C27   H20   S    
