data_mof_unit_19728.cif
_audit_creation_date              2012-12-11T14:19:23-0500
_audit_creation_method            fapswitch 2.2
_symmetry_space_group_name_H-M    P1
_symmetry_Int_Tables_number       1
_space_group_crystal_system       triclinic
_cell_length_a                    19.461424
_cell_length_b                    7.228472
_cell_length_c                    17.744337
_cell_angle_alpha                 90.000011
_cell_angle_beta                  107.637107
_cell_angle_gamma                 89.999977
_cell_volume                      2378.87352653

loop_
_atom_site_label
_atom_site_type_symbol
_atom_type_description
_atom_site_fract_x
_atom_site_fract_y
_atom_site_fract_z
_atom_type_partial_charge
O1    O     O_R   0.414820 0.494320 0.416790 -0.541665
O2    O     O_R   0.585180 0.994320 0.583210 -0.541667
O3    O     O_R   0.560270 0.819500 0.430140 -0.544896
O4    O     O_R   0.439730 0.319500 0.569860 -0.544896
C1    C     C_R   0.581336 0.655517 0.415012 0.710977
C2    C     C_R   0.418664 0.155517 0.584988 0.710981
O5    O     O_R   0.413840 0.823740 0.407440 -0.532465
O6    O     O_R   0.586160 0.323740 0.592560 -0.532466
O7    O     O_R   0.437710 0.998590 0.560350 -0.538440
O8    O     O_R   0.562290 0.498590 0.439650 -0.538440
C3    C     C_R   0.387686 0.655416 0.385186 0.747917
C4    C     C_R   0.612314 0.155416 0.614814 0.747915
O9    O     O_3   0.508000 0.662290 0.550200 -0.381015
O10   O     O_3   0.492000 0.162290 0.449800 -0.381014
V1    V     V_3+5 0.498520 0.935380 0.490690 1.396646
V2    V     V_3+5 0.501480 0.435380 0.509310 1.396642
C5    C     C_2   0.784505 0.273745 0.785439 0.147136
C6    C     C_2   0.215508 0.773746 0.214545 0.147153
C7    C     C_2   0.815712 0.117273 0.823546 -0.329233
C8    C     C_2   0.184290 0.617270 0.176452 -0.329231
H1    H     H_    0.784842 0.989489 0.812538 0.106614
H2    H     H_    0.215151 0.489474 0.187471 0.106618
C9    C     C_2   0.707537 0.274149 0.734937 0.164718
C10   C     C_2   0.292475 0.774127 0.265050 0.164719
C11   C     C_2   0.682917 0.145706 0.677415 -0.325763
C12   C     C_2   0.317084 0.645708 0.322584 -0.325749
H3    H     H_    0.718138 0.032152 0.673131 0.112695
H4    H     H_    0.281855 0.532183 0.326877 0.112693
C13   C     C_R   0.321391 0.295747 0.631655 -0.204564
C14   C     C_R   0.678609 0.795748 0.368345 -0.204564
C15   C     C_R   0.369073 0.148512 0.633853 -0.077666
C16   C     C_R   0.630927 0.648512 0.366147 -0.077666
C17   C     C_R   0.369221 0.996475 0.683130 -0.224376
C18   C     C_R   0.630779 0.496475 0.316870 -0.224375
C19   C     C_R   0.323421 0.993260 0.730986 0.106626
C20   C     C_R   0.676579 0.493260 0.269014 0.106626
C21   C     C_R   0.274647 0.140243 0.727562 0.083519
C22   C     C_R   0.725353 0.640243 0.272438 0.083518
C23   C     C_R   0.273658 0.290947 0.677166 0.059519
C24   C     C_R   0.726342 0.790947 0.322834 0.059519
C25   C     C_R   0.326114 0.845889 0.782624 -0.201971
C26   C     C_R   0.673886 0.345889 0.217375 -0.201971
C27   C     C_R   0.282704 0.845940 0.832242 -0.164480
C28   C     C_R   0.717296 0.345941 0.167757 -0.164482
C29   C     C_R   0.233407 0.991060 0.829925 0.091898
C30   C     C_R   0.766593 0.491060 0.170075 0.091897
C31   C     C_R   0.227357 0.136656 0.774722 -0.072687
C32   C     C_R   0.772643 0.636656 0.225278 -0.072686
C33   C     C_R   0.174836 0.278379 0.766768 0.007446
C34   C     C_R   0.825164 0.778380 0.233231 0.007444
C35   C     C_R   0.177098 0.434719 0.717858 0.160882
C36   C     C_R   0.822901 0.934721 0.282140 0.160882
C37   C     C_R   0.226126 0.437091 0.673862 -0.192241
C38   C     C_R   0.773873 0.937093 0.326137 -0.192241
C39   C     C_R   0.190953 0.994476 0.882138 0.053636
C40   C     C_R   0.809047 0.494477 0.117861 0.053636
C41   C     C_R   0.132679 0.121207 0.868075 -0.151642
C42   C     C_R   0.867321 0.621208 0.131924 -0.151644
C43   C     C_R   0.122655 0.256061 0.807717 0.298824
C44   C     C_R   0.877344 0.756062 0.192282 0.298821
H5    H     H_    0.320669 0.413323 0.593449 0.126564
H6    H     H_    0.679331 0.913324 0.406551 0.126563
H7    H     H_    0.406272 0.882887 0.685739 0.127506
H8    H     H_    0.593728 0.382887 0.314261 0.127507
H9    H     H_    0.362625 0.731040 0.785475 0.129261
H10   H     H_    0.637374 0.231040 0.214524 0.129262
H11   H     H_    0.286946 0.728029 0.870917 0.139096
H12   H     H_    0.713053 0.228031 0.129081 0.139096
H13   H     H_    0.227516 0.555255 0.636641 0.134374
H14   H     H_    0.772483 0.055257 0.363358 0.134374
O11   O     O_R   0.937810 0.773680 0.060480 -0.517760
O12   O     O_R   0.062190 0.273680 0.939520 -0.517760
O13   O     O_R   0.086190 0.439740 0.092580 -0.547071
O14   O     O_R   0.913810 0.939740 0.907420 -0.547073
C45   C     C_R   0.112880 0.608984 0.114400 0.766336
C46   C     C_R   0.887121 0.108984 0.885599 0.766328
O15   O     O_R   0.939760 0.444210 0.069890 -0.536575
O16   O     O_R   0.060240 0.944210 0.930110 -0.536576
O17   O     O_R   0.914790 0.269640 0.916760 -0.533344
O18   O     O_R   0.085210 0.769640 0.083240 -0.533341
C47   C     C_R   0.918559 0.612457 0.084231 0.775141
C48   C     C_R   0.081440 0.112457 0.915769 0.775137
O19   O     O_3   0.992050 0.601530 0.949880 -0.368528
O20   O     O_3   0.007950 0.101530 0.050120 -0.368524
V3    V     V_3+5 0.001480 0.328340 0.009300 1.480339
V4    V     V_3+5 0.998520 0.828340 0.990700 1.480339
C49   C     C_3   0.824529 0.455774 0.792615 -0.638333
H15   H     H_    0.794085 0.556417 0.747496 0.183208
H16   H     H_    0.831745 0.518468 0.851630 0.191808
H17   H     H_    0.877517 0.434858 0.782364 0.248613
C50   C     C_3   0.175500 0.955799 0.207350 -0.638358
H18   H     H_    0.205955 0.056458 0.252454 0.183204
H19   H     H_    0.168283 0.018445 0.148326 0.191793
H20   H     H_    0.122514 0.934938 0.217610 0.248597
Cl1   Cl    Cl    0.037843 0.369663 0.775800 -0.689360
Cl2   Cl    Cl    0.962156 0.869663 0.224200 -0.689332
C51   C     C_3   0.133783 0.609197 0.715545 -0.638534
H21   H     H_    0.156903 0.728438 0.691941 0.184258
H22   H     H_    0.077988 0.590181 0.675929 0.254001
H23   H     H_    0.134049 0.648624 0.776091 0.230469
C52   C     C_3   0.866214 0.109199 0.284453 -0.638534
H24   H     H_    0.843094 0.228442 0.308055 0.184258
H25   H     H_    0.922010 0.090186 0.324069 0.254000
H26   H     H_    0.865949 0.148624 0.223906 0.230468
C53   C     C_3   0.659475 0.426485 0.748981 -0.722826
H27   H     H_    0.684494 0.494492 0.806975 0.191219
H28   H     H_    0.650817 0.533947 0.702353 0.218607
H29   H     H_    0.606916 0.368646 0.750124 0.193431
C54   C     C_3   0.340552 0.926411 0.250994 -0.722860
H30   H     H_    0.315542 0.994393 0.192993 0.191233
H31   H     H_    0.349217 0.033901 0.297611 0.218612
H32   H     H_    0.393107 0.868530 0.249862 0.193425
C55   C     C_3   0.209918 0.867709 0.953841 -0.750746
H33   H     H_    0.189146 0.918982 0.001655 0.195574
H34   H     H_    0.188762 0.726440 0.936058 0.213492
H35   H     H_    0.269279 0.861590 0.981283 0.193848
C56   C     C_3   0.790081 0.367710 0.046158 -0.750745
H36   H     H_    0.810857 0.418976 0.998346 0.195581
H37   H     H_    0.811232 0.226436 0.063941 0.213487
H38   H     H_    0.730720 0.361604 0.018714 0.193848

loop_
_geom_bond_atom_site_label_1
_geom_bond_atom_site_label_2
_ccdc_geom_bond_type
C35   C51   S    
C14   C16   A    
C49   H15   S    
C52   H24   S    
O13   C45   A    
C40   C56   S    
C20   C26   A    
O1    C3    A    
C46   O17   A    
C37   H13   S    
C2    O7    A    
O12   V3    S    
C31   C33   A    
O5    C3    A    
C53   H28   S    
C5    C9    S    
O14   C46   A    
C6    C10   S    
C6    C50   S    
C7    C46   S    
C7    H1    S    
C10   C12   D    
C54   H31   S    
O10   V1    S    
C41   C43   A    
C42   C44   A    
C9    C53   S    
O18   V4    S    
C5    C7    D    
C36   C38   A    
C33   C35   A    
C34   C36   A    
C15   C17   A    
C21   C31   A    
C45   O18   A    
C22   C32   A    
C17   H7    S    
C1    C16   S    
O16   V4    S    
C32   C34   A    
C2    C15   S    
O2    C4    A    
O6    V2    S    
C13   C15   A    
C25   C27   A    
C26   C28   A    
C51   H22   S    
C28   C30   A    
C51   H21   S    
C30   C32   A    
C29   C31   A    
C53   H29   S    
C13   H5    S    
C36   C52   S    
O20   V3    S    
O4    C2    A    
C56   H38   S    
C50   H18   S    
C25   H9    S    
C39   C55   S    
C3    C12   S    
C54   H32   S    
C8    C45   S    
C35   C37   A    
C16   C18   A    
O4    V2    S    
C39   C41   A    
C50   H19   S    
O11   V4    S    
O16   C48   A    
C38   H14   S    
O15   C47   A    
O6    C4    A    
C13   C23   A    
C18   H8    S    
C14   C24   A    
O1    V2    S    
O14   V4    S    
O2    V1    S    
C27   C29   A    
O13   V3    S    
C43   Cl1   S    
C44   Cl2   S    
C27   H11   S    
C8    H2    S    
C52   H26   S    
C24   C38   A    
C14   H6    S    
C42   C47   S    
C20   C22   A    
O17   V3    S    
C51   H23   S    
O3    V1    S    
C55   H33   S    
C19   C21   A    
C5    C49   S    
C10   C54   S    
O3    C1    A    
O9    V2    S    
C11   H3    S    
C53   H27   S    
C12   H4    S    
C33   C43   A    
C4    C11   S    
C34   C44   A    
C55   H35   S    
C56   H37   S    
O7    V1    S    
C1    O8    A    
C21   C23   A    
O8    V2    S    
C56   H36   S    
C50   H20   S    
C22   C24   A    
C23   C37   A    
O5    V1    S    
C17   C19   A    
C18   C20   A    
C40   C42   A    
C6    C8    D    
C9    C11   D    
C19   C25   A    
C28   H12   S    
O15   V3    S    
O19   V4    S    
C29   C39   A    
C52   H25   S    
C49   H17   S    
C30   C40   A    
C26   H10   S    
C49   H16   S    
C41   C48   S    
O11   C47   A    
C54   H30   S    
O12   C48   A    
C55   H34   S    
