data_mof_unit_61289.cif
_audit_creation_date              2012-10-26T21:20:30-0400
_audit_creation_method            fapswitch 2.2
_symmetry_space_group_name_H-M    P1
_symmetry_Int_Tables_number       1
_space_group_crystal_system       triclinic
_cell_length_a                    15.153284
_cell_length_b                    13.904741
_cell_length_c                    14.346591
_cell_angle_alpha                 89.999976
_cell_angle_beta                  90.868481
_cell_angle_gamma                 90.000052
_cell_volume                      3022.51517639

loop_
_atom_site_label
_atom_site_type_symbol
_atom_type_description
_atom_site_fract_x
_atom_site_fract_y
_atom_site_fract_z
_atom_type_partial_charge
C1    C     C_R   0.329920 0.500053 0.500054 0.536144
C2    C     C_R   0.951407 0.500946 0.500040 0.035087
C3    C     C_R   0.499791 0.500016 0.331021 0.537605
C4    C     C_R   0.500209 0.500016 0.668979 0.537605
C5    C     C_R   0.542806 0.107686 0.570775 -0.150338
C6    C     C_R   0.435489 0.892100 0.450620 -0.148779
C7    C     C_R   0.457194 0.107685 0.429225 -0.150336
C8    C     C_R   0.564512 0.892100 0.549380 -0.148778
C9    C     C_R   0.546821 0.209689 0.567387 0.392063
C10   C     C_R   0.438757 0.790461 0.447522 0.383034
C11   C     C_R   0.453180 0.209689 0.432613 0.392062
C12   C     C_R   0.670080 0.500053 0.499946 0.536144
C13   C     C_R   0.561243 0.790462 0.552477 0.383032
C14   C     C_1   0.499734 0.500085 0.228724 -0.037307
C15   C     C_1   0.500266 0.500085 0.771276 -0.037309
C16   C     C_1   0.499775 0.500173 0.143331 -0.046740
C17   C     C_1   0.500225 0.500173 0.856669 -0.046741
C18   C     C_1   0.499923 0.500233 0.042700 -0.007218
C19   C     C_1   0.500077 0.500233 0.957300 -0.007218
C20   C     C_R   0.500000 0.054646 0.500000 -0.047526
C21   C     C_R   0.500000 0.945287 0.500000 -0.049459
C22   C     C_R   0.095869 0.583561 0.526803 -0.120960
C23   C     C_R   0.187629 0.583537 0.526092 -0.119425
C24   C     C_R   0.905194 0.418093 0.526698 -0.123564
C25   C     C_R   0.904131 0.583561 0.473198 -0.120960
C26   C     C_R   0.094805 0.418092 0.473306 -0.123564
C27   C     C_3   0.674631 0.222071 0.658293 -0.138298
C28   C     C_3   0.385202 0.759237 0.300964 -0.115192
C29   C     C_3   0.325367 0.222074 0.341713 -0.138294
C30   C     C_3   0.614792 0.759234 0.699036 -0.115188
C31   C     C_R   0.813501 0.417514 0.525467 -0.132342
C32   C     C_R   0.812371 0.583536 0.473908 -0.119424
C33   C     C_R   0.186498 0.417513 0.474537 -0.132342
C34   C     C_R   0.233474 0.500351 0.500265 0.016872
C35   C     C_R   0.766526 0.500351 0.499736 0.016872
C36   C     C_R   0.048593 0.500946 0.499963 0.035087
Cu1   Cu    Cu3+1 0.500000 0.596430 0.500000 1.027132
Cu2   Cu    Cu3+1 0.500000 0.403570 0.500000 1.053900
H1    H     H_    0.572286 0.070507 0.629426 0.096479
H2    H     H_    0.779471 0.352638 0.545711 0.124950
H3    H     H_    0.777353 0.648109 0.452927 0.141352
H4    H     H_    0.220529 0.352637 0.454294 0.124946
H5    H     H_    0.716593 0.279027 0.690053 0.137256
H6    H     H_    0.709583 0.194509 0.595939 0.093195
H7    H     H_    0.667576 0.164686 0.711476 0.108442
H8    H     H_    0.346297 0.705353 0.260797 0.140915
H9    H     H_    0.455019 0.753117 0.278318 0.116250
H10   H     H_    0.358223 0.831327 0.283143 0.091184
H11   H     H_    0.283406 0.279031 0.309952 0.137257
H12   H     H_    0.381673 0.928199 0.414919 0.103152
H13   H     H_    0.290416 0.194517 0.404070 0.093195
H14   H     H_    0.332416 0.164685 0.288533 0.108440
H15   H     H_    0.653694 0.705347 0.739204 0.140914
H16   H     H_    0.544974 0.753113 0.721678 0.116250
H17   H     H_    0.641771 0.831323 0.716861 0.091185
H18   H     H_    0.427714 0.070507 0.370574 0.096481
H19   H     H_    0.618327 0.928199 0.585082 0.103154
H20   H     H_    0.062087 0.647851 0.549476 0.105636
H21   H     H_    0.939779 0.353930 0.549457 0.101077
H22   H     H_    0.937913 0.647850 0.450524 0.105636
H23   H     H_    0.060220 0.353929 0.450549 0.101077
H24   H     H_    0.222647 0.648110 0.547071 0.141354
N1    N     N_R   0.500000 0.258690 0.500000 -0.195017
N2    N     N_R   0.500000 0.741310 0.500000 -0.198255
O1    O     O_R   0.371460 0.581430 0.500010 -0.459092
O2    O     O_3   0.376140 0.739441 0.396825 -0.533208
O3    O     O_3   0.408414 0.262469 0.364596 -0.525334
O4    O     O_3   0.623859 0.739442 0.603175 -0.533209
O5    O     O_R   0.628540 0.418570 0.499990 -0.487107
O6    O     O_R   0.628540 0.581430 0.499990 -0.459092
O7    O     O_R   0.371460 0.418570 0.500010 -0.487110
O8    O     O_R   0.500000 0.581450 0.376050 -0.478731
O9    O     O_R   0.500000 0.418550 0.623950 -0.432447
O10   O     O_R   0.500000 0.581450 0.623950 -0.478734
O11   O     O_R   0.500000 0.418550 0.376050 -0.432447
O12   O     O_3   0.591587 0.262471 0.635403 -0.525334

loop_
_geom_bond_atom_site_label_1
_geom_bond_atom_site_label_2
_ccdc_geom_bond_type
C12   O5    A    
C28   H9    S    
C8    C13   A    
Cu1   O10   S    
C22   H20   S    
C5    C20   A    
C29   H11   S    
C7    C11   A    
C30   H16   S    
C28   H8    S    
C1    O7    A    
C33   H4    S    
C26   H23   S    
C11   N1    A    
Cu2   O9    S    
C31   H2    S    
C18   C19   T    
C29   O3    S    
C27   H6    S    
C23   H24   S    
Cu1   O1    S    
C1    O1    A    
C32   H3    S    
C9    O12   S    
C3    O11   A    
C4    O10   A    
C27   H7    S    
C25   C32   A    
Cu2   O5    S    
Cu1   O6    S    
C7    H18   S    
C11   O3    S    
C1    C34   S    
C8    C21   A    
Cu2   O11   S    
C10   O2    S    
C30   H15   S    
C32   C35   A    
C6    C21   A    
C28   O2    S    
C5    C9    A    
Cu1   Cu2   S    
C8    H19   S    
C26   C33   A    
C23   C34   A    
C33   C34   A    
C6    H12   S    
C12   C35   S    
C4    O9    A    
C3    C14   S    
C26   C36   A    
C25   H22   S    
C5    H1    S    
C2    C24   A    
C31   C35   A    
C27   O12   S    
Cu1   N2    S    
Cu2   N1    S    
C29   H13   S    
C2    C36   S    
C15   C17   T    
C12   O6    A    
Cu2   O7    S    
C28   H10   S    
C9    N1    A    
C10   N2    A    
C6    C10   A    
C22   C36   A    
C30   H17   S    
C4    C15   S    
C3    O8    A    
C24   C31   A    
C13   N2    A    
C24   H21   S    
C17   C19   S    
C2    C25   A    
C14   C16   T    
C27   H5    S    
C20   C21   S    
C16   C18   S    
C7    C20   A    
Cu1   O8    S    
C22   C23   A    
C29   H14   S    
C30   O4    S    
C13   O4    S    
