data_mof_unit_61425.cif
_audit_creation_date              2012-12-10T19:46:44-0500
_audit_creation_method            fapswitch 2.2
_symmetry_space_group_name_H-M    P1
_symmetry_Int_Tables_number       1
_space_group_crystal_system       tetragonal
_cell_length_a                    18.487061
_cell_length_b                    18.487061
_cell_length_c                    32.800137
_cell_angle_alpha                 90.0
_cell_angle_beta                  90.0
_cell_angle_gamma                 90.0
_cell_volume                      11210.1495436

loop_
_atom_site_label
_atom_site_type_symbol
_atom_type_description
_atom_site_fract_x
_atom_site_fract_y
_atom_site_fract_z
_atom_type_partial_charge
C1    C     C_R   0.500000 0.000000 0.896025 0.504893
C2    C     C_1   0.500000 1.000000 0.768818 0.022226
C3    C     C_3   0.312117 0.370835 0.477896 -0.130372
C4    C     C_3   0.629165 0.687882 0.477898 -0.130370
C5    C     C_3   0.700662 0.358240 0.455121 -0.145742
C6    C     C_3   0.370835 0.312117 0.477896 -0.130372
C7    C     C_3   0.299337 0.641760 0.455121 -0.145743
C8    C     C_1   0.500000 0.000000 0.149185 0.000052
C9    C     C_1   0.000000 0.500000 0.149185 0.000052
C10   C     C_1   0.000000 0.500000 0.649185 0.000052
C11   C     C_1   0.500000 1.000000 0.649185 0.000052
C12   C     C_1   0.500000 0.000000 0.186791 -0.025968
C13   C     C_1   0.500000 0.000000 0.268818 0.022226
C14   C     C_1   0.000000 0.500000 0.186791 -0.025968
C15   C     C_1   0.000000 0.500000 0.686791 -0.025968
C16   C     C_1   0.500000 1.000000 0.686791 -0.025968
C17   C     C_2   0.079302 0.811449 0.941395 0.262107
C18   C     C_2   0.218710 0.109225 0.914081 0.283244
C19   C     C_2   0.920700 0.188548 0.941398 0.262105
C20   C     C_2   0.781290 0.890775 0.914081 0.283245
C21   C     C_2   0.109225 0.218710 0.914081 0.283246
C22   C     C_2   0.188551 0.920698 0.941395 0.262107
C23   C     C_2   0.890775 0.781290 0.914081 0.283243
C24   C     C_1   0.000000 0.500000 0.268818 0.022226
C25   C     C_2   0.811452 0.079300 0.941398 0.262105
C26   C     C_2   0.609225 0.281290 0.414081 0.283244
C27   C     C_2   0.688548 0.579300 0.441398 0.262105
C28   C     C_2   0.390775 0.718710 0.414081 0.283245
C29   C     C_2   0.311450 0.420698 0.441395 0.262107
C30   C     C_2   0.579300 0.688548 0.441398 0.262105
C31   C     C_2   0.718710 0.390775 0.414081 0.283246
C32   C     C_2   0.420698 0.311450 0.441395 0.262106
C33   C     C_2   0.281290 0.609225 0.414081 0.283243
C34   C     C_1   0.000000 0.500000 0.813238 0.001490
C35   C     C_1   0.500000 1.000000 0.813238 0.001490
C36   C     C_1   0.500000 0.000000 0.313238 0.001490
C37   C     C_1   0.000000 0.500000 0.313238 0.001490
C38   C     C_1   0.000000 0.500000 0.850843 0.042066
C39   C     C_1   0.500000 1.000000 0.850843 0.042066
C40   C     C_1   0.500000 0.000000 0.350843 0.042066
C41   C     C_R   0.000000 0.500000 0.896025 0.504893
C42   C     C_1   0.000000 0.500000 0.350843 0.042066
C43   C     C_R   0.500000 0.000000 0.103997 0.486742
C44   C     C_R   0.000000 0.500000 0.103997 0.486742
C45   C     C_R   1.000000 0.500000 0.603997 0.486742
C46   C     C_R   0.500000 1.000000 0.603997 0.486742
C47   C     C_R   0.640481 0.859321 0.999959 0.518937
C48   C     C_R   0.140557 0.640601 0.000009 0.514930
C49   C     C_R   0.359519 0.140679 0.999959 0.518937
C50   C     C_R   0.859443 0.359399 0.000009 0.514930
C51   C     C_R   0.640601 0.140557 0.000009 0.514930
C52   C     C_R   0.000000 0.500000 0.396025 0.504893
C53   C     C_R   0.140679 0.359519 0.999959 0.518937
C54   C     C_R   0.359399 0.859443 0.000009 0.514930
C55   C     C_R   0.859321 0.640481 0.999959 0.518937
C56   C     C_R   0.140601 0.359443 0.500009 0.514930
C57   C     C_R   0.640679 0.140481 0.499959 0.518937
C58   C     C_R   0.859399 0.640557 0.500009 0.514930
C59   C     C_R   0.359321 0.859519 0.499959 0.518937
C60   C     C_R   0.140481 0.640679 0.499959 0.518937
C61   C     C_R   0.640557 0.859399 0.500009 0.514930
C62   C     C_R   0.859519 0.359321 0.499959 0.518937
C63   C     C_R   0.500000 0.000000 0.396025 0.504893
C64   C     C_R   0.359443 0.140601 0.500009 0.514930
C65   C     C_R   0.242258 0.810710 0.975586 0.084123
C66   C     C_R   0.199640 0.252450 0.968298 0.078396
C67   C     C_R   0.757743 0.189289 0.975587 0.084124
C68   C     C_R   0.800360 0.747550 0.968298 0.078396
C69   C     C_R   0.252450 0.199640 0.968298 0.078397
C70   C     C_R   0.189290 0.757742 0.975586 0.084123
C71   C     C_R   0.747550 0.800360 0.968298 0.078396
C72   C     C_R   0.810711 0.242257 0.975587 0.084125
C73   C     C_R   0.752450 0.300360 0.468298 0.078396
C74   C     C_1   0.500000 0.000000 0.231213 0.015170
C75   C     C_R   0.689289 0.742257 0.475587 0.084125
C76   C     C_R   0.247550 0.699640 0.468298 0.078397
C77   C     C_R   0.310710 0.257742 0.475587 0.084124
C78   C     C_R   0.742257 0.689289 0.475587 0.084125
C79   C     C_R   0.699640 0.247550 0.468298 0.078396
C80   C     C_R   0.257742 0.310710 0.475587 0.084124
C81   C     C_R   0.300360 0.752450 0.468298 0.078396
C82   C     C_R   0.306287 0.801390 0.997636 0.009003
C83   C     C_R   0.199554 0.307318 0.997602 0.011937
C84   C     C_R   0.693713 0.198610 0.997636 0.009002
C85   C     C_1   0.000000 0.500000 0.231213 0.015170
C86   C     C_R   0.800446 0.692682 0.997602 0.011937
C87   C     C_R   0.307318 0.199554 0.997602 0.011937
C88   C     C_R   0.198610 0.693712 0.997636 0.009003
C89   C     C_R   0.692682 0.800446 0.997602 0.011937
C90   C     C_R   0.801390 0.306287 0.997636 0.009002
C91   C     C_R   0.807318 0.300446 0.497602 0.011936
C92   C     C_R   0.698610 0.806287 0.497636 0.009002
C93   C     C_R   0.192682 0.699554 0.497602 0.011936
C94   C     C_R   0.301390 0.193713 0.497636 0.009003
C95   C     C_R   0.806287 0.698610 0.497636 0.009002
C96   C     C_1   0.000000 0.500000 0.731213 0.015170
C97   C     C_R   0.699554 0.192682 0.497602 0.011936
C98   C     C_R   0.193713 0.301390 0.497636 0.009003
C99   C     C_R   0.300446 0.807318 0.497602 0.011937
C100  C     C_R   0.319596 0.733938 0.016026 -0.160783
C101  C     C_R   0.259960 0.313491 0.023504 -0.163025
C102  C     C_R   0.680404 0.266062 0.016025 -0.160783
C103  C     C_R   0.740039 0.686509 0.023503 -0.163025
C104  C     C_R   0.313491 0.259960 0.023504 -0.163025
C105  C     C_R   0.266062 0.680404 0.016026 -0.160783
C106  C     C_R   0.686509 0.740039 0.023503 -0.163025
C107  C     C_1   0.500000 1.000000 0.731213 0.015170
C108  C     C_R   0.733938 0.319596 0.016025 -0.160783
C109  C     C_R   0.813491 0.240040 0.523504 -0.163025
C110  C     C_R   0.766062 0.819596 0.516025 -0.160783
C111  C     C_R   0.186509 0.759960 0.523504 -0.163025
C112  C     C_R   0.233938 0.180404 0.516026 -0.160783
C113  C     C_R   0.819596 0.766062 0.516025 -0.160783
C114  C     C_R   0.759960 0.186509 0.523504 -0.163025
C115  C     C_R   0.180404 0.233938 0.516026 -0.160783
C116  C     C_R   0.240040 0.813491 0.523504 -0.163025
C117  C     C_3   0.129165 0.812117 0.977896 -0.130373
C118  C     C_1   0.000000 0.500000 0.768818 0.022226
C119  C     C_3   0.200662 0.141760 0.955121 -0.145743
C120  C     C_3   0.870835 0.187882 0.977898 -0.130371
C121  C     C_3   0.799338 0.858240 0.955121 -0.145743
C122  C     C_3   0.141760 0.200662 0.955121 -0.145743
C123  C     C_3   0.187883 0.870834 0.977896 -0.130373
C124  C     C_3   0.858240 0.799338 0.955121 -0.145743
C125  C     C_3   0.812118 0.129165 0.977898 -0.130371
C126  C     C_3   0.641760 0.299337 0.455121 -0.145743
C127  C     C_3   0.687882 0.629165 0.477898 -0.130371
C128  C     C_3   0.358240 0.700662 0.455121 -0.145743
H1    H     H_    0.370103 0.723490 0.031686 0.151124
H2    H     H_    0.776511 0.870104 0.531684 0.151124
H3    H     H_    0.142433 0.764191 0.545125 0.151324
H4    H     H_    0.223490 0.129897 0.531685 0.151124
H5    H     H_    0.870104 0.776511 0.531684 0.151124
H6    H     H_    0.764191 0.142433 0.545125 0.151325
H7    H     H_    0.129897 0.223490 0.531685 0.151124
H8    H     H_    0.235809 0.857567 0.545125 0.151325
H9    H     H_    0.099110 0.808997 0.007222 0.069551
H10   H     H_    0.192129 0.100018 0.979066 0.075836
H11   H     H_    0.900890 0.191003 0.007225 0.069550
H12   H     H_    0.264191 0.357567 0.045125 0.151325
H13   H     H_    0.807871 0.899982 0.979066 0.075836
H14   H     H_    0.100018 0.192129 0.979066 0.075836
H15   H     H_    0.191003 0.900890 0.007222 0.069551
H16   H     H_    0.899982 0.807871 0.979066 0.075836
H17   H     H_    0.808997 0.099110 0.007225 0.069550
H18   H     H_    0.600018 0.307870 0.479066 0.075836
H19   H     H_    0.691003 0.599110 0.507226 0.069550
H20   H     H_    0.399982 0.692129 0.479066 0.075836
H21   H     H_    0.308997 0.400890 0.507223 0.069550
H22   H     H_    0.599110 0.691003 0.507226 0.069549
H23   H     H_    0.629896 0.276511 0.031684 0.151124
H24   H     H_    0.692129 0.399982 0.479066 0.075836
H25   H     H_    0.400890 0.308997 0.507223 0.069551
H26   H     H_    0.307870 0.600018 0.479066 0.075836
H27   H     H_    0.039392 0.854073 0.938195 0.049929
H28   H     H_    0.178969 0.075594 0.898842 0.096256
H29   H     H_    0.960612 0.145925 0.938200 0.049927
H30   H     H_    0.821031 0.924405 0.898841 0.096260
H31   H     H_    0.075594 0.178969 0.898842 0.096260
H32   H     H_    0.145927 0.960608 0.938195 0.049929
H33   H     H_    0.924406 0.821031 0.898842 0.096256
H34   H     H_    0.735809 0.642433 0.045124 0.151325
H35   H     H_    0.854075 0.039388 0.938200 0.049928
H36   H     H_    0.575594 0.321031 0.398842 0.096257
H37   H     H_    0.645925 0.539388 0.438200 0.049927
H38   H     H_    0.424406 0.678969 0.398842 0.096260
H39   H     H_    0.354073 0.460609 0.438196 0.049928
H40   H     H_    0.539388 0.645925 0.438200 0.049927
H41   H     H_    0.678969 0.424406 0.398842 0.096260
H42   H     H_    0.460609 0.354073 0.438196 0.049929
H43   H     H_    0.321031 0.575595 0.398842 0.096257
H44   H     H_    0.357567 0.264191 0.045125 0.151325
H45   H     H_    0.276510 0.629897 0.031686 0.151124
H46   H     H_    0.642433 0.735809 0.045124 0.151325
H47   H     H_    0.723489 0.370104 0.031684 0.151124
H48   H     H_    0.857567 0.235809 0.545125 0.151325
O1    O     O_3   0.500000 0.000000 0.000010 -0.444200
O2    O     O_R   0.500000 0.939250 0.416010 -0.495906
O3    O     O_R   0.060750 0.500000 0.416010 -0.495905
O4    O     O_R   0.500000 0.060750 0.416010 -0.495905
O5    O     O_R   0.500000 0.939250 0.084010 -0.532508
O6    O     O_R   0.060750 0.500000 0.084010 -0.532508
O7    O     O_R   0.500000 0.060750 0.084010 -0.532508
O8    O     O_R   0.939250 0.500000 0.084010 -0.532508
O9    O     O_R   0.000000 0.439250 0.584010 -0.532508
O10   O     O_R   0.560750 0.000000 0.584010 -0.532508
O11   O     O_R   1.000000 0.560750 0.584010 -0.532508
O12   O     O_3   1.000000 0.500000 0.000010 -0.444199
O13   O     O_R   0.439250 0.000000 0.584010 -0.532508
O14   O     O_R   0.646150 0.914530 0.977990 -0.506028
O15   O     O_R   0.085470 0.646150 0.977990 -0.501737
O16   O     O_R   0.353850 0.085470 0.977990 -0.506029
O17   O     O_R   0.914530 0.353850 0.977990 -0.501737
O18   O     O_R   0.646150 0.085470 0.977990 -0.501737
O19   O     O_R   0.085470 0.353850 0.977990 -0.506029
O20   O     O_R   0.353850 0.914530 0.977990 -0.501737
O21   O     O_R   0.914530 0.646150 0.977990 -0.506029
O22   O     O_R   0.146150 0.414530 0.477990 -0.501737
O23   O     O_3   0.000000 0.500000 0.500010 -0.444199
O24   O     O_R   0.585470 0.146150 0.477990 -0.506029
O25   O     O_R   0.853850 0.585470 0.477990 -0.501737
O26   O     O_R   0.414530 0.853850 0.477990 -0.506029
O27   O     O_R   0.146150 0.585470 0.477990 -0.506029
O28   O     O_R   0.585470 0.853850 0.477990 -0.501737
O29   O     O_R   0.853850 0.414530 0.477990 -0.506029
O30   O     O_R   0.414530 0.146150 0.477990 -0.501736
O31   O     O_R   0.414550 0.146120 0.022030 -0.551095
O32   O     O_R   0.853880 0.414550 0.022030 -0.550901
O33   O     O_R   0.585450 0.853880 0.022030 -0.551095
O34   O     O_3   0.500000 0.000000 0.500010 -0.444199
O35   O     O_R   0.146120 0.585450 0.022030 -0.550901
O36   O     O_R   0.414550 0.853880 0.022030 -0.550901
O37   O     O_R   0.853880 0.585450 0.022030 -0.551095
O38   O     O_R   0.585450 0.146120 0.022030 -0.550901
O39   O     O_R   0.146120 0.414550 0.022030 -0.551095
O40   O     O_R   0.914550 0.646120 0.522030 -0.550901
O41   O     O_R   0.353880 0.914550 0.522030 -0.551095
O42   O     O_R   0.085450 0.353880 0.522030 -0.550901
O43   O     O_R   0.646120 0.085450 0.522030 -0.551095
O44   O     O_R   0.914550 0.353880 0.522030 -0.551095
O45   O     O_R   0.439250 0.000000 0.916010 -0.495905
O46   O     O_R   0.353880 0.085450 0.522030 -0.550901
O47   O     O_R   0.085450 0.646120 0.522030 -0.551095
O48   O     O_R   0.646120 0.914550 0.522030 -0.550901
O49   O     O_2   0.082770 0.763938 0.915589 -0.438498
O50   O     O_2   0.277269 0.119570 0.897845 -0.437285
O51   O     O_2   0.917233 0.236058 0.915591 -0.438499
O52   O     O_2   0.722730 0.880431 0.897845 -0.437284
O53   O     O_2   0.119571 0.277269 0.897845 -0.437285
O54   O     O_2   0.236062 0.917230 0.915589 -0.438498
O55   O     O_2   0.880430 0.722731 0.897845 -0.437285
O56   O     O_R   0.000000 0.439250 0.916010 -0.495906
O57   O     O_2   0.763942 0.082767 0.915591 -0.438499
O58   O     O_2   0.619571 0.222731 0.397845 -0.437284
O59   O     O_2   0.736057 0.582767 0.415591 -0.438499
O60   O     O_2   0.380429 0.777269 0.397845 -0.437285
O61   O     O_2   0.263939 0.417231 0.415589 -0.438499
O62   O     O_2   0.582766 0.736057 0.415591 -0.438499
O63   O     O_2   0.777269 0.380429 0.397845 -0.437285
O64   O     O_2   0.417231 0.263939 0.415589 -0.438498
O65   O     O_2   0.222731 0.619570 0.397845 -0.437284
O66   O     O_R   0.560750 0.000000 0.916010 -0.495906
O67   O     O_R   0.000000 0.560750 0.916010 -0.495905
O68   O     O_R   0.939250 0.500000 0.416010 -0.495906
Zn1   Zn    Zn3+2 0.500000 0.913220 0.031480 0.939377
Zn2   Zn    Zn3+2 0.000000 0.586740 0.968550 1.016570
Zn3   Zn    Zn3+2 0.413260 0.000000 0.968550 1.016570
Zn4   Zn    Zn3+2 0.000000 0.413260 0.968550 1.016570
Zn5   Zn    Zn3+2 0.086740 0.500000 0.468550 1.016570
Zn6   Zn    Zn3+2 0.500000 0.086740 0.468550 1.016570
Zn7   Zn    Zn3+2 0.913260 0.500000 0.468550 1.016570
Zn8   Zn    Zn3+2 0.500000 0.913260 0.468550 1.016570
Zn9   Zn    Zn3+2 0.086780 0.500000 0.031480 0.939377
Zn10  Zn    Zn3+2 0.500000 0.086780 0.031480 0.939377
Zn11  Zn    Zn3+2 0.913220 0.500000 0.031480 0.939377
Zn12  Zn    Zn3+2 0.000000 0.413220 0.531480 0.939377
Zn13  Zn    Zn3+2 0.586780 0.000000 0.531480 0.939377
Zn14  Zn    Zn3+2 0.000000 0.586780 0.531480 0.939377
Zn15  Zn    Zn3+2 0.413220 0.000000 0.531480 0.939377
Zn16  Zn    Zn3+2 0.586740 0.000000 0.968550 1.016571

loop_
_geom_bond_atom_site_label_1
_geom_bond_atom_site_label_2
_ccdc_geom_bond_type
C2    C35   S    
C34   C118  S    
C6    C32   S    
C60   O47   A    
O11   Zn14  S    
O68   Zn7   S    
C12   C74   S    
O38   Zn10  S    
C68   C86   A    
C2    C107  T    
C33   O65   D    
C4    H22   S    
C59   O26   A    
C8    C43   S    
C56   C98   S    
C58   C95   S    
C3    C6    S    
C70   C88   A    
C68   C124  S    
O9    Zn12  S    
C56   O42   A    
O6    Zn9   S    
C126  H18   S    
C109  H48   S    
C22   C123  S    
C49   O16   A    
C55   O21   A    
C21   O53   D    
O34   Zn13  S    
O1    Zn10  S    
C100  C105  A    
C5    H24   S    
C115  H7    S    
C41   O67   A    
C96   C118  T    
O12   Zn9   S    
C32   O64   D    
O31   Zn10  S    
C30   O62   D    
C40   C63   S    
C10   C15   T    
C52   O68   A    
C61   O28   A    
O3    Zn5   S    
C50   O17   A    
O5    Zn1   S    
O23   Zn12  S    
C77   C80   A    
C66   C69   A    
C78   C127  S    
O10   Zn13  S    
C65   C70   A    
C28   O60   D    
C108  H47   S    
O21   Zn2   S    
C21   C122  S    
C84   C102  A    
C1    O45   A    
C67   C72   A    
C26   C126  S    
O8    Zn11  S    
O34   Zn8   S    
C37   C42   T    
C3    C29   S    
C25   C125  S    
C4    C75   S    
C31   O63   D    
C18   O50   D    
C16   C107  S    
O24   Zn6   S    
C66   C83   A    
O27   Zn5   S    
O4    Zn6   S    
C50   C90   S    
C92   C110  A    
O1    Zn1   S    
C49   O31   A    
C58   O25   A    
C48   O15   A    
C22   O54   D    
C89   C106  A    
C48   C88   S    
O12   Zn2   S    
C111  C116  A    
O43   Zn13  S    
O32   Zn11  S    
O40   Zn14  S    
C7    C128  S    
C103  C106  A    
C24   C85   T    
C44   O8    A    
C62   O29   A    
O45   Zn3   S    
O46   Zn15  S    
C69   C87   A    
C61   C92   S    
C17   C117  S    
C102  H23   S    
C104  H44   S    
C60   C93   S    
C26   O58   D    
C54   O36   A    
O12   Zn4   S    
C25   O57   D    
C67   C84   A    
C53   O39   A    
C105  H45   S    
C86   C103  A    
C27   O59   D    
C21   H31   S    
O2    Zn8   S    
C27   C127  S    
O35   Zn9   S    
C3    C80   S    
C95   C113  A    
C29   O61   D    
O1    Zn16  S    
C101  H12   S    
O23   Zn5   S    
C56   O22   A    
C43   O7    A    
C106  H46   S    
C117  H9    S    
C3    H21   S    
C54   O20   A    
O26   Zn8   S    
C7    C33   S    
C19   H29   S    
C55   C86   S    
C121  H13   S    
C36   C40   T    
C73   C91   A    
C38   C41   S    
C59   O41   A    
C15   C96   S    
O13   Zn15  S    
C100  H1    S    
C128  H20   S    
C6    C77   S    
C31   H41   S    
O25   Zn7   S    
O34   Zn15  S    
C57   O43   A    
C64   O30   A    
C69   C119  S    
C46   O10   A    
C63   O4    A    
C91   C109  A    
O56   Zn4   S    
C49   C87   S    
C62   O44   A    
C5    C126  S    
C35   C39   T    
C9    C14   T    
O29   Zn7   S    
O7    Zn10  S    
O14   Zn16  S    
C76   C93   A    
C72   C90   A    
C11   C16   T    
C60   O27   A    
C71   C89   A    
C41   O56   A    
C78   C95   A    
C8    C12   T    
O67   Zn2   S    
C57   C97   S    
C62   C91   S    
C72   C120  S    
C10   C45   S    
C66   C122  S    
C24   C37   S    
C114  H6    S    
O33   Zn1   S    
C64   O46   A    
C120  H11   S    
C112  H4    S    
C102  C108  A    
C13   C36   S    
O16   Zn3   S    
C110  C113  A    
C20   C121  S    
C23   C124  S    
C75   C92   A    
C27   H37   S    
C109  C114  A    
C51   O38   A    
O23   Zn7   S    
C79   C126  S    
C93   C111  A    
C19   C120  S    
C47   C89   S    
C48   O35   A    
C26   H36   S    
C47   O33   A    
C81   C128  S    
C53   O19   A    
O37   Zn11  S    
C122  H14   S    
C46   O13   A    
C17   O49   D    
C17   H27   S    
O39   Zn9   S    
C44   O6    A    
C99   C116  A    
C18   H28   S    
C20   H30   S    
C119  C122  S    
C111  H3    S    
O20   Zn3   S    
C33   H43   S    
C32   H42   S    
C42   C52   S    
C103  H34   S    
C83   C101  A    
C4    C127  S    
C80   C98   A    
C34   C38   T    
C119  H10   S    
C82   C100  A    
C71   C121  S    
O12   Zn11  S    
C45   O11   A    
C51   C84   S    
C14   C85   S    
O66   Zn16  S    
O36   Zn1   S    
C73   C79   A    
C51   O18   A    
C20   O52   D    
C76   C81   A    
C55   O37   A    
O47   Zn14  S    
C63   O2    A    
C79   C97   A    
C7    C76   S    
C116  H8    S    
C28   H38   S    
C101  C104  A    
C64   C94   S    
C81   C99   A    
O19   Zn4   S    
O41   Zn15  S    
C53   C83   S    
C29   H39   S    
C47   O14   A    
C67   C125  S    
C117  C123  S    
C61   O48   A    
C30   H40   S    
C57   O24   A    
C125  H17   S    
O23   Zn14  S    
C19   O51   D    
C88   C105  A    
O22   Zn5   S    
C45   O9    A    
C65   C82   A    
O1    Zn3   S    
C7    H26   S    
C22   H32   S    
C25   H35   S    
C68   C71   A    
C50   O32   A    
C59   C99   S    
O44   Zn12  S    
C94   C112  A    
C120  C125  S    
O17   Zn4   S    
C43   O5    A    
C110  H2    S    
C98   C115  A    
O18   Zn16  S    
C65   C123  S    
C5    C73   S    
O30   Zn6   S    
C75   C78   A    
C23   O55   D    
C52   O3    A    
C6    H25   S    
C1    O66   A    
C1    C39   S    
C90   C108  A    
C87   C104  A    
O28   Zn8   S    
C54   C82   S    
C13   C74   T    
C123  H15   S    
C121  C124  S    
O15   Zn2   S    
O42   Zn12  S    
C77   C94   A    
C124  H16   S    
C11   C46   S    
C113  H5    S    
C70   C117  S    
C5    C31   S    
C97   C114  A    
C18   C119  S    
O34   Zn6   S    
C112  C115  A    
C4    C30   S    
C9    C44   S    
C28   C128  S    
C127  H19   S    
O48   Zn13  S    
C23   H33   S    
C58   O40   A    
