data_mof_unit_31083.cif
_audit_creation_date              2013-03-05T16:11:36-0500
_audit_creation_method            fapswitch 2.2
_symmetry_space_group_name_H-M    P1
_symmetry_Int_Tables_number       1
_space_group_crystal_system       triclinic
_cell_length_a                    8.252474
_cell_length_b                    16.434632
_cell_length_c                    18.62121
_cell_angle_alpha                 108.47669
_cell_angle_beta                  87.346121
_cell_angle_gamma                 95.468643
_cell_volume                      2384.09389544

loop_
_atom_site_label
_atom_site_type_symbol
_atom_site_description
_atom_site_fract_x
_atom_site_fract_y
_atom_site_fract_z
_atom_type_partial_charge
P1    P     P_3+3 0.571100 0.575270 0.673500 0.483928
O1    O     O_2   0.390320 0.549400 0.679900 -0.361367
O2    O     O_3   0.642260 0.547940 0.592270 -0.410534
O3    O     O_3   0.101430 0.389200 0.608960 -0.415463
O4    O     O_2   0.260211 0.431976 0.737139 -0.341836
O5    O     O_3   0.583950 0.687226 0.713244 -0.551793
O6    O     O_3   0.019528 0.315374 0.726412 -0.517219
H1    H     H_    0.154873 0.246160 0.634032 0.170845
C1    C     C_3   0.994753 0.161766 0.677627 -0.946798
H2    H     H_    0.083475 0.157519 0.719102 0.284624
H3    H     H_    0.869558 0.158279 0.701682 0.256019
P2    P     P_3+3 0.077880 0.297790 0.409490 0.560468
P3    P     P_3+3 0.496225 0.234595 0.553169 0.474648
O7    O     O_2   0.246270 0.285030 0.428370 -0.349195
O8    O     O_3   0.502600 0.343750 0.565720 -0.381854
O9    O     O_2   0.351098 0.190369 0.501246 -0.347243
O10   O     O_3   0.081407 0.271950 0.310645 -0.466039
O11   O     O_3   0.445233 0.221249 0.641255 -0.550434
C2    C     C_3   0.552283 0.277193 0.695092 0.334559
H4    H     H_    0.537048 0.345285 0.700589 0.137179
H5    H     H_    0.680501 0.263353 0.679445 0.052436
C3    C     C_3   0.514169 0.264941 0.771810 -0.819501
H6    H     H_    0.387094 0.279830 0.789562 0.280680
H7    H     H_    0.528964 0.197404 0.768603 0.252677
C4    C     C_3   0.644296 0.271037 0.225136 0.666736
H8    H     H_    0.735392 0.311308 0.203180 0.001419
C5    C     C_3   0.491501 0.252479 0.176676 -0.216799
H9    H     H_    0.399765 0.209338 0.195890 0.181346
H10   H     H_    0.436899 0.312590 0.183421 0.051608
Ba1   Ba    Ba6+2 0.331680 0.458770 0.526950 1.618189
C6    C     C_3   0.557608 0.725558 0.658325 0.408884
H11   H     H_    0.438821 0.700528 0.631482 0.093339
H12   H     H_    0.655302 0.713343 0.614349 0.127367
C7    C     C_3   0.558726 0.821994 0.697673 -0.907956
H13   H     H_    0.457157 0.835735 0.739873 0.283057
H14   H     H_    0.544515 0.855850 0.656211 0.214246
H15   H     H_    0.676075 0.846961 0.726916 0.264389
C8    C     C_3   0.151072 0.342314 0.289731 0.395478
H16   H     H_    0.283411 0.348830 0.299417 0.053857
H17   H     H_    0.097470 0.403112 0.321742 0.113442
C9    C     C_3   0.120323 0.326379 0.206102 -0.881725
H18   H     H_    0.144754 0.259827 0.172020 0.301229
H19   H     H_    0.198290 0.372224 0.184382 0.189947
H20   H     H_    0.993472 0.336540 0.198093 0.255236
P4    P     P_3+3 0.618570 0.424660 0.326480 0.482793
O12   O     O_2   0.799370 0.450570 0.320050 -0.380815
O13   O     O_3   0.547420 0.451990 0.407710 -0.348382
O14   O     O_3   0.088250 0.610730 0.391020 -0.408183
O15   O     O_3   0.607598 0.311306 0.302772 -0.602945
P5    P     P_3+3 0.706862 0.767156 0.444598 0.466937
O16   O     O_3   0.160890 0.606020 0.554260 -0.392295
O17   O     O_3   0.687070 0.656180 0.434260 -0.338169
O18   O     O_2   0.848496 0.804952 0.500097 -0.408140
O19   O     O_3   0.784968 0.786759 0.360035 -0.574810
Ba2   Ba    Ba6+2 0.858120 0.541160 0.473030 1.607137
P6    P     P_3+3 0.084340 0.411295 0.707245 0.522725
C10   C     C_3   0.031046 0.245753 0.659653 0.465494
H21   H     H_    0.941226 0.248470 0.618257 0.012998
H22   H     H_    0.004588 0.106447 0.625089 0.224030
O20   O     O_3   0.028790 0.393910 0.445720 -0.406532
C11   C     C_3   0.030121 0.683563 0.716335 0.400287
H23   H     H_    0.907556 0.669636 0.690838 0.103858
H24   H     H_    0.093553 0.623613 0.701160 0.102468
C12   C     C_3   0.008014 0.717735 0.801970 -0.871222
H25   H     H_    0.956598 0.781265 0.818378 0.276281
H26   H     H_    0.922724 0.672993 0.822090 0.201912
H27   H     H_    0.127120 0.725009 0.829757 0.276581
P7    P     P_3+3 0.125248 0.715258 0.593414 0.443919
O21   O     O_2   0.943420 0.714940 0.571590 -0.367393
O22   O     O_3   0.124145 0.746032 0.692373 -0.559851
H28   H     H_    0.598652 0.308827 0.814646 0.227251
C13   C     C_3   0.672927 0.820209 0.323006 0.644599
H29   H     H_    0.570267 0.845500 0.361568 -0.079211
C14   C     C_3   0.753693 0.897227 0.297457 0.374509
H30   H     H_    0.828674 0.938199 0.345437 -0.033164
P8    P     P_3+3 0.104602 0.608631 0.297216 0.549277
C15   C     C_3   0.181418 0.771077 0.368477 0.360865
H31   H     H_    0.314359 0.766723 0.368829 0.056695
O23   O     O_2   0.939231 0.567577 0.260793 -0.364765
O24   O     O_3   0.117168 0.716793 0.298739 -0.425433
H32   H     H_    0.123002 0.754043 0.416890 0.097469
C16   C     C_3   0.142765 0.864583 0.384333 -0.124489
H33   H     H_    0.123171 0.895438 0.446057 0.086811
H34   H     H_    0.029552 0.866794 0.357497 0.191648
N1    N     N_R   0.663049 0.453769 0.035118 -0.023901
N2    N     N_R   0.723051 0.455596 0.967706 0.008045
C17   C     C_2   0.806030 0.489135 0.702711 -0.545193
C18   C     C_3   0.947484 0.498422 0.754117 0.100409
C19   C     C_2   0.890266 0.501116 0.834542 0.390048
C20   C     C_2   0.728330 0.507069 0.854656 -0.207308
C21   C     C_2   0.615570 0.520346 0.798819 -0.278095
C22   C     C_1   0.670235 0.522765 0.731321 0.318428
N3    N     N_R   0.528953 0.547594 0.962338 -0.009975
N4    N     N_R   0.468363 0.545471 0.029633 -0.006172
C23   C     C_R   0.534773 0.499067 0.068032 0.214418
C24   C     C_R   0.659460 0.503759 0.930222 0.259016
C25   C     C_R   0.560953 0.466220 0.191227 -0.242772
C26   C     C_R   0.507660 0.471363 0.265637 0.185514
C27   C     C_R   0.275836 0.545773 0.250428 0.265627
C28   C     C_R   0.327168 0.538865 0.175716 -0.119888
C29   C     C_R   0.471961 0.500011 0.145326 0.078625
C30   C     C_R   0.366084 0.511619 0.294373 -0.393296
H35   H     H_    0.489669 0.530725 0.814839 0.232099
H36   H     H_    0.672646 0.436899 0.169747 0.161490
H37   H     H_    0.258250 0.567031 0.142928 0.174979
H38   H     H_    0.817450 0.456518 0.642267 0.186836
H39   H     H_    0.328091 0.518187 0.352165 0.147449
C31   C     C_2   0.397752 0.759599 0.505691 -0.525012
C32   C     C_R   0.798369 0.251661 0.484342 -0.480430
C33   C     C_2   0.237817 0.875199 0.582856 -0.312333
C34   C     C_2   0.257928 0.790750 0.556887 0.267709
C35   C     C_2   0.521293 0.814584 0.494149 0.183911
C36   C     C_3   0.522687 0.909354 0.540139 -0.051699
C37   C     C_3   0.349025 0.938212 0.556378 0.117426
C38   C     C_2   0.631816 0.968325 0.507867 -0.083346
C39   C     C_2   0.632150 0.053997 0.536366 -0.112204
C40   C     C_R   0.884645 0.086982 0.468140 -0.008691
C41   C     C_R   0.736799 0.112894 0.504672 0.012844
C42   C     C_R   0.986929 0.141948 0.439156 -0.151827
C43   C     C_R   0.945358 0.225208 0.448476 0.314310
C44   C     C_R   0.691943 0.195587 0.511173 0.199774
H40   H     H_    0.137433 0.898732 0.621242 0.174754
H41   H     H_    0.098245 0.119491 0.409759 0.208101
H42   H     H_    0.401650 0.690648 0.479791 0.180540
H43   H     H_    0.765112 0.315381 0.489442 0.190465
H44   H     H_    0.718675 0.941589 0.463608 0.121278
H45   H     H_    0.549215 0.080645 0.582730 0.169963
N5    N     N_R   0.530944 0.214348 0.096352 0.286156
O25   O     O_R   0.625903 0.257807 0.061216 -0.370205
O26   O     O_R   0.462353 0.139322 0.058255 -0.259359
S1    S     S_3+6 0.586923 0.732990 0.247543 0.030180
O27   O     O_2   0.429377 0.753155 0.222543 -0.229881
O28   O     O_2   0.698697 0.702885 0.180201 -0.208421
O29   O     O_3   0.553361 0.655087 0.286714 -0.587817
H46   H     H_    0.661046 0.633044 0.286027 0.398315
S2    S     S_3+6 0.890488 0.873369 0.215900 0.113059
O30   O     O_2   0.797767 0.850333 0.143542 -0.166935
O31   O     O_2   0.002493 0.952793 0.221827 -0.181048
O32   O     O_3   0.001563 0.791774 0.211664 -0.441562
H47   H     H_    0.071926 0.784868 0.165917 0.405780
N6    N     N_R   0.630828 0.950309 0.286243 0.260214
O33   O     O_R   0.618066 0.026550 0.334346 -0.344501
O34   O     O_R   0.552698 0.928348 0.222937 -0.187065
N7    N     N_R   0.269452 0.914965 0.356755 0.253379
O35   O     O_R   0.271317 0.909426 0.285665 -0.221891
O36   O     O_R   0.344454 0.981861 0.404755 -0.373778
S3    S     S_3+6 0.043057 0.517381 0.903081 -0.000037
O37   O     O_2   0.072353 0.432197 0.911821 -0.218587
O38   O     O_2   0.198815 0.555864 0.877623 -0.299974
O39   O     O_3   0.986987 0.584392 0.987509 -0.489023
H48   H     H_    0.969223 0.638657 0.977669 0.356522
S4    S     S_3+6 0.727501 0.170577 0.215205 0.104193
O40   O     O_2   0.601382 0.095835 0.187674 -0.167580
O41   O     O_2   0.867129 0.158616 0.159191 -0.204740
O42   O     O_3   0.794144 0.170437 0.298711 -0.462195
H49   H     H_    0.697304 0.180131 0.332796 0.362062

loop_
_geom_bond_atom_site_label_1
_geom_bond_atom_site_label_2
_geom_bond_distance
_ccdc_geom_bond_type
C11   O22   1.400598 S    
O14   Ba2   2.769546 S    
C17   C18   1.509711 S    
C13   C14   1.569803 S    
N3    N4    1.337128 A    
C5    H10   1.093485 S    
C7    H15   1.110939 S    
C9    H18   1.109024 S    
O14   P8    1.735325 S    
O4    P6    1.546853 D    
C2    H4    1.109785 S    
P8    O23   1.548500 D    
Ba1   O16   2.811622 S    
S1    O29   1.659386 S    
N5    O25   1.301659 A    
C25   C26   1.413105 A    
C20   C21   1.505554 S    
C15   H31   1.106666 S    
P8    C27   1.848478 S    
C28   H37   1.082594 S    
P5    O19   1.785175 S    
C38   H44   1.077910 S    
P3    O11   1.749909 S    
O8    Ba1   2.748004 S    
C4    S4    1.800652 S    
N3    C24   1.360788 A    
S3    O38   1.501867 D    
C31   H42   1.084827 S    
O11   C2    1.404918 S    
P4    C26   1.868591 S    
N6    O34   1.300764 A    
N1    N2    1.336173 A    
C8    H16   1.104742 S    
C7    H13   1.110706 S    
P6    C18   1.874171 S    
O6    C10   1.404217 S    
C38   C39   1.337855 D    
P1    O1    1.521654 D    
C11   H24   1.110284 S    
C33   C34   1.341156 D    
C28   C29   1.417591 A    
P2    C43   1.836491 S    
O2    Ba2   2.762356 S    
S3    O37   1.502464 D    
P7    O21   1.571750 D    
C39   H45   1.080908 S    
Ba1   O20   2.914185 S    
O12   Ba2   2.805117 S    
P5    O17   1.764583 S    
C6    H12   1.107419 S    
P4    O15   1.767448 S    
C1    H2    1.110706 S    
C33   C37   1.502804 S    
C1    C10   1.520424 S    
O17   Ba2   2.748637 S    
O10   C8    1.399104 S    
P2    Ba1   3.445369 S    
O5    C6    1.394625 S    
Ba2   O20   2.811055 S    
O3    P6    1.750989 S    
C9    H19   1.105404 S    
C11   H23   1.110107 S    
O6    P6    1.754095 S    
O7    Ba1   2.904050 S    
S2    O32   1.674894 S    
C35   C36   1.520346 S    
P4    O13   1.540086 S    
P5    O18   1.544874 D    
C14   H30   1.106792 S    
P1    O5    1.746815 S    
C12   H27   1.110690 S    
Ba1   O13   2.761748 S    
C2    C3    1.519522 S    
C8    C9    1.524311 S    
N7    O36   1.299767 A    
C21   H35   1.081859 S    
C21   C22   1.326889 D    
S2    O30   1.503730 D    
O16   Ba2   2.913348 S    
C4    H8    1.103883 S    
P4    O12   1.522018 D    
C31   C35   1.352569 D    
C14   S2    1.811835 S    
C1    H22   1.110507 S    
P7    C34   1.846019 S    
C12   H26   1.108165 S    
P2    O10   1.752420 S    
O2    Ba1   2.939269 S    
H1    C10   1.107914 S    
P3    C44   1.842249 S    
C5    N5    1.461358 S    
C6    H11   1.103730 S    
S4    O42   1.673958 S    
C15   H32   1.103396 S    
O32   H47   0.990559 S    
C25   C29   1.419511 A    
S3    O39   1.682553 S    
P5    C35   1.856051 S    
S2    O31   1.502845 D    
C6    C7    1.520064 S    
C30   H39   1.081511 S    
S4    O40   1.503838 D    
C1    H3    1.110631 S    
Ba2   O21   2.904266 S    
N2    C24   1.361037 A    
C16   N7    1.448159 S    
C14   N6    1.461633 S    
P2    O7    1.498725 D    
P1    C22   1.837987 S    
C16   H34   1.088650 S    
P3    O8    1.730011 S    
C9    H20   1.099800 S    
C3    H7    1.110667 S    
S1    O27   1.500965 D    
C3    H28   1.110648 S    
C5    H9    1.112319 S    
C17   C22   1.311976 D    
C13   S1    1.776172 S    
O13   Ba2   2.940103 S    
C36   C37   1.539087 S    
C15   O24   1.415160 S    
C32   H43   1.081818 S    
C19   S3    1.777288 S    
C2    H5    1.109758 S    
O39   H48   0.990663 S    
P8    O24   1.761996 S    
S4    O41   1.502088 D    
C13   H29   1.108029 S    
S1    O28   1.501578 D    
N5    O26   1.301427 A    
C42   C43   1.397725 A    
C31   C34   1.484518 S    
C20   C24   1.508170 S    
O29   H46   0.989185 S    
C42   H41   1.081555 S    
C4    C5    1.534575 S    
Ba1   Ba2   4.510884 S    
C27   C28   1.407948 A    
O1    Ba1   2.804614 S    
N7    O35   1.297271 A    
C12   H25   1.110741 S    
C40   C42   1.393305 A    
C26   C30   1.397894 A    
C40   C41   1.404037 A    
C33   H40   1.085264 S    
C11   C12   1.522000 S    
C8    H17   1.109808 S    
N1    C23   1.360658 A    
C32   C44   1.402568 A    
C10   H21   1.107545 S    
C17   H38   1.086480 S    
C15   C16   1.532192 S    
P1    Ba1   3.388697 S    
C39   C41   1.478724 S    
C7    H14   1.101165 S    
O16   P7    1.758488 S    
N4    C23   1.361918 A    
C4    O15   1.418070 S    
C25   H36   1.081741 S    
P2    O20   1.592440 S    
C27   C30   1.402368 A    
O19   C13   1.424342 S    
C18   C19   1.537598 S    
P4    Ba2   3.389304 S    
P7    O22   1.749327 S    
C16   H33   1.110560 S    
P3    O9    1.547059 D    
O42   H49   0.989990 S    
C3    H6    1.111049 S    
P1    O2    1.540113 S    
C19   C20   1.375170 D    
N6    O33   1.299417 A    
C41   C44   1.409302 A    
O3    Ba1   2.770159 S    
C23   C29   1.502958 S    
C32   C43   1.395688 A    
C36   C38   1.504707 S    
