data_mof_unit_48834.cif
_audit_creation_date              2013-03-05T15:58:06-0500
_audit_creation_method            fapswitch 2.2
_symmetry_space_group_name_H-M    P1
_symmetry_Int_Tables_number       1
_space_group_crystal_system       triclinic
_cell_length_a                    15.152869
_cell_length_b                    13.911817
_cell_length_c                    11.093595
_cell_angle_alpha                 91.234173
_cell_angle_beta                  85.097612
_cell_angle_gamma                 90.174434
_cell_volume                      2329.47618933

loop_
_atom_site_label
_atom_site_type_symbol
_atom_site_description
_atom_site_fract_x
_atom_site_fract_y
_atom_site_fract_z
_atom_type_partial_charge
O1    O     O_R   0.370250 0.582280 0.500040 -0.532680
O2    O     O_R   0.370250 0.417720 0.500040 -0.541809
C1    C     C_R   0.328408 0.499028 0.504142 0.970830
O3    O     O_R   0.499970 0.582270 0.317700 -0.508181
O4    O     O_R   0.499970 0.417730 0.317700 -0.513768
C2    C     C_R   0.504431 0.498898 0.258622 0.985182
Cu1   Cu    Cu3+1 0.499990 0.597420 0.500010 1.180433
Cu2   Cu    Cu3+1 0.499990 0.402580 0.500010 1.169218
O5    O     O_R   0.629730 0.582260 0.499980 -0.517498
O6    O     O_R   0.629730 0.417740 0.499980 -0.536120
O7    O     O_R   0.500000 0.582270 0.682320 -0.543824
O8    O     O_R   0.500000 0.417730 0.682320 -0.558943
C3    C     C_R   0.670311 0.501155 0.509286 0.909958
C4    C     C_R   0.496713 0.500871 0.739696 0.913680
C5    C     C_3   0.421342 0.562898 0.083082 0.426594
C6    C     C_3   0.490321 0.389420 0.065086 0.415628
C7    C     C_3   0.412667 0.551023 0.942665 0.016783
C8    C     C_3   0.497206 0.394024 0.922048 0.036200
H1    H     H_    0.359002 0.499349 0.927840 0.207078
H2    H     H_    0.436514 0.361662 0.889861 0.204753
H3    H     H_    0.572317 0.634611 0.899639 0.269421
H4    H     H_    0.636773 0.536965 0.852918 0.253969
C9    C     C_3   0.593262 0.539485 0.048718 0.634355
C10   C     C_3   0.502903 0.496994 0.118773 -0.455088
C11   C     C_3   0.496999 0.501606 0.876487 -0.365432
C12   C     C_3   0.578542 0.556826 0.914759 -0.345045
C13   C     C_R   0.820043 0.452332 0.417601 0.266081
C14   C     C_R   0.767804 0.505431 0.506965 -0.242148
C15   C     C_R   0.809848 0.565718 0.589860 0.311496
C16   C     C_R   0.903579 0.571959 0.580983 -0.108880
C17   C     C_R   0.952723 0.501458 0.511050 -0.002795
C18   C     C_R   0.909757 0.437967 0.434570 -0.021654
C19   C     C_R   0.949584 0.645376 0.640952 0.276481
C20   C     C_R   0.041891 0.638810 0.645520 0.359263
C21   C     C_R   0.088691 0.559585 0.590589 -0.110328
C22   C     C_R   0.045025 0.494810 0.516188 -0.058024
C23   C     C_R   0.093676 0.422521 0.447920 -0.048426
C24   C     C_R   0.046920 0.349409 0.388596 0.347638
C25   C     C_R   0.956365 0.359596 0.380152 -0.129971
C26   C     C_R   0.178852 0.543630 0.605854 0.309226
C27   C     C_R   0.230222 0.494067 0.512500 -0.207388
C28   C     C_R   0.186908 0.429726 0.436707 0.383527
H5    H     H_    0.921375 0.301994 0.337392 0.220819
C29   C     C_R   0.430405 0.796071 0.558200 0.470592
C30   C     C_R   0.433614 0.207522 0.567208 0.469041
N1    N     N_R   0.499930 0.743810 0.499950 -0.284282
N2    N     N_R   0.499930 0.256190 0.499950 -0.280751
C31   C     C_R   0.569110 0.794677 0.441978 0.513661
C32   C     C_R   0.566582 0.203713 0.437273 0.499930
C33   C     C_R   0.568733 0.896886 0.439713 -0.029748
C34   C     C_R   0.567421 0.101804 0.437722 -0.026514
C35   C     C_R   0.501888 0.949047 0.508288 -0.003455
C36   C     C_R   0.501579 0.051992 0.508408 0.002557
C37   C     C_R   0.434976 0.898276 0.574944 -0.218334
C38   C     C_R   0.435930 0.104869 0.578713 -0.213135
C39   C     C_R   0.634544 0.948461 0.370978 -0.058494
C40   C     C_R   0.633657 0.048291 0.369536 -0.073073
C41   C     C_R   0.376375 0.053066 0.659904 0.371423
C42   C     C_R   0.374845 0.951386 0.656406 0.377662
H6    H     H_    0.687382 0.912902 0.315664 0.221182
H7    H     H_    0.686032 0.082272 0.313352 0.218239
Cl1   Cl    Cl    0.438410 0.689145 0.120980 -0.341465
Cl2   Cl    Cl    0.573527 0.306253 0.109374 -0.300352
Cl3   Cl    Cl    0.100320 0.739044 0.700131 -0.274306
N3    N     N_R   0.209311 0.549802 0.725784 0.200575
O9    O     O_R   0.284071 0.510244 0.745544 -0.359997
O10   O     O_R   0.153304 0.566938 0.819376 -0.199223
Cl4   Cl    Cl    0.248790 0.366051 0.320315 -0.336427
N4    N     N_R   0.087272 0.260019 0.347589 0.176911
O11   O     O_R   0.130332 0.210243 0.421370 -0.208959
O12   O     O_R   0.067166 0.219950 0.246405 -0.213411
N5    N     N_R   0.346102 0.751745 0.580472 0.162898
O13   O     O_R   0.329232 0.699841 0.675144 -0.232938
O14   O     O_R   0.282261 0.773509 0.514631 -0.259793
N6    N     N_R   0.355889 0.258584 0.613118 0.168989
O15   O     O_R   0.356077 0.311928 0.710621 -0.288210
O16   O     O_R   0.281261 0.241161 0.566926 -0.243295
Cl5   Cl    Cl    0.660405 0.735422 0.365694 -0.425526
Cl6   Cl    Cl    0.653395 0.261316 0.353328 -0.451999
Cl7   Cl    Cl    0.310415 0.111425 0.779601 -0.286866
Cl8   Cl    Cl    0.304355 0.893646 0.768615 -0.251835
N7    N     N_R   0.336188 0.539583 0.152058 0.161706
O17   O     O_R   0.325982 0.562837 0.266185 -0.322897
O18   O     O_R   0.264034 0.526064 0.097904 -0.199024
N8    N     N_R   0.404421 0.346401 0.111272 0.146825
O19   O     O_R   0.334253 0.352297 0.051865 -0.257050
O20   O     O_R   0.402886 0.282535 0.195661 -0.187804
N9    N     N_R   0.385056 0.641974 0.891512 0.228408
O21   O     O_R   0.442632 0.706869 0.854595 -0.262999
O22   O     O_R   0.303347 0.669343 0.916521 -0.121609
N10   N     N_R   0.569029 0.332900 0.863200 0.217750
O23   O     O_R   0.642214 0.368602 0.812792 -0.295143
O24   O     O_R   0.554272 0.241347 0.848127 -0.247341
Cl9   Cl    Cl    0.633345 0.648491 0.111696 -0.346533
Cl10  Cl    Cl    0.691350 0.467254 0.040979 -0.272794
N11   N     N_R   0.785691 0.426572 0.303502 0.195858
O25   O     O_R   0.708266 0.457508 0.281145 -0.269237
O26   O     O_R   0.837927 0.395744 0.211647 -0.224337
N12   N     N_R   0.759348 0.610790 0.691154 0.111401
O27   O     O_R   0.784069 0.599872 0.799548 -0.265886
O28   O     O_R   0.699726 0.675127 0.674612 -0.284371
N13   N     N_R   0.904959 0.731829 0.684754 0.194672
O29   O     O_R   0.862121 0.782641 0.611802 -0.241286
O30   O     O_R   0.911585 0.763186 0.794987 -0.170196

loop_
_geom_bond_atom_site_label_1
_geom_bond_atom_site_label_2
_geom_bond_distance
_ccdc_geom_bond_type
H3    C12   1.104163 S    
C26   C27   1.410184 A    
C7    N9    1.474037 S    
C27   C28   1.413254 A    
C21   C22   1.410242 A    
Cu1   Cu2   2.710577 S    
N2    C32   1.378074 A    
N8    O19   1.301606 A    
Cu1   O7    2.037949 S    
C23   C24   1.419893 A    
C8    N10   1.481220 S    
C22   C23   1.415866 A    
O2    C1    1.296450 A    
O4    C2    1.316441 A    
O7    C4    1.309675 A    
C18   C25   1.398355 A    
C39   C40   1.389378 A    
Cu1   O5    1.977824 S    
C20   C21   1.411019 A    
C9    C12   1.545578 S    
C31   Cl5   1.756765 S    
C23   C28   1.411013 A    
N4    O12   1.301529 A    
O5    C3    1.296914 A    
C1    C27   1.484234 S    
N12   O27   1.301741 A    
C29   N1    1.387119 A    
N3    O10   1.301941 A    
N11   O26   1.301615 A    
C33   C35   1.407220 A    
C9    C10   1.631286 S    
C3    C14   1.476357 S    
C34   C40   1.408645 A    
C6    Cl2   1.819044 S    
C41   Cl7   1.775678 S    
C36   C38   1.409312 A    
C24   N4    1.435284 S    
C6    C10   1.615542 S    
C28   Cl4   1.754997 S    
C13   N11   1.446886 S    
N4    O11   1.301402 A    
C8    C11   1.590084 S    
O3    Cu1   2.028931 S    
C35   C37   1.401300 A    
C5    N7    1.481578 S    
C37   C42   1.423874 A    
C30   N2    1.383607 A    
C24   C25   1.391197 A    
N1    C31   1.383156 A    
C15   N12   1.437731 S    
N8    O20   1.303220 A    
C19   N13   1.436485 S    
Cu1   N1    2.036568 S    
N5    O14   1.301181 A    
N10   O23   1.300701 A    
C25   H5    1.082729 S    
C32   C34   1.417951 A    
C41   C42   1.414418 A    
C33   C39   1.407102 A    
C39   H6    1.080583 S    
O1    C1    1.318450 A    
N6    O15   1.298720 A    
C15   C16   1.417815 A    
C29   C37   1.432210 A    
N10   O24   1.302189 A    
C17   C18   1.408018 A    
Cu2   O8    2.028918 S    
C2    C10   1.553238 S    
N11   O25   1.296366 A    
C20   Cl3   1.772881 S    
C19   C20   1.407276 A    
N13   O30   1.301373 A    
N6    O16   1.300822 A    
O3    C2    1.318910 A    
C5    C10   1.622018 S    
N12   O28   1.300511 A    
N9    O22   1.301721 A    
N3    O9    1.298332 A    
N7    O18   1.303003 A    
C26   N3    1.445784 S    
C6    N8    1.486421 S    
C35   C36   1.432145 A    
C5    C7    1.579519 S    
C14   C15   1.420775 A    
C16   C19   1.420348 A    
C13   C18   1.403726 A    
O1    Cu1   1.976519 S    
Cu2   O6    1.976549 S    
O2    Cu2   1.977792 S    
C42   Cl8   1.773759 S    
O8    C4    1.307156 A    
N5    O13   1.294370 A    
O6    C3    1.317874 A    
O4    Cu2   2.037962 S    
C40   H7    1.080582 S    
C9    Cl9   1.782692 S    
C30   N6    1.427627 S    
C7    C11   1.570929 S    
C21   C26   1.409765 A    
C11   C12   1.538506 S    
Cu2   N2    2.036534 S    
C16   C17   1.411139 A    
C31   C33   1.422719 A    
C7    H1    1.104207 S    
C5    Cl1   1.819986 S    
C9    Cl10  1.791605 S    
C29   N5    1.421618 S    
C8    H2    1.105729 S    
C4    C11   1.517703 S    
N13   O29   1.301238 A    
C32   Cl6   1.748204 S    
N9    O21   1.301538 A    
C30   C38   1.437322 A    
C6    C8    1.583968 S    
N7    O17   1.296427 A    
H4    C12   1.102452 S    
C38   C41   1.424806 A    
C13   C14   1.411721 A    
C17   C22   1.408056 A    
C34   C36   1.405705 A    
