data_mof_unit_43820.cif
_audit_creation_date              2013-03-05T16:04:06-0500
_audit_creation_method            fapswitch 2.2
_symmetry_space_group_name_H-M    P1
_symmetry_Int_Tables_number       1
_space_group_crystal_system       triclinic
_cell_length_a                    10.859056
_cell_length_b                    9.528017
_cell_length_c                    10.835937
_cell_angle_alpha                 92.601268
_cell_angle_beta                  91.237016
_cell_angle_gamma                 90.85869
_cell_volume                      1119.58377556

loop_
_atom_site_label
_atom_site_type_symbol
_atom_site_description
_atom_site_fract_x
_atom_site_fract_y
_atom_site_fract_z
_atom_type_partial_charge
O1    O     O_R   0.319640 0.618740 0.499990 -0.531655
O2    O     O_R   0.680360 0.618740 0.500010 -0.547749
O3    O     O_R   0.319620 0.381170 0.499990 -0.547700
O4    O     O_R   0.680380 0.381170 0.500010 -0.579931
C1    C     C_R   0.262601 0.499393 0.505892 0.922653
C2    C     C_R   0.738054 0.500995 0.500876 0.833830
O5    O     O_R   0.500000 0.618810 0.319650 -0.597275
O6    O     O_R   0.500000 0.618810 0.680350 -0.542924
O7    O     O_R   0.499970 0.381240 0.319640 -0.557069
O8    O     O_R   0.500030 0.381240 0.680360 -0.541847
C3    C     C_R   0.492594 0.496356 0.262341 0.845046
C4    C     C_R   0.503603 0.504145 0.738907 0.804389
Cu1   Cu    Cu3+1 0.500000 0.640660 0.500000 1.070242
Cu2   Cu    Cu3+1 0.500000 0.359340 0.500000 1.060854
H1    H     H_    0.605622 0.313996 0.108378 0.162272
H2    H     H_    0.612039 0.321196 0.883780 0.201980
C5    C     C_R   0.302929 0.650660 0.116578 0.335827
C6    C     C_R   0.414861 0.753761 0.907380 0.409443
C7    C     C_R   0.255014 0.767556 0.059627 -0.283821
C8    C     C_R   0.315067 0.823678 0.961094 -0.192573
H3    H     H_    0.173789 0.818902 0.094500 0.206735
H4    H     H_    0.285943 0.924421 0.929606 0.212259
C9    C     C_R   0.444243 0.617684 0.946298 -0.052065
C10   C     C_R   0.407806 0.584141 0.065447 -0.062121
C11   C     C_R   0.479507 0.486967 0.128299 -0.033107
C12   C     C_R   0.507941 0.513082 0.875005 -0.048741
C13   C     C_R   0.553397 0.392847 0.061920 -0.189215
C14   C     C_R   0.560864 0.400497 0.934865 -0.135494
C15   C     C_R   0.061959 0.380676 0.467195 -0.122757
C16   C     C_R   0.934540 0.382722 0.463022 -0.232967
H5    H     H_    0.107972 0.287907 0.431148 0.219768
H6    H     H_    0.884617 0.291014 0.424760 0.179657
C17   C     C_R   0.872378 0.502984 0.504502 -0.191795
C18   C     C_R   0.129120 0.498800 0.513413 -0.160632
C19   C     C_R   0.939521 0.621823 0.552051 0.303463
C20   C     C_R   0.067686 0.618959 0.559148 0.282966
C21   C     C_R   0.419554 0.070546 0.424127 0.525826
C22   C     C_R   0.582970 0.080561 0.572473 0.539274
C23   C     C_R   0.418135 0.920144 0.427403 -0.100217
C24   C     C_R   0.583604 0.930600 0.570045 0.009883
H7    H     H_    0.351735 0.857392 0.372638 0.181574
H8    H     H_    0.647090 0.876974 0.628440 0.224708
N1    N     N_R   0.500000 0.852070 0.500000 -0.218757
N2    N     N_R   0.500000 0.147940 0.500000 -0.243589
N3    N     N_R   0.235155 0.590757 0.214310 0.104107
O9    O     O_R   0.160534 0.668586 0.279050 -0.382306
O10   O     O_R   0.226678 0.454866 0.220398 -0.386051
N4    N     N_R   0.501989 0.835280 0.841779 0.123829
O11   O     O_R   0.471780 0.958985 0.806102 -0.375126
O12   O     O_R   0.618308 0.804492 0.847873 -0.348677
N5    N     N_R   0.878631 0.745372 0.595644 0.128684
O13   O     O_R   0.858733 0.844681 0.519633 -0.385819
O14   O     O_R   0.866914 0.770223 0.713771 -0.338558
N6    N     N_R   0.134307 0.736458 0.616874 0.156524
O15   O     O_R   0.204833 0.718479 0.713101 -0.380018
O16   O     O_R   0.122673 0.861730 0.575454 -0.289912
O17   O     O_3   0.336439 0.144015 0.353126 -0.530716
C25   C     C_3   0.306098 0.073436 0.239112 -0.296617
H9    H     H_    0.269423 0.151088 0.175118 0.228782
H10   H     H_    0.231791 0.994468 0.251707 0.180918
H11   H     H_    0.387739 0.024870 0.194695 0.145255
O18   O     O_3   0.654294 0.161272 0.657296 -0.556869
C26   C     C_3   0.779295 0.124569 0.652786 -0.209371
H12   H     H_    0.835390 0.213711 0.694058 0.181588
H13   H     H_    0.810606 0.105757 0.556424 0.174261
H14   H     H_    0.796896 0.032849 0.709621 0.237439

loop_
_geom_bond_atom_site_label_1
_geom_bond_atom_site_label_2
_geom_bond_distance
_ccdc_geom_bond_type
H2    C14   1.083533 S    
O5    Cu1   1.955902 S    
O5    C3    1.297175 A    
O7    Cu2   1.974865 S    
C26   H13   1.112739 S    
C22   N2    1.368637 A    
C15   C16   1.383873 A    
C11   C13   1.397620 A    
C19   N5    1.425629 S    
Cu2   N2    2.014223 S    
C12   C14   1.402599 A    
C19   C20   1.392965 A    
C2    C17   1.458130 S    
O6    C4    1.288764 A    
C9    C10   1.407602 A    
C1    C18   1.453458 S    
C21   N2    1.370216 A    
N4    O12   1.301974 A    
C26   H14   1.108285 S    
C7    C8    1.386581 A    
C15   H5    1.083444 S    
C22   C24   1.428003 A    
O2    C2    1.293432 A    
Cu1   Cu2   2.680422 S    
C16   H6    1.082830 S    
O7    C3    1.287341 A    
O17   C25   1.409787 S    
O18   C26   1.408103 S    
O3    Cu2   1.972864 S    
O8    C4    1.305931 A    
C25   H11   1.114554 S    
O1    C1    1.291519 A    
C24   H8    1.076012 S    
N4    O11   1.301462 A    
C7    H3    1.081973 S    
C8    H4    1.082583 S    
C18   C20   1.409630 A    
N3    O10   1.301423 A    
O4    Cu2   1.966663 S    
N6    O16   1.301057 A    
C5    C10   1.422208 A    
C20   N6    1.435478 S    
C3    C11   1.454914 S    
N5    O14   1.300430 A    
C25   H10   1.109835 S    
N5    O13   1.299843 A    
O6    Cu1   1.974692 S    
Cu1   N1    2.014318 S    
O1    Cu1   1.966526 S    
C10   C11   1.408278 A    
C23   H7    1.079793 S    
C6    C8    1.403764 A    
C21   C23   1.434939 A    
O4    C2    1.293497 A    
O8    Cu2   1.956029 S    
C9    C12   1.429132 A    
C4    C12   1.473030 S    
C13   C14   1.386031 A    
O2    Cu1   1.972752 S    
N6    O15   1.299532 A    
C5    C7    1.399277 A    
C23   N1    1.364992 A    
C16   C17   1.400075 A    
C17   C19   1.408984 A    
C25   H9    1.109218 S    
N3    O9    1.301523 A    
C22   O18   1.386831 S    
H1    C13   1.083631 S    
C15   C18   1.399241 A    
C24   N1    1.363266 A    
C21   O17   1.390817 S    
C6    C9    1.420171 A    
C5    N3    1.436960 S    
C26   H12   1.109370 S    
O3    C1    1.293214 A    
C6    N4    1.435573 S    
