data_mof_unit_63364.cif
_audit_creation_date              2012-12-10T17:16:42-0500
_audit_creation_method            fapswitch 2.2
_symmetry_space_group_name_H-M    P1
_symmetry_Int_Tables_number       1
_space_group_crystal_system       triclinic
_cell_length_a                    18.713642
_cell_length_b                    18.835916
_cell_length_c                    18.856914
_cell_angle_alpha                 109.299396
_cell_angle_beta                  109.475436
_cell_angle_gamma                 109.375501
_cell_volume                      5133.2972827

loop_
_atom_site_label
_atom_site_type_symbol
_atom_type_description
_atom_site_fract_x
_atom_site_fract_y
_atom_site_fract_z
_atom_type_partial_charge
C1    C     C_R   0.619044 0.119006 0.000157 0.782406
C2    C     C_R   0.822303 0.243150 0.000514 -0.175285
C3    C     C_R   0.814425 0.314591 0.000713 -0.010999
C4    C     C_R   0.742449 0.321858 0.001034 -0.176991
C5    C     C_R   0.677616 0.256944 0.999454 -0.174772
C6    C     C_R   0.686155 0.186162 0.000597 -0.010345
C7    C     C_R   0.510986 0.749309 0.827740 -0.182619
C8    C     C_R   0.508950 0.684463 0.763126 -0.184253
C9    C     C_R   0.499501 0.687319 0.687502 -0.003811
C10   C     C_R   0.490443 0.753988 0.675669 -0.178256
C11   C     C_R   0.489239 0.817049 0.738864 -0.175377
C12   C     C_R   0.497832 0.116365 0.117955 0.844979
C13   C     C_R   0.500164 0.815194 0.815304 -0.011346
C14   C     C_R   0.270700 0.835284 0.040165 -0.223726
C15   C     C_R   0.207230 0.772250 0.041466 -0.173978
C16   C     C_R   0.186472 0.685607 0.999189 -0.061483
C17   C     C_R   0.230057 0.662669 0.955738 -0.199853
C18   C     C_R   0.294478 0.725617 0.954426 0.160671
C19   C     C_R   0.314470 0.812508 0.997372 -0.012253
C20   C     C_R   0.619028 0.502637 0.621337 0.776356
C21   C     C_R   0.502350 0.385435 0.386862 0.844684
C22   C     C_R   0.380986 0.503438 0.384496 0.779412
C23   C     C_R   0.381231 0.880635 0.999187 0.789211
C24   C     C_R   0.499839 0.621214 0.621221 0.777995
C25   C     C_R   0.880991 0.500833 0.881778 0.782844
C26   C     C_R   0.881047 0.381207 0.000159 0.778803
C27   C     C_R   0.118627 0.499002 0.118108 0.781242
C28   C     C_R   0.119111 0.618956 0.999758 0.798760
C29   C     C_R   0.757807 0.580791 0.758931 -0.176311
C30   C     C_R   0.821047 0.580326 0.823446 -0.174537
C31   C     C_R   0.814149 0.501373 0.815345 -0.011145
C32   C     C_R   0.743182 0.422889 0.743371 -0.176348
C33   C     C_R   0.678429 0.423329 0.680360 -0.174737
C34   C     C_R   0.500082 0.881790 0.881818 0.782298
C35   C     C_R   0.686067 0.502279 0.687729 -0.007752
C36   C     C_R   0.322984 0.502523 0.245641 -0.173839
C37   C     C_R   0.257825 0.499271 0.179354 -0.177344
C38   C     C_R   0.184853 0.498317 0.185037 -0.010045
C39   C     C_R   0.176205 0.498670 0.256111 -0.174090
C40   C     C_R   0.239864 0.498901 0.320874 -0.176593
C41   C     C_R   0.313807 0.501832 0.316215 -0.009983
C42   C     C_2   0.494422 0.245039 0.319728 -0.155501
C43   C     C_2   0.509351 0.321597 0.324452 -0.312953
C44   C     C_2   0.506707 0.183950 0.258668 -0.155710
C45   C     C_2   0.491259 0.179007 0.182016 -0.316672
C46   C     C_R   0.758990 0.179757 0.001974 -0.175215
Cu1   Cu    Cu3+1 0.438200 0.000380 0.938580 0.946636
Cu2   Cu    Cu3+1 0.561800 0.999620 0.061420 0.946091
Cu3   Cu    Cu3+1 0.438220 0.441470 0.503160 0.948485
Cu4   Cu    Cu3+1 0.561830 0.565070 0.503150 0.951620
Cu5   Cu    Cu3+1 0.999900 0.438590 0.938490 0.947218
Cu6   Cu    Cu3+1 0.999930 0.561410 0.061340 0.947066
H1    H     H_    0.477654 0.228834 0.364303 0.159302
H2    H     H_    0.516358 0.633122 0.772661 0.136728
H3    H     H_    0.482960 0.756305 0.617098 0.136859
H4    H     H_    0.481335 0.867996 0.728850 0.144341
H5    H     H_    0.286225 0.902119 0.073081 0.136097
H6    H     H_    0.174080 0.791266 0.075026 0.158587
H7    H     H_    0.213885 0.595655 0.922600 0.152408
H8    H     H_    0.763919 0.642110 0.765217 0.140067
H9    H     H_    0.875979 0.641306 0.878784 0.139330
H10   H     H_    0.737258 0.361554 0.736834 0.139955
H11   H     H_    0.535457 0.341916 0.286701 0.153244
H12   H     H_    0.623241 0.362337 0.625272 0.136682
H13   H     H_    0.379779 0.504237 0.241326 0.137901
H14   H     H_    0.265163 0.499472 0.124793 0.136345
H15   H     H_    0.119788 0.497728 0.260826 0.140401
H16   H     H_    0.232354 0.498487 0.375302 0.140413
H17   H     H_    0.523714 0.139427 0.274893 0.161898
H18   H     H_    0.464939 0.216737 0.161755 0.153375
H19   H     H_    0.765895 0.125034 0.002533 0.140495
H20   H     H_    0.877988 0.237262 0.000595 0.140405
H21   H     H_    0.735746 0.376771 0.000839 0.139013
H22   H     H_    0.621619 0.262525 0.998735 0.138306
H23   H     H_    0.519232 0.747147 0.886501 0.142286
O1    O     O_R   0.537990 0.090490 0.948120 -0.587344
O2    O     O_R   0.642390 0.554900 0.592760 -0.583133
O3    O     O_R   0.447840 0.361480 0.413570 -0.580090
O4    O     O_R   0.552220 0.465860 0.413560 -0.586704
O5    O     O_R   0.357660 0.451630 0.413550 -0.583198
O6    O     O_R   0.462040 0.556010 0.413540 -0.587611
O7    O     O_R   0.447820 0.540680 0.592750 -0.585530
O8    O     O_R   0.552200 0.645050 0.592740 -0.584117
O9    O     O_R   0.909730 0.448730 0.858460 -0.582578
O10   O     O_R   0.909750 0.552440 0.962210 -0.588171
O11   O     O_R   0.909720 0.357980 0.948050 -0.585435
O12   O     O_R   0.642370 0.089850 0.051860 -0.582639
O13   O     O_R   0.909750 0.461690 0.051790 -0.585596
O14   O     O_R   0.090070 0.447560 0.037620 -0.587673
O15   O     O_R   0.090100 0.551270 0.141360 -0.582969
O16   O     O_R   0.090070 0.538310 0.948030 -0.591405
O17   O     O_R   0.090100 0.642020 0.051770 -0.590544
O18   O     O_R   0.447800 0.089920 0.037730 -0.588466
O19   O     O_R   0.552180 0.089280 0.141460 -0.576798
O20   O     O_R   0.357630 0.910150 0.948140 -0.582847
O21   O     O_R   0.462010 0.909510 0.051880 -0.594566
O22   O     O_R   0.447820 0.910720 0.858540 -0.589187
O23   O     O_R   0.552200 0.910080 0.962270 -0.591015
O24   O     O_R   0.538000 0.450530 0.592770 -0.590382
C47   C     C_3   0.338618 0.698083 0.905158 -0.451629
C48   C     C_3   0.295620 0.686042 0.814460 -0.809628
H24   H     H_    0.224998 0.637370 0.778357 0.255068
H25   H     H_    0.303203 0.748281 0.817947 0.262028
H26   H     H_    0.326719 0.662610 0.778402 0.247763
H27   H     H_    0.409258 0.746326 0.940738 0.204629
H28   H     H_    0.334275 0.635792 0.898941 0.202679

loop_
_geom_bond_atom_site_label_1
_geom_bond_atom_site_label_2
_ccdc_geom_bond_type
C16   C28   S    
C25   C31   S    
C48   H24   S    
Cu6   O15   S    
Cu4   O4    S    
C43   H11   S    
C7    C8    A    
C2    C46   A    
C47   H27   S    
C37   C38   A    
C18   C47   S    
C20   O2    A    
C5    C6    A    
C36   C37   A    
C24   O8    A    
Cu1   O1    S    
C42   H1    S    
C30   C31   A    
C33   C35   A    
C22   C41   S    
C27   C38   S    
C15   C16   A    
C5    H22   S    
C34   O22   A    
Cu3   O3    S    
C27   O15   A    
C18   C19   A    
C1    O12   A    
C24   O7    A    
Cu5   O16   S    
C21   C43   S    
C20   C35   S    
C23   O21   A    
C31   C32   A    
C8    C9    A    
C21   O3    A    
C25   O9    A    
C6    C46   A    
C9    C10   A    
C48   H25   S    
C12   O19   A    
C36   C41   A    
C42   C44   S    
C2    H20   S    
Cu5   O11   S    
Cu4   O8    S    
C46   H19   S    
Cu5   Cu6   S    
C22   O6    A    
Cu6   O13   S    
C8    H2    S    
C39   C40   A    
C36   H13   S    
C16   C17   A    
C7    H23   S    
C1    C6    S    
Cu3   O7    S    
C19   C23   S    
C29   C30   A    
Cu3   O24   S    
Cu1   Cu2   S    
C29   H8    S    
C26   O11   A    
C37   H14   S    
C21   O4    A    
C25   O10   A    
C17   C18   A    
Cu1   O18   S    
Cu2   O12   S    
C44   H17   S    
C28   O17   A    
C10   H3    S    
C4    H21   S    
Cu2   O19   S    
C17   H7    S    
C40   C41   A    
C48   H26   S    
C15   H6    S    
C12   O18   A    
Cu6   O17   S    
C42   C43   D    
C3    C4    A    
Cu4   O2    S    
C44   C45   D    
C14   H5    S    
Cu6   O10   S    
Cu2   O21   S    
C45   H18   S    
C1    O1    A    
C39   H15   S    
C14   C19   A    
C3    C26   S    
C4    C5    A    
C9    C24   S    
C12   C45   S    
Cu2   O23   S    
C29   C35   A    
C47   H28   S    
Cu1   O22   S    
Cu3   O5    S    
C32   C33   A    
C2    C3    A    
C32   H10   S    
C13   C34   S    
Cu5   O14   S    
C11   C13   A    
C38   C39   A    
C20   O24   A    
C33   H12   S    
C47   C48   S    
C34   O23   A    
C23   O20   A    
C27   O14   A    
C28   O16   A    
C10   C11   A    
C22   O5    A    
C7    C13   A    
C26   O13   A    
Cu3   Cu4   S    
C40   H16   S    
C30   H9    S    
Cu1   O20   S    
C14   C15   A    
Cu5   O9    S    
C11   H4    S    
Cu4   O6    S    
