data_mof_unit_15059.cif
_audit_creation_date              2012-12-10T22:11:09-0500
_audit_creation_method            fapswitch 2.2
_symmetry_space_group_name_H-M    P1
_symmetry_Int_Tables_number       1
_space_group_crystal_system       triclinic
_cell_length_a                    12.123297
_cell_length_b                    12.352266
_cell_length_c                    22.919774
_cell_angle_alpha                 90.604972
_cell_angle_beta                  90.780927
_cell_angle_gamma                 91.029868
_cell_volume                      3431.16695397

loop_
_atom_site_label
_atom_site_type_symbol
_atom_type_description
_atom_site_fract_x
_atom_site_fract_y
_atom_site_fract_z
_atom_type_partial_charge
C1    C     C_R   0.656539 0.998274 0.579674 0.866750
C2    C     C_R   0.343461 0.001726 0.420326 0.866749
C3    C     C_R   0.902571 0.752147 0.157212 -0.211314
C4    C     C_R   0.097429 0.247854 0.842788 -0.211311
C5    C     C_R   0.082004 0.895708 0.168120 -0.160886
C6    C     C_R   0.917996 0.104291 0.831881 -0.160885
C7    C     C_R   0.081760 0.816422 0.125379 -0.207301
C8    C     C_R   0.918241 0.183578 0.874622 -0.207302
C9    C     C_R   0.893645 0.123840 0.171290 0.205267
C10   C     C_R   0.106355 0.876161 0.828710 0.205268
C11   C     C_R   0.898425 0.210784 0.133345 -0.218521
C12   C     C_R   0.101575 0.789217 0.866656 -0.218519
C13   C     C_R   0.155558 0.909559 0.298597 -0.189500
C14   C     C_R   0.844441 0.090441 0.701403 -0.189500
C15   C     C_R   0.237091 0.909308 0.341440 -0.198998
C16   C     C_R   0.762908 0.090692 0.658560 -0.198998
C17   C     C_R   0.843774 0.098574 0.305235 -0.196676
C18   C     C_R   0.156226 0.901426 0.694765 -0.196676
C19   C     C_R   0.763611 0.098041 0.347466 -0.200652
C20   C     C_R   0.236388 0.901958 0.652534 -0.200652
C21   C     C_3   0.993297 0.002944 0.247659 -0.104788
C22   C     C_3   0.006703 0.997056 0.752341 -0.104788
C23   C     C_R   0.655404 0.001987 0.421304 0.868063
C24   C     C_R   0.344596 0.998012 0.578696 0.868063
C25   C     C_R   0.095370 0.004158 0.287707 0.125460
C26   C     C_R   0.904630 0.995841 0.712293 0.125460
C27   C     C_R   0.259275 0.002718 0.374817 -0.022645
C28   C     C_R   0.740725 0.997282 0.625183 -0.022644
C29   C     C_R   0.900591 0.003076 0.291714 0.120103
C30   C     C_R   0.099409 0.996924 0.708286 0.120103
C31   C     C_R   0.741334 0.003360 0.378286 -0.018936
C32   C     C_R   0.258665 0.996640 0.621714 -0.018936
C33   C     C_R   0.989526 0.100107 0.206073 0.074032
C34   C     C_R   0.010473 0.899893 0.793927 0.074031
C35   C     C_R   0.996424 0.268583 0.124746 -0.065308
C36   C     C_R   0.003576 0.731417 0.875254 -0.065308
C37   C     C_R   0.992324 0.905418 0.206233 0.136439
C38   C     C_R   0.007676 0.094581 0.793767 0.136439
C39   C     C_R   0.991482 0.745462 0.119422 -0.023026
C40   C     C_R   0.008518 0.254537 0.880578 -0.023026
C41   C     C_R   0.992975 0.661412 0.075417 0.870707
C42   C     C_R   0.007025 0.338588 0.924583 0.870706
C43   C     C_R   0.998781 0.352671 0.081221 0.879982
C44   C     C_R   0.001219 0.647329 0.918779 0.879982
C45   C     C_R   0.117988 0.097133 0.322405 -0.155520
C46   C     C_R   0.882013 0.902867 0.677595 -0.155520
C47   C     C_R   0.200129 0.096916 0.364809 -0.202048
C48   C     C_R   0.799872 0.903084 0.635190 -0.202048
C49   C     C_R   0.883319 0.911163 0.326523 -0.165622
C50   C     C_R   0.116680 0.088837 0.673477 -0.165622
C51   C     C_R   0.802580 0.910412 0.368414 -0.202589
C52   C     C_R   0.197420 0.089588 0.631586 -0.202588
C53   C     C_R   0.088331 0.159276 0.195251 -0.230149
C54   C     C_R   0.911668 0.840723 0.804748 -0.230149
C55   C     C_R   0.091454 0.242357 0.155508 -0.204380
C56   C     C_R   0.908546 0.757642 0.844491 -0.204380
C57   C     C_R   0.902991 0.830997 0.200546 -0.184749
C58   C     C_R   0.097008 0.169003 0.799454 -0.184748
H1    H     H_    0.215207 0.169619 0.390755 0.155579
H2    H     H_    0.784794 0.830381 0.609245 0.155579
H3    H     H_    0.931901 0.839242 0.320684 0.138299
H4    H     H_    0.068098 0.160758 0.679315 0.138299
H5    H     H_    0.166243 0.139331 0.215444 0.154596
H6    H     H_    0.833756 0.860668 0.784555 0.154596
H7    H     H_    0.830778 0.834548 0.227358 0.141093
H8    H     H_    0.169221 0.165453 0.772641 0.141091
H9    H     H_    0.152346 0.950761 0.171197 0.141199
H10   H     H_    0.847654 0.049238 0.828803 0.141199
H11   H     H_    0.137392 0.833868 0.276092 0.144959
H12   H     H_    0.862607 0.166131 0.723908 0.144959
H13   H     H_    0.861079 0.174319 0.283724 0.137519
H14   H     H_    0.138921 0.825681 0.716276 0.137519
H15   H     H_    0.789067 0.837610 0.393472 0.155626
H16   H     H_    0.210932 0.162390 0.606528 0.155625
H17   H     H_    0.168849 0.285074 0.148364 0.162075
H18   H     H_    0.831150 0.714925 0.851636 0.162075
H19   H     H_    0.832791 0.696372 0.153299 0.154732
H20   H     H_    0.167208 0.303628 0.846701 0.154731
H21   H     H_    0.151541 0.811616 0.096480 0.155045
H22   H     H_    0.848459 0.188383 0.903521 0.155044
H23   H     H_    0.824994 0.230775 0.108480 0.166585
H24   H     H_    0.175007 0.769226 0.891520 0.166585
H25   H     H_    0.281718 0.835425 0.348925 0.155856
H26   H     H_    0.718280 0.164575 0.651076 0.155856
H27   H     H_    0.718936 0.171659 0.355797 0.156090
H28   H     H_    0.281064 0.828341 0.644203 0.156090
H29   H     H_    0.070266 0.169730 0.317142 0.140221
H30   H     H_    0.929735 0.830271 0.682857 0.140221
O1    O     O_R   0.621380 0.090460 0.561410 -0.626003
O2    O     O_R   0.378620 0.909540 0.438590 -0.626003
O3    O     O_R   0.617150 0.909540 0.438590 -0.630562
O4    O     O_R   0.382850 0.090460 0.561410 -0.630562
O5    O     O_R   0.619720 0.093230 0.440890 -0.627199
O6    O     O_R   0.380280 0.906770 0.559110 -0.627200
O7    O     O_R   0.618800 0.906770 0.559110 -0.630066
O8    O     O_R   0.381200 0.093230 0.440890 -0.630066
O9    O     O_R   0.087590 0.627480 0.058790 -0.629576
O10   O     O_R   0.912410 0.372520 0.941210 -0.629576
O11   O     O_R   0.905660 0.383870 0.059980 -0.635792
O12   O     O_R   0.094340 0.616130 0.940020 -0.635792
O13   O     O_R   0.092570 0.390420 0.063230 -0.624618
O14   O     O_R   0.907430 0.609580 0.936770 -0.624618
O15   O     O_R   0.900680 0.620930 0.055550 -0.626653
O16   O     O_R   0.099320 0.379070 0.944450 -0.626652
Zn1   Zn    Zn3+2 0.501730 0.123520 0.501540 0.937734
Zn2   Zn    Zn3+2 0.498270 0.876480 0.498460 0.937734
Zn3   Zn    Zn3+2 0.125690 0.504390 0.002180 0.935351
Zn4   Zn    Zn3+2 0.874310 0.495610 0.997820 0.935351
C59   C     C_3   0.784391 0.061117 0.170659 -0.433316
C60   C     C_3   0.764266 0.001948 0.112364 -0.844475
H31   H     H_    0.748622 0.060421 0.076884 0.246971
H32   H     H_    0.836669 0.952815 0.100740 0.282262
H33   H     H_    0.690870 0.947362 0.115591 0.245783
H34   H     H_    0.776587 0.001572 0.205408 0.220048
H35   H     H_    0.716221 0.118539 0.177950 0.197441
C61   C     C_3   0.215609 0.938883 0.829340 -0.433317
C62   C     C_3   0.235738 0.998050 0.887636 -0.844476
H36   H     H_    0.163335 0.047182 0.899262 0.282261
H37   H     H_    0.251385 0.939575 0.923114 0.246970
H38   H     H_    0.309133 0.052637 0.884407 0.245783
H39   H     H_    0.283778 0.881461 0.822047 0.197441
H40   H     H_    0.223411 0.998429 0.794592 0.220049

loop_
_geom_bond_atom_site_label_1
_geom_bond_atom_site_label_2
_ccdc_geom_bond_type
C16   C28   A    
O8    Zn1   S    
O13   Zn3   S    
C56   H18   S    
C23   O3    A    
C5    C37   A    
C53   H5    S    
C17   C29   A    
C5    H9    S    
C19   C31   A    
C43   O13   A    
C39   C41   S    
C29   C49   A    
C11   H23   S    
O11   Zn4   S    
C61   H40   S    
C45   H29   S    
C43   O11   A    
C52   H16   S    
C62   H37   S    
C21   C33   S    
C22   C38   S    
C16   H26   S    
O10   Zn4   S    
C61   C62   S    
C2    O2    A    
C60   H31   S    
C32   C52   A    
O5    Zn1   S    
C38   C58   A    
C11   C35   A    
C58   H8    S    
O6    Zn2   S    
C4    C40   A    
C49   C51   A    
C18   H14   S    
C20   H28   S    
C1    C28   S    
C50   C52   A    
C6    C38   A    
O14   Zn4   S    
O15   Zn4   S    
C18   C30   A    
C12   C36   A    
C35   C43   S    
C18   C20   A    
C55   H17   S    
C45   C47   A    
C30   C50   A    
C3    C39   A    
C9    C33   A    
C14   H12   S    
O3    Zn2   S    
C13   C25   A    
C24   O4    A    
C48   H2    S    
C46   H30   S    
C53   C55   A    
C33   C53   A    
C22   C34   S    
C46   C48   A    
C49   H3    S    
C61   H39   S    
C35   C55   A    
O2    Zn2   S    
C62   H38   S    
C57   H7    S    
C5    C7    A    
C26   C46   A    
C15   H25   S    
C21   C29   S    
C23   O5    A    
C9    C59   S    
C23   C31   S    
C24   C32   S    
C4    H20   S    
C36   C56   A    
O7    Zn2   S    
C24   O6    A    
C15   C27   A    
C1    O7    A    
C12   H24   S    
C10   C34   A    
C14   C26   A    
C9    C11   A    
C60   H33   S    
C2    C27   S    
C10   C12   A    
C59   H34   S    
C3    C57   A    
C17   H13   S    
C13   C15   A    
C50   H4    S    
C14   C16   A    
C36   C44   S    
O1    Zn1   S    
C3    H19   S    
C25   C45   A    
C10   C61   S    
C7    H21   S    
C20   C32   A    
C27   C47   A    
C21   C25   S    
C28   C48   A    
O12   Zn3   S    
C1    O1    A    
C22   C30   S    
C51   H15   S    
C31   C51   A    
C40   C42   S    
C19   H27   S    
C42   O10   A    
C42   O16   A    
C6    C8    A    
C54   C56   A    
C34   C54   A    
C2    O8    A    
C62   H36   S    
C44   O12   A    
C13   H11   S    
C6    H10   S    
C17   C19   A    
C41   O9    A    
C60   H32   S    
C59   H35   S    
C47   H1    S    
O9    Zn3   S    
C41   O15   A    
O4    Zn1   S    
C21   C37   S    
C54   H6    S    
C22   C26   S    
C4    C58   A    
C8    H22   S    
C7    C39   A    
C8    C40   A    
C59   C60   S    
O16   Zn3   S    
C37   C57   A    
C44   O14   A    
