data_mof_unit_50903.cif
_audit_creation_date              2012-12-11T19:42:19-0500
_audit_creation_method            fapswitch 2.2
_symmetry_space_group_name_H-M    P1
_symmetry_Int_Tables_number       1
_space_group_crystal_system       triclinic
_cell_length_a                    8.222859
_cell_length_b                    15.046467
_cell_length_c                    27.011299
_cell_angle_alpha                 98.218054
_cell_angle_beta                  92.902523
_cell_angle_gamma                 81.096047
_cell_volume                      3266.4048998

loop_
_atom_site_label
_atom_site_type_symbol
_atom_type_description
_atom_site_fract_x
_atom_site_fract_y
_atom_site_fract_z
_atom_type_partial_charge
Ba1   Ba    Ba6+2 0.860050 0.456430 0.522530 1.689575
Ba2   Ba    Ba6+2 0.329780 0.543490 0.477460 1.669400
C1    C     C_3   0.777505 0.116574 0.642759 -0.278254
C2    C     C_R   0.943286 0.601076 0.184379 0.596458
C3    C     C_2   0.763474 0.572897 0.274964 -0.076653
C4    C     C_3   0.141138 0.272054 0.654680 0.311915
C5    C     C_3   0.736521 0.593663 0.330611 -0.057952
C6    C     C_1   0.985042 0.484068 0.342113 0.009152
C7    C     C_2   0.029081 0.484066 0.295264 -0.090507
C8    C     C_2   0.909748 0.526738 0.258174 0.216348
C9    C     C_R   0.027698 0.513852 0.104072 -0.082759
C10   C     C_R   0.040387 0.433816 0.126442 -0.030442
C11   C     C_R   0.090144 0.350261 0.097268 -0.057384
C12   C     C_3   0.701318 0.210278 0.630900 0.854678
C13   C     C_R   0.978478 0.597946 0.133401 -0.041863
C14   C     C_2   0.842406 0.527296 0.359733 -0.249056
C15   C     C_2   0.354440 0.479194 0.640926 -0.314612
C16   C     C_3   0.133286 0.249929 0.707567 -0.289448
C17   C     C_R   0.162325 0.421288 0.972718 0.041414
C18   C     C_R   0.076176 0.586575 0.977906 -0.061678
C19   C     C_R   0.137484 0.502010 0.949736 0.047556
C20   C     C_R   0.231060 0.339551 0.943727 -0.097893
C21   C     C_R   0.269516 0.336702 0.893940 -0.045407
C22   C     C_R   0.241376 0.415066 0.870416 -0.000920
C23   C     C_3   0.495537 0.674090 0.630923 0.346612
C24   C     C_R   0.174867 0.498039 0.898075 -0.155549
C25   C     C_R   0.146601 0.576855 0.874161 -0.130897
C26   C     C_R   0.185372 0.570990 0.822896 0.657727
C27   C     C_R   0.279697 0.411468 0.819735 0.577832
C28   C     C_3   0.072175 0.252629 0.358069 0.287710
C29   C     C_2   0.438218 0.439495 0.726346 -0.072364
C30   C     C_3   0.459375 0.414061 0.670800 0.049675
C31   C     C_1   0.209762 0.519656 0.657953 0.008371
C32   C     C_2   0.167695 0.521944 0.705387 -0.112380
C33   C     C_2   0.290562 0.483185 0.743249 0.174034
C34   C     C_3   0.499573 0.695108 0.687726 0.545025
C35   C     C_R   0.119427 0.424744 0.023706 0.018595
C36   C     C_R   0.064431 0.509860 0.052399 0.056492
C37   C     C_R   0.045868 0.591054 0.030008 0.045831
C38   C     C_R   0.128739 0.345657 0.047230 -0.100529
C39   C     C_R   0.966232 0.677577 0.111330 -0.052496
C40   C     C_3   0.035045 0.263638 0.302727 -0.380474
C41   C     C_R   0.046276 0.663985 0.952652 -0.143105
C42   C     C_R   0.080399 0.659483 0.902204 0.656311
C43   C     C_R   0.998785 0.674389 0.060960 -0.095850
C44   C     C_R   0.842514 0.831385 0.465518 -0.026022
C45   C     C_3   0.941832 0.803412 0.349856 0.252081
C46   C     C_R   0.777770 0.924959 0.470222 -0.027355
C47   C     C_R   0.642680 0.112183 0.480123 -0.042465
C48   C     C_R   0.785543 0.078098 0.452671 -0.040369
C49   C     C_R   0.854271 0.986960 0.449043 -0.107018
C50   C     C_R   0.576474 0.205705 0.486787 0.036137
C51   C     C_R   0.430362 0.235192 0.512429 -0.246109
C52   C     C_3   0.977442 0.734858 0.585663 0.333553
C53   C     C_R   0.615974 0.803663 0.512754 0.020018
C54   C     C_R   0.550461 0.896297 0.518449 -0.036433
C55   C     C_R   0.629911 0.957131 0.496389 0.016282
C56   C     C_3   0.968616 0.836288 0.300662 0.528694
C57   C     C_R   0.407232 0.929647 0.545501 -0.047627
C58   C     C_R   0.338657 0.020038 0.548917 -0.070540
C59   C     C_R   0.414408 0.081800 0.527375 -0.024597
C60   C     C_R   0.562911 0.050572 0.501531 -0.004363
C61   C     C_R   0.346099 0.174039 0.531225 0.062371
C62   C     C_R   0.756008 0.771815 0.484708 -0.292392
C63   C     C_3   0.954865 0.837508 0.600186 -0.364223
C64   C     C_3   0.639301 0.340972 0.367247 0.385552
C65   C     C_3   0.575438 0.317454 0.312750 -0.191464
C66   C     C_3   0.515260 0.224560 0.300702 -0.175091
C67   C     C_3   0.477704 0.788032 0.368044 0.407446
C68   C     C_3   0.655469 0.146038 0.288872 -0.374064
C69   C     C_3   0.136197 0.151297 0.360954 -0.187389
C70   C     C_3   0.210623 0.134166 0.412056 -0.381093
C71   C     C_3   0.432357 0.878510 0.348104 -0.348940
C72   C     C_R   0.001129 0.438810 0.177383 0.588344
F1    F     F_    0.532703 0.217657 0.635005 -0.780752
F2    F     F_    0.655884 0.709789 0.704880 -0.649805
F3    F     F_    0.824119 0.840827 0.272017 -0.693402
F4    F     F_    0.047550 0.737308 0.881124 -0.631619
H1    H     H_    0.730880 0.214902 0.591744 0.004221
H2    H     H_    0.753541 0.370238 0.366710 -0.148064
H3    H     H_    0.552371 0.395299 0.386848 0.098844
H4    H     H_    0.723092 0.063547 0.617205 0.075837
H5    H     H_    0.670394 0.322030 0.285891 0.081759
H6    H     H_    0.470361 0.370014 0.305240 0.099671
H7    H     H_    0.753065 0.109730 0.681995 0.131655
H8    H     H_    0.369980 0.661238 0.618218 -0.117341
H9    H     H_    0.586013 0.612213 0.620159 0.041555
H10   H     H_    0.409819 0.756574 0.699819 0.042835
H11   H     H_    0.466485 0.637130 0.704255 -0.059179
H12   H     H_    0.148525 0.270694 0.284118 0.132882
H13   H     H_    0.912222 0.105258 0.637602 0.092850
H14   H     H_    0.105537 0.313955 0.733597 0.109397
H15   H     H_    0.912440 0.733168 0.342097 0.014642
H16   H     H_    0.836670 0.850051 0.367699 -0.023992
H17   H     H_    0.067301 0.789053 0.279834 0.077864
H18   H     H_    0.005196 0.905120 0.308032 -0.021910
H19   H     H_    0.614088 0.774505 0.371831 -0.103011
H20   H     H_    0.425324 0.794072 0.405694 0.079186
H21   H     H_    0.483969 0.932427 0.373764 0.060421
H22   H     H_    0.296684 0.897218 0.345464 0.115981
H23   H     H_    0.983482 0.204441 0.282254 0.101536
H24   H     H_    0.035789 0.324861 0.648062 0.083649
H25   H     H_    0.483916 0.874072 0.310470 0.167228
H26   H     H_    0.150095 0.450928 0.283187 0.103843
H27   H     H_    0.099495 0.287357 0.113093 0.123355
H28   H     H_    0.532662 0.412024 0.751897 0.120473
H29   H     H_    0.322087 0.271950 0.873780 0.130026
H30   H     H_    0.260119 0.276110 0.958569 0.076326
H31   H     H_    0.162754 0.278223 0.027793 0.077175
H32   H     H_    0.674105 0.604676 0.249428 0.112666
H33   H     H_    0.930629 0.743471 0.133060 0.141784
H34   H     H_    0.942408 0.323569 0.299098 0.084182
H35   H     H_    0.993127 0.729799 0.970673 0.112183
H36   H     H_    0.256393 0.299308 0.651268 0.067536
H37   H     H_    0.044731 0.552223 0.717052 0.157103
H38   H     H_    0.988636 0.739247 0.047731 0.080268
H39   H     H_    0.810263 0.526674 0.398150 0.072242
H40   H     H_    0.389808 0.482702 0.603160 0.079921
H41   H     H_    0.847212 0.120805 0.433538 0.098881
H42   H     H_    0.966309 0.965650 0.428534 0.085182
H43   H     H_    0.226016 0.040262 0.569111 0.110121
H44   H     H_    0.343587 0.886627 0.563917 0.100051
H45   H     H_    0.857875 0.713468 0.573655 -0.003494
H46   H     H_    0.377923 0.306248 0.515947 0.081206
H47   H     H_    0.034507 0.208370 0.710106 0.136233
H48   H     H_    0.804802 0.700203 0.480866 0.061946
H49   H     H_    0.252714 0.211475 0.718679 0.171169
H50   H     H_    0.960442 0.269713 0.380132 0.085850
H51   H     H_    0.719411 0.154773 0.255051 0.135278
H52   H     H_    0.745559 0.141523 0.320661 0.150707
H53   H     H_    0.604315 0.081153 0.281317 0.140596
H54   H     H_    0.444609 0.211916 0.332177 0.155948
H55   H     H_    0.431152 0.225755 0.267222 0.103124
H56   H     H_    0.063839 0.716252 0.554413 0.062838
H57   H     H_    0.330368 0.159793 0.417448 0.118387
H58   H     H_    0.232257 0.060139 0.414346 0.104889
H59   H     H_    0.126657 0.168693 0.441959 0.147638
H60   H     H_    0.032362 0.111639 0.352502 0.065625
H61   H     H_    0.230852 0.124268 0.332477 0.101537
H62   H     H_    0.861449 0.858478 0.629545 0.156568
H63   H     H_    0.913402 0.872361 0.567346 0.050437
H64   H     H_    0.073580 0.859016 0.614695 0.117022
N1    N     N_R   0.952296 0.521957 0.205848 -0.428084
N2    N     N_R   0.250777 0.488779 0.796057 -0.435366
O1    O     O_2   0.906480 0.548660 0.619050 -0.441070
O2    O     O_2   0.181739 0.823674 0.472819 -0.488123
O3    O     O_3   0.085882 0.805069 0.379869 -0.626592
O4    O     O_3   0.138490 0.548590 0.558870 -0.498802
O5    O     O_3   0.572560 0.389960 0.472890 -0.489066
O6    O     O_2   0.345660 0.723580 0.528500 -0.466127
O7    O     O_3   0.534723 0.748538 0.610542 -0.636327
O8    O     O_2   0.413466 0.542811 0.323476 -0.499264
O9    O     O_3   0.414098 0.719077 0.335364 -0.566639
O10   O     O_2   0.008472 0.368987 0.196137 -0.611907
O11   O     O_2   0.338415 0.338769 0.796589 -0.610290
O12   O     O_3   0.669222 0.263484 0.391777 -0.662678
O13   O     O_2   0.905670 0.674634 0.209812 -0.547474
O14   O     O_2   0.163522 0.639386 0.802443 -0.489972
O15   O     O_3   0.686300 0.382310 0.585700 -0.488575
O16   O     O_2   0.787417 0.452745 0.676193 -0.495693
O17   O     O_3   0.038096 0.694153 0.627516 -0.598165
O18   O     O_3   0.765182 0.277871 0.664665 -0.632799
O19   O     O_2   0.844040 0.276390 0.471470 -0.468971
O20   O     O_3   0.101510 0.335500 0.560330 -0.496667
O21   O     O_2   0.003729 0.175910 0.530690 -0.510933
O22   O     O_3   0.135688 0.193008 0.620618 -0.604115
O23   O     O_2   0.283210 0.451310 0.380920 -0.464000
O24   O     O_3   0.051220 0.451340 0.441120 -0.468328
O25   O     O_3   0.503410 0.617620 0.414290 -0.477270
O26   O     O_3   0.190570 0.306214 0.379635 -0.613519
O27   O     O_3   0.617150 0.609960 0.527100 -0.480558
O28   O     O_3   0.088210 0.664420 0.439670 -0.461745
P1    P     P_3+3 0.071950 0.575820 0.612140 1.029488
P2    P     P_3+3 0.664370 0.290050 0.457240 0.977217
P3    P     P_3+3 0.145551 0.218828 0.559786 0.959149
P4    P     P_3+3 0.117760 0.424110 0.387850 0.995997
P5    P     P_3+3 0.046725 0.782253 0.439500 0.946251
P6    P     P_3+3 0.675658 0.385011 0.650187 0.983837
P7    P     P_3+3 0.531369 0.722852 0.545249 0.950420
P8    P     P_3+3 0.516521 0.614601 0.349731 0.971836

loop_
_geom_bond_atom_site_label_1
_geom_bond_atom_site_label_2
_ccdc_geom_bond_type
O28   P5    S    
Ba2   O6    S    
C71   H22   S    
C52   H45   S    
C4    O22   S    
C65   H5    S    
C10   C72   A    
C1    H7    S    
Ba1   O1    S    
C23   H9    S    
C53   C54   A    
C30   P6    S    
C2    N1    Am   
C28   C69   S    
C46   C55   A    
C52   C63   S    
O26   P4    S    
C34   H10   S    
O8    P8    D    
Ba1   P1    S    
O22   P3    S    
C66   H55   S    
C17   C19   A    
C22   C24   A    
Ba1   Ba2   S    
C35   C38   A    
C16   H47   S    
C36   C37   A    
C32   C33   S    
C70   H58   S    
C3    H32   S    
Ba2   O4    S    
C52   H56   S    
C71   H21   S    
C68   H52   S    
O17   P1    S    
C54   C55   A    
C72   O10   D    
O20   P3    S    
C1    H13   S    
O5    P2    S    
C59   C61   A    
C40   H34   S    
C22   C27   A    
C4    H36   S    
C11   C38   A    
C56   H18   S    
C17   C35   A    
C56   F3    S    
Ba2   P4    S    
C63   H62   S    
C9    C13   A    
C25   C42   A    
C46   C49   A    
C28   O26   S    
C29   C30   S    
Ba1   O20   S    
C6    C7    D    
C21   C22   A    
C67   C71   S    
C26   N2    Am   
C34   F2    S    
C7    C8    S    
O25   P8    S    
O12   P2    S    
O23   P4    D    
C33   N2    S    
C37   C43   A    
C67   H20   S    
C57   H44   S    
C64   C65   S    
O9    P8    S    
C57   C58   A    
C6    C14   D    
C44   P5    S    
O27   P7    S    
C59   C60   A    
C15   C31   D    
C19   C24   A    
C31   C32   D    
C69   H60   S    
C28   H50   S    
C4    C16   S    
C45   O3    S    
Ba1   P2    S    
C48   H41   S    
Ba1   O15   S    
C17   C20   A    
C13   C39   A    
C11   H27   S    
C3    C5    S    
C18   C37   A    
C70   H57   S    
C69   H61   S    
C23   C34   S    
Ba1   O24   S    
C55   C60   A    
C32   H37   S    
C27   N2    Am   
Ba1   O27   S    
C68   H51   S    
C67   O9    S    
C65   C66   S    
O2    P5    D    
C44   C62   A    
C58   C59   A    
C40   H12   S    
C66   H54   S    
C12   O18   S    
C9    C36   A    
C56   H17   S    
C35   C36   A    
C16   H49   S    
C63   H63   S    
O3    P5    S    
Ba2   O24   S    
O7    P7    S    
C2    O13   D    
C71   H25   S    
C47   C50   A    
C21   H29   S    
C53   C62   A    
C1    H4    S    
C26   O14   D    
C49   H42   S    
C45   H15   S    
C48   C49   A    
C12   H1    S    
C18   C19   A    
Ba1   O5    S    
O16   P6    D    
C1    C12   S    
C15   H40   S    
C5    C14   S    
O1    P1    D    
C62   H48   S    
C41   C42   A    
C24   C25   A    
C29   H28   S    
C29   C33   D    
C72   N1    Am   
O15   P6    S    
C40   H23   S    
C50   P2    S    
C18   C41   A    
C31   P1    S    
C50   C51   A    
O24   P4    S    
C70   H59   S    
C47   C60   A    
C53   P7    S    
C51   H46   S    
C9    C10   A    
C6    P4    S    
C61   P3    S    
C38   H31   S    
C34   H11   S    
O21   P3    D    
C64   H2    S    
Ba2   O27   S    
O4    P1    S    
C54   C57   A    
C27   O11   D    
C23   O7    S    
C16   H14   S    
C12   F1    S    
C2    C13   A    
C42   F4    S    
C3    C8    D    
C14   H39   S    
C41   H35   S    
C45   C56   S    
C64   O12   S    
C63   H64   S    
C51   C61   A    
C43   H38   S    
C23   H8    S    
Ba2   O5    S    
C7    H26   S    
C20   H30   S    
C68   H53   S    
C45   H16   S    
C5    P8    S    
C8    N1    S    
C4    H24   S    
C52   O17   S    
C58   H43   S    
O18   P6    S    
Ba2   O25   S    
C44   C46   A    
C65   H6    S    
C69   C70   S    
C10   C11   A    
Ba1   O19   S    
C66   C68   S    
C47   C48   A    
C39   H33   S    
C25   C26   A    
C15   C30   S    
C39   C43   A    
C20   C21   A    
C28   C40   S    
Ba1   O4    S    
O19   P2    D    
Ba2   O23   S    
Ba2   O28   S    
O6    P7    D    
C64   H3    S    
C67   H19   S    
