data_mof_unit_59164.cif
_audit_creation_date              2012-12-11T15:45:05-0500
_audit_creation_method            fapswitch 2.2
_symmetry_space_group_name_H-M    P1
_symmetry_Int_Tables_number       1
_space_group_crystal_system       triclinic
_cell_length_a                    6.928122
_cell_length_b                    16.82591
_cell_length_c                    17.09352
_cell_angle_alpha                 100.474256
_cell_angle_beta                  91.022502
_cell_angle_gamma                 89.260024
_cell_volume                      1959.01457162

loop_
_atom_site_label
_atom_site_type_symbol
_atom_type_description
_atom_site_fract_x
_atom_site_fract_y
_atom_site_fract_z
_atom_type_partial_charge
O1    O     O_R   0.494370 0.415690 0.413450 -0.549771
O2    O     O_R   0.819420 0.429360 0.578420 -0.549904
O3    O     O_R   0.994280 0.584310 0.586550 -0.546620
C1    C     C_R   0.654258 0.413625 0.605398 0.676032
O4    O     O_R   0.823790 0.406230 0.413570 -0.549820
O5    O     O_R   0.998670 0.561000 0.420530 -0.536370
C2    C     C_R   0.654632 0.383027 0.384893 0.669747
O6    O     O_R   0.489970 0.439000 0.579470 -0.547142
O7    O     O_3   0.662300 0.550810 0.502470 -0.335215
V1    V     V_3+5 0.935380 0.490570 0.499540 1.446175
O8    O     O_R   0.328650 0.570640 0.421580 -0.503129
C3    C     C_R   0.156644 0.589203 0.397617 0.803334
O9    O     O_R   0.324290 0.593770 0.586430 -0.526012
C4    C     C_R   0.155355 0.616827 0.615166 0.733518
V2    V     V_3+5 0.435930 0.509430 0.500460 1.525187
O10   O     O_3   0.159140 0.449190 0.497530 -0.390248
C5    C     C_R   0.311810 0.724789 0.717411 -0.115008
H1    H     H_    0.452428 0.706321 0.693542 0.126428
C6    C     C_R   0.300326 0.788597 0.782482 -0.153652
H2    H     H_    0.432813 0.817387 0.806584 0.120099
C7    C     C_R   0.120804 0.814886 0.815831 -0.049400
C8    C     C_R   0.953070 0.775659 0.782057 -0.152171
H3    H     H_    0.812418 0.794171 0.805858 0.116404
C9    C     C_R   0.964559 0.711843 0.717001 -0.141237
H4    H     H_    0.832059 0.683083 0.692870 0.121954
C10   C     C_R   0.144114 0.685423 0.683790 -0.034574
C11   C     C_R   0.132912 0.645425 0.339895 -0.188863
C12   C     C_R   0.133452 0.864275 0.168071 -0.064594
C13   C     C_R   0.338118 0.827130 0.273526 -0.088676
C14   C     C_R   0.298454 0.876169 0.217662 -0.184297
C15   C     C_R   0.009756 0.800540 0.174597 -0.205110
C16   C     C_R   0.051270 0.749525 0.230037 0.101887
C17   C     C_R   0.212394 0.764724 0.283053 0.026188
C18   C     C_R   0.244513 0.716504 0.342834 0.384772
C19   C     C_R   0.979926 0.630071 0.284028 -0.182331
C20   C     C_R   0.936120 0.682444 0.231731 -0.150429
H5    H     H_    0.890031 0.577446 0.281767 0.140330
H6    H     H_    0.472929 0.836776 0.306308 0.192243
H7    H     H_    0.814063 0.669234 0.191095 0.121267
H8    H     H_    0.400111 0.923290 0.212529 0.131599
H9    H     H_    0.886162 0.788677 0.134544 0.114755
C21   C     C_R   0.664125 0.361098 0.667109 -0.064128
C22   C     C_R   0.600676 0.139065 0.833016 -0.069745
C23   C     C_R   0.401176 0.195246 0.735904 -0.191737
C24   C     C_R   0.428646 0.140418 0.787594 -0.152353
C25   C     C_R   0.747711 0.193272 0.823816 -0.238514
C26   C     C_R   0.719974 0.249397 0.772079 0.160606
C27   C     C_R   0.544836 0.250755 0.728034 0.157205
C28   C     C_R   0.517095 0.306885 0.676302 -0.238001
C29   C     C_R   0.836167 0.359734 0.712520 -0.161898
C30   C     C_R   0.863642 0.304900 0.764204 -0.198904
H10   H     H_    0.384753 0.306424 0.641421 0.122712
H11   H     H_    0.952444 0.400768 0.707212 0.123173
H12   H     H_    0.266300 0.194714 0.702708 0.127322
H13   H     H_    0.998527 0.305424 0.797392 0.120360
H14   H     H_    0.312380 0.099375 0.792895 0.132554
H15   H     H_    0.880058 0.193730 0.858693 0.121779
C31   C     C_R   0.812034 0.276496 0.282394 -0.154548
H16   H     H_    0.953010 0.295930 0.306210 0.114768
C32   C     C_R   0.801144 0.212707 0.217274 -0.148999
H17   H     H_    0.934180 0.184842 0.193078 0.118452
C33   C     C_R   0.621321 0.185268 0.184011 -0.047294
C34   C     C_R   0.452686 0.223375 0.217764 -0.153447
H18   H     H_    0.311712 0.203940 0.193944 0.116310
C35   C     C_R   0.463576 0.287164 0.282884 -0.151734
H19   H     H_    0.330542 0.315032 0.307081 0.114024
C36   C     C_R   0.643403 0.314617 0.316134 -0.043677
O11   O     O_R   0.774880 0.061150 0.920630 -0.535658
O12   O     O_R   0.440980 0.093710 0.086500 -0.544061
O13   O     O_R   0.266190 0.938890 0.079390 -0.540868
C37   C     C_R   0.610119 0.116900 0.115212 0.686791
O14   O     O_R   0.445420 0.070740 0.921670 -0.544233
O15   O     O_R   0.270660 0.915760 0.913380 -0.540746
C38   C     C_R   0.610573 0.086517 0.894710 0.703871
O16   O     O_R   0.770400 0.084270 0.086640 -0.541004
O17   O     O_3   0.602590 0.949210 0.997500 -0.368768
V3    V     V_3+5 0.329470 0.009420 0.000470 1.403328
O18   O     O_R   0.940650 0.906250 0.913470 -0.544255
C39   C     C_R   0.109595 0.883205 0.884751 0.688148
O19   O     O_R   0.936210 0.929220 0.078300 -0.539432
C40   C     C_R   0.108053 0.913906 0.105032 0.702186
V4    V     V_3+5 0.828930 0.990510 0.999490 1.406063
O20   O     O_3   0.105680 0.050790 0.002500 -0.369600
S1    S     S_3+6 0.403064 0.750852 0.425565 -0.014561
O21   O     O_2   0.334153 0.724296 0.499431 -0.341294
O22   O     O_2   0.601642 0.716652 0.406273 -0.342503
O23   O     O_3   0.413158 0.852429 0.445438 -0.513275
H20   H     H_    0.516517 0.865095 0.486453 0.368236

loop_
_geom_bond_atom_site_label_1
_geom_bond_atom_site_label_2
_ccdc_geom_bond_type
O23   H20   S    
C34   C35   A    
O12   V3    S    
C6    H2    S    
S1    O23   S    
C1    O6    A    
O14   V3    S    
C5    C10   A    
C16   C20   A    
C6    C7    A    
C9    C10   A    
O5    C3    A    
V3    O20   S    
C31   C32   A    
V2    O10   S    
C13   C17   A    
C32   C33   A    
O12   C37   A    
O13   C40   A    
O8    V2    S    
S1    O21   D    
C26   C27   A    
C24   H14   S    
C35   C36   A    
C13   H6    S    
O1    V2    S    
O7    V1    S    
C22   C38   S    
O9    C4    A    
O13   V3    S    
C18   S1    S    
C29   C30   A    
C20   H7    S    
C11   C18   A    
C29   H11   S    
C3    C11   S    
C9    H4    S    
O14   C38   A    
O17   V4    S    
O4    C2    A    
O18   C39   A    
C26   C30   A    
C11   C19   A    
C31   H16   S    
C4    C10   S    
C32   H17   S    
C19   C20   A    
O2    C1    A    
C13   C14   A    
O18   V4    S    
C15   C16   A    
C28   H10   S    
C7    C39   S    
C33   C34   A    
C5    H1    S    
O15   C39   A    
C14   H8    S    
O17   V3    S    
C22   C24   A    
O3    C4    A    
C21   C29   A    
O19   V4    S    
C27   C28   A    
V4    O20   S    
O6    V2    S    
O9    V2    S    
C25   H15   S    
C8    C9    A    
O2    V1    S    
C23   C24   A    
C25   C26   A    
C15   H9    S    
C19   H5    S    
C12   C40   S    
O1    C2    A    
C12   C15   A    
S1    O22   D    
O19   C40   A    
O5    V1    S    
O8    C3    A    
O16   V4    S    
O11   V4    S    
C16   C17   A    
C12   C14   A    
O7    V2    S    
O4    V1    S    
O3    V1    S    
V1    O10   S    
C37   O16   A    
C1    C21   S    
C5    C6    A    
C17   C18   A    
C33   C37   S    
C30   H13   S    
C22   C25   A    
C21   C28   A    
C2    C36   S    
C34   H18   S    
C23   H12   S    
C31   C36   A    
C35   H19   S    
O15   V3    S    
C8    H3    S    
C7    C8    A    
O11   C38   A    
C23   C27   A    
