data_mof_unit_25425.cif
_audit_creation_date              2012-12-11T14:44:11-0500
_audit_creation_method            fapswitch 2.2
_symmetry_space_group_name_H-M    P1
_symmetry_Int_Tables_number       1
_space_group_crystal_system       triclinic
_cell_length_a                    18.943307
_cell_length_b                    10.910267
_cell_length_c                    18.895369
_cell_angle_alpha                 90.03464
_cell_angle_beta                  89.892628
_cell_angle_gamma                 90.004852
_cell_volume                      3905.22185001

loop_
_atom_site_label
_atom_site_type_symbol
_atom_type_description
_atom_site_fract_x
_atom_site_fract_y
_atom_site_fract_z
_atom_type_partial_charge
C1    C     C_R   0.730073 0.376790 0.145711 0.544720
C2    C     C_R   0.993470 0.001280 0.036514 0.380802
C3    C     C_R   0.998166 0.777440 0.037557 -0.045525
C4    C     C_R   0.501626 0.054048 0.036103 -0.133424
C5    C     C_R   0.499203 0.054145 0.963588 -0.133396
C6    C     C_R   0.001625 0.554048 0.036103 -0.133424
C7    C     C_R   0.999202 0.554145 0.963588 -0.133396
C8    C     C_R   0.505754 0.501442 0.963941 0.381034
C9    C     C_R   0.493469 0.501280 0.036514 0.380802
C10   C     C_R   0.697533 0.866063 0.037944 -0.131953
C11   C     C_R   0.302511 0.866164 0.961989 -0.131683
C12   C     C_R   0.197533 0.366063 0.037944 -0.131953
C13   C     C_R   0.802511 0.366165 0.961990 -0.131683
C14   C     C_R   0.700008 0.852988 0.964672 -0.129256
C15   C     C_R   0.300018 0.853102 0.035261 -0.129437
C16   C     C_R   0.200008 0.352988 0.964672 -0.129256
C17   C     C_R   0.269902 0.376868 0.854261 0.544655
C18   C     C_R   0.800018 0.353103 0.035262 -0.129437
C19   C     C_R   0.751963 0.915271 0.925558 0.022356
C20   C     C_R   0.247912 0.915056 0.074372 0.022145
C21   C     C_R   0.251963 0.415271 0.925558 0.022356
C22   C     C_R   0.747912 0.415056 0.074372 0.022145
C23   C     C_R   0.798669 0.994925 0.959644 -0.132461
C24   C     C_R   0.201005 0.994273 0.040261 -0.132504
C25   C     C_R   0.298669 0.494925 0.959644 -0.132461
C26   C     C_R   0.701005 0.494273 0.040261 -0.132503
C27   C     C_R   0.798080 0.003874 0.031971 -0.130903
C28   C     C_R   0.230073 0.876790 0.145711 0.544718
C29   C     C_R   0.201609 0.003170 0.967937 -0.131127
C30   C     C_R   0.298080 0.503875 0.031971 -0.130903
C31   C     C_R   0.701608 0.503170 0.967937 -0.131127
C32   C     C_R   0.747746 0.939750 0.071982 0.023077
C33   C     C_R   0.252161 0.939498 0.927940 0.022923
C34   C     C_R   0.247747 0.439750 0.071982 0.023077
C35   C     C_R   0.752161 0.439498 0.927940 0.022923
C36   C     C_R   0.536136 0.060794 0.472552 -0.128858
C37   C     C_R   0.526882 0.064729 0.544754 -0.136694
C38   C     C_R   0.036139 0.560801 0.472552 -0.128856
C39   C     C_R   0.769902 0.876869 0.854261 0.544655
C40   C     C_R   0.026885 0.564736 0.544754 -0.136690
C41   C     C_R   0.497626 0.168838 0.576042 0.045657
C42   C     C_R   0.518115 0.162158 0.430366 0.017027
C43   C     C_R   0.997622 0.668839 0.576040 0.045668
C44   C     C_R   0.018112 0.662158 0.430365 0.017024
C45   C     C_R   0.531308 0.155536 0.146642 0.539819
C46   C     C_R   0.468741 0.155598 0.853327 0.540531
C47   C     C_R   0.031308 0.655536 0.146642 0.539819
C48   C     C_R   0.968741 0.655598 0.853327 0.540532
C49   C     C_R   0.482998 0.273230 0.534805 -0.075254
C50   C     C_R   0.509976 0.390906 0.927111 -0.118483
C51   C     C_R   0.493636 0.270021 0.461938 -0.140252
C52   C     C_R   0.982986 0.773223 0.534801 -0.075254
C53   C     C_R   0.993624 0.770015 0.461934 -0.140253
C54   C     C_R   0.789366 0.026763 0.474352 0.364541
C55   C     C_R   0.183227 0.921974 0.543875 0.357492
C56   C     C_R   0.289354 0.526784 0.474356 0.364544
C57   C     C_R   0.683226 0.421983 0.543875 0.357496
C58   C     C_R   0.790091 0.012335 0.546604 -0.092059
C59   C     C_R   0.177341 0.910923 0.471505 -0.092494
C60   C     C_R   0.290079 0.512350 0.546607 -0.092057
C61   C     C_R   0.489552 0.390597 0.073155 -0.119077
C62   C     C_R   0.677340 0.410934 0.471504 -0.092495
C63   C     C_R   0.749931 0.920068 0.577923 -0.033788
C64   C     C_R   0.237881 0.897367 0.429055 -0.020357
C65   C     C_R   0.249930 0.420064 0.577923 -0.033787
C66   C     C_R   0.737880 0.397365 0.429056 -0.020377
C67   C     C_R   0.703369 0.849405 0.536848 -0.161864
C68   C     C_R   0.304453 0.889034 0.460058 -0.100505
C69   C     C_R   0.203378 0.349384 0.536844 -0.161865
C70   C     C_R   0.804451 0.389015 0.460060 -0.100533
C71   C     C_R   0.701080 0.865683 0.463992 -0.208191
C72   C     C_R   0.009976 0.890906 0.927111 -0.118483
C73   C     C_R   0.310681 0.901651 0.532887 -0.173084
C74   C     C_R   0.201089 0.365666 0.463988 -0.208197
C75   C     C_R   0.810678 0.401632 0.532890 -0.173097
C76   C     C_R   0.745681 0.951729 0.432078 0.029023
C77   C     C_R   0.250186 0.922321 0.574757 0.025611
C78   C     C_R   0.245679 0.451733 0.432079 0.029022
C79   C     C_R   0.750184 0.422318 0.574758 0.025613
C80   C     C_R   0.740681 0.972583 0.146097 0.541708
C81   C     C_R   0.259299 0.972547 0.853874 0.545508
C82   C     C_R   0.240681 0.472583 0.146097 0.541707
C83   C     C_R   0.989552 0.890597 0.073155 -0.119077
C84   C     C_R   0.759299 0.472547 0.853874 0.545507
C85   C     C_R   0.727617 0.374054 0.354399 0.548100
C86   C     C_R   0.269715 0.379263 0.648034 0.543226
C87   C     C_R   0.227617 0.874055 0.354399 0.548103
C88   C     C_R   0.769715 0.879264 0.648034 0.543225
C89   C     C_R   0.535648 0.156477 0.355636 0.543272
C90   C     C_R   0.468020 0.157705 0.646595 0.549542
C91   C     C_R   0.035646 0.656478 0.355635 0.543270
C92   C     C_R   0.968020 0.657705 0.646595 0.549546
C93   C     C_R   0.739734 0.978567 0.357076 0.561969
C94   C     C_R   0.005755 0.001442 0.963941 0.381035
C95   C     C_R   0.258716 0.970421 0.645733 0.574105
C96   C     C_R   0.239734 0.478568 0.357076 0.561972
C97   C     C_R   0.758715 0.470420 0.645734 0.574103
C98   C     C_R   0.496790 0.164218 0.925646 0.012361
C99   C     C_R   0.503459 0.164033 0.074249 0.011813
C100  C     C_R   0.996790 0.664218 0.925646 0.012361
C101  C     C_R   0.003458 0.664033 0.074249 0.011813
C102  C     C_R   0.501712 0.277568 0.962523 -0.045996
C103  C     C_R   0.498166 0.277440 0.037557 -0.045525
C104  C     C_R   0.001712 0.777568 0.962523 -0.045996
Cr1   Cr    Cr6+3 0.772000 0.169640 0.250110 1.084237
Cr2   Cr    Cr6+3 0.383330 0.010620 0.749160 1.041680
Cr3   Cr    Cr6+3 0.116670 0.510620 0.250840 1.040527
Cr4   Cr    Cr6+3 0.883330 0.510620 0.749160 1.041680
Cr5   Cr    Cr6+3 0.228000 0.169640 0.749890 1.071963
Cr6   Cr    Cr6+3 0.272000 0.669640 0.250110 1.084236
Cr7   Cr    Cr6+3 0.728000 0.669640 0.749890 1.071964
Cr8   Cr    Cr6+3 0.614960 0.323350 0.249260 1.038418
Cr9   Cr    Cr6+3 0.385040 0.323350 0.750740 1.053790
Cr10  Cr    Cr6+3 0.114960 0.823350 0.249260 1.038423
Cr11  Cr    Cr6+3 0.885040 0.823350 0.750740 1.053791
Cr12  Cr    Cr6+3 0.616670 0.010620 0.250840 1.040523
F1    F     F_    0.831703 0.114888 0.446495 -0.630812
F2    F     F_    0.123761 0.937191 0.583204 -0.629577
F3    F     F_    0.331677 0.614932 0.446501 -0.630811
F4    F     F_    0.623760 0.437212 0.583202 -0.629583
F5    F     F_    0.012549 0.109135 0.928756 -0.632501
F6    F     F_    0.986390 0.108807 0.071885 -0.633667
F7    F     F_    0.512548 0.609135 0.928756 -0.632501
F8    F     F_    0.486390 0.608807 0.071885 -0.633667
H1    H     H_    0.825741 0.068544 0.577558 0.159894
H2    H     H_    0.363096 0.902210 0.555722 0.157086
H3    H     H_    0.165641 0.309909 0.432603 0.142948
H4    H     H_    0.863092 0.402180 0.555726 0.157092
H5    H     H_    0.521665 0.395442 0.871185 0.167461
H6    H     H_    0.477859 0.394864 0.129092 0.163103
H7    H     H_    0.021665 0.895442 0.871185 0.167461
H8    H     H_    0.977859 0.894864 0.129092 0.163103
H9    H     H_    0.656848 0.819005 0.067751 0.152176
H10   H     H_    0.343350 0.819433 0.932197 0.152820
H11   H     H_    0.156848 0.319005 0.067751 0.152176
H12   H     H_    0.124886 0.911634 0.448813 0.162951
H13   H     H_    0.843350 0.319433 0.932197 0.152819
H14   H     H_    0.663372 0.791040 0.939143 0.160284
H15   H     H_    0.336804 0.791505 0.060801 0.160379
H16   H     H_    0.163372 0.291040 0.939143 0.160284
H17   H     H_    0.836804 0.291506 0.060801 0.160379
H18   H     H_    0.838913 0.045147 0.930911 0.163349
H19   H     H_    0.160618 0.044239 0.068969 0.163142
H20   H     H_    0.338913 0.545147 0.930911 0.163350
H21   H     H_    0.660617 0.544238 0.068969 0.163142
H22   H     H_    0.836367 0.064419 0.056134 0.175980
H23   H     H_    0.325722 0.568571 0.577564 0.159887
H24   H     H_    0.163182 0.063396 0.943774 0.175541
H25   H     H_    0.336366 0.564419 0.056134 0.175980
H26   H     H_    0.663182 0.563395 0.943774 0.175541
H27   H     H_    0.558056 0.977846 0.449938 0.149169
H28   H     H_    0.539088 0.983734 0.575584 0.139990
H29   H     H_    0.058063 0.477860 0.449939 0.149177
H30   H     H_    0.039095 0.483746 0.575585 0.139991
H31   H     H_    0.504867 0.965727 0.062105 0.173169
H32   H     H_    0.496379 0.965871 0.937421 0.173199
H33   H     H_    0.004867 0.465727 0.062105 0.173169
H34   H     H_    0.624886 0.411657 0.448811 0.162948
H35   H     H_    0.996378 0.465871 0.937421 0.173199
H36   H     H_    0.459850 0.354610 0.558112 0.166603
H37   H     H_    0.481689 0.350174 0.430347 0.143231
H38   H     H_    0.959831 0.854598 0.558107 0.166594
H39   H     H_    0.981671 0.850161 0.430343 0.143243
H40   H     H_    0.671919 0.777025 0.560250 0.171041
H41   H     H_    0.351254 0.874807 0.428049 0.172655
H42   H     H_    0.171937 0.276989 0.560244 0.171045
H43   H     H_    0.851251 0.374777 0.428053 0.172673
H44   H     H_    0.665623 0.809941 0.432609 0.142948
O1    O     O_R   0.787540 0.042690 0.170470 -0.519279
O2    O     O_R   0.454130 0.051100 0.669160 -0.526135
O3    O     O_R   0.045870 0.551100 0.330840 -0.520632
O4    O     O_R   0.954130 0.551100 0.669160 -0.526133
O5    O     O_R   0.681340 0.959300 0.325510 -0.523435
O6    O     O_R   0.318660 0.959300 0.674490 -0.524070
O7    O     O_R   0.181340 0.459300 0.325510 -0.523432
O8    O     O_R   0.818660 0.459300 0.674490 -0.524072
O9    O     O_3   0.667880 0.167870 0.250070 -0.264649
O10   O     O_3   0.332120 0.167870 0.749930 -0.263537
O11   O     O_3   0.167880 0.667870 0.250070 -0.264649
O12   O     O_R   0.212460 0.042690 0.829530 -0.513262
O13   O     O_3   0.832120 0.667870 0.749930 -0.263537
O14   O     O_R   0.765660 0.292160 0.175050 -0.505235
O15   O     O_R   0.234340 0.292160 0.824950 -0.504247
O16   O     O_R   0.265660 0.792160 0.175050 -0.505237
O17   O     O_R   0.734340 0.792160 0.824950 -0.504247
O18   O     O_R   0.670190 0.408980 0.168550 -0.513587
O19   O     O_R   0.329810 0.408980 0.831450 -0.514128
O20   O     O_R   0.170190 0.908980 0.168550 -0.513587
O21   O     O_R   0.829810 0.908980 0.831450 -0.514128
O22   O     O_R   0.556580 0.251450 0.175160 -0.506553
O23   O     O_R   0.287540 0.542690 0.170470 -0.519280
O24   O     O_R   0.443420 0.251450 0.824840 -0.505541
O25   O     O_R   0.056580 0.751450 0.175160 -0.506554
O26   O     O_R   0.943420 0.751450 0.824840 -0.505540
O27   O     O_R   0.545920 0.049510 0.170320 -0.511001
O28   O     O_R   0.454080 0.049510 0.829680 -0.512215
O29   O     O_R   0.045920 0.549510 0.170320 -0.511001
O30   O     O_R   0.954080 0.549510 0.829680 -0.512215
O31   O     O_R   0.681390 0.957840 0.176710 -0.499641
O32   O     O_R   0.318610 0.957840 0.823290 -0.500149
O33   O     O_R   0.181390 0.457840 0.176710 -0.499641
O34   O     O_R   0.712460 0.542690 0.829530 -0.513263
O35   O     O_R   0.818610 0.457840 0.823290 -0.500150
O36   O     O_R   0.787500 0.044280 0.330990 -0.437783
O37   O     O_R   0.212500 0.044280 0.669010 -0.446043
O38   O     O_R   0.287500 0.544280 0.330990 -0.437794
O39   O     O_R   0.712500 0.544280 0.669010 -0.446034
O40   O     O_R   0.765610 0.293630 0.323860 -0.467317
O41   O     O_R   0.234390 0.293630 0.676140 -0.502615
O42   O     O_R   0.265610 0.793630 0.323860 -0.467302
O43   O     O_R   0.734390 0.793630 0.676140 -0.502612
O44   O     O_R   0.670140 0.410570 0.329080 -0.530330
O45   O     O_R   0.556540 0.252920 0.323970 -0.506899
O46   O     O_R   0.329860 0.410570 0.670920 -0.522430
O47   O     O_R   0.170140 0.910570 0.329080 -0.530333
O48   O     O_R   0.829860 0.910570 0.670920 -0.522437
O49   O     O_R   0.443460 0.252920 0.676030 -0.493908
O50   O     O_R   0.056540 0.752920 0.323970 -0.506896
O51   O     O_R   0.943460 0.752920 0.676030 -0.493906
O52   O     O_R   0.545870 0.051100 0.330840 -0.520634

loop_
_geom_bond_atom_site_label_1
_geom_bond_atom_site_label_2
_ccdc_geom_bond_type
C3    C104  A    
C45   O27   A    
C99   C103  A    
C85   O44   A    
C95   O37   A    
C16   C21   A    
C47   C101  S    
C96   O7    A    
C55   C59   A    
C82   O23   A    
C61   C103  A    
C57   C79   A    
C36   C42   A    
C10   H9    S    
Cr7   O13   S    
C40   H30   S    
C81   O32   A    
Cr10  O20   S    
C57   C62   A    
Cr3   O3    S    
C1    O18   A    
C59   C64   A    
C12   C16   A    
Cr1   O1    S    
C13   C18   A    
Cr1   O40   S    
C9    C61   A    
Cr8   O44   S    
Cr2   O32   S    
C36   C37   A    
Cr10  O25   S    
C95   O6    A    
C92   O4    A    
Cr3   O33   S    
Cr4   O35   S    
C28   O20   A    
Cr8   O18   S    
C71   C76   A    
C39   O21   A    
C43   C52   A    
C7    H35   S    
C24   H19   S    
C73   H2    S    
Cr9   O19   S    
C29   C33   A    
C59   H12   S    
C100  C104  A    
C9    F8    S    
C56   C78   A    
C75   H4    S    
C6    C101  A    
C41   C49   A    
C93   O36   A    
C69   H42   S    
C90   O49   A    
C24   C29   A    
Cr12  O27   S    
C11   C15   A    
Cr5   O10   S    
C40   C43   A    
Cr6   O23   S    
C14   H14   S    
C78   C96   S    
C8    C9    A    
C49   C51   A    
C88   O43   A    
C62   H34   S    
C23   H18   S    
C51   H37   S    
C60   H23   S    
C23   C27   A    
Cr1   O14   S    
Cr12  O52   S    
C64   C87   S    
C15   H15   S    
C42   C51   A    
C48   O26   A    
C68   H41   S    
Cr5   O15   S    
C65   C86   S    
Cr9   O10   S    
C46   C98   S    
Cr6   O16   S    
C1    C22   S    
C97   O8    A    
Cr12  O9    S    
Cr4   O30   S    
Cr2   O2    S    
Cr11  O51   S    
C2    C83   A    
Cr6   O42   S    
Cr9   O46   S    
Cr10  O50   S    
Cr5   O41   S    
C67   H40   S    
Cr7   O34   S    
Cr9   O49   S    
Cr11  O13   S    
C79   C97   S    
C80   O1    A    
C2    F6    S    
Cr2   O6    S    
C15   C20   A    
C48   C100  S    
C66   C85   S    
C63   C67   A    
Cr7   O17   S    
C7    C100  A    
C62   C66   A    
C20   C24   A    
C2    C94   A    
C81   O12   A    
Cr6   O38   S    
C45   C99   S    
C11   H10   S    
Cr1   O9    S    
Cr3   O29   S    
C31   H26   S    
C30   C34   A    
C53   H39   S    
C30   H25   S    
Cr2   O28   S    
C20   C28   S    
C68   C73   A    
C98   C102  A    
C80   O31   A    
C77   C95   S    
C17   C21   S    
C56   C60   A    
C48   O30   A    
C13   H13   S    
C92   O51   A    
C19   C23   A    
C86   O46   A    
C38   C44   A    
C50   H5    S    
C32   C80   S    
C76   C93   S    
C12   H11   S    
C63   C88   S    
C17   O15   A    
C96   O38   A    
C74   H3    S    
C11   C33   A    
C35   C84   S    
C90   O2    A    
C44   C53   A    
C69   C74   A    
C49   H36   S    
Cr8   O45   S    
C97   O39   A    
C86   O41   A    
Cr5   O37   S    
C44   C91   S    
C19   C39   S    
C61   H6    S    
C57   F4    S    
C54   C76   A    
Cr12  O5    S    
C84   O35   A    
Cr11  O26   S    
C60   C65   A    
C50   C102  A    
C71   H44   S    
Cr4   O4    S    
C55   C77   A    
C10   C14   A    
C87   O42   A    
C31   C35   A    
C54   F1    S    
C25   H20   S    
C75   C79   A    
C37   H28   S    
C12   C34   A    
C64   C68   A    
Cr7   O39   S    
C16   H16   S    
C6    H33   S    
C52   C53   A    
C72   H7    S    
C89   O45   A    
C54   C58   A    
C84   O34   A    
C25   C30   A    
Cr12  O31   S    
Cr9   O24   S    
C21   C25   A    
C87   O47   A    
C88   O48   A    
Cr3   O11   S    
C27   C32   A    
C18   C22   A    
C14   C19   A    
C47   O25   A    
C18   H17   S    
C58   C63   A    
C26   H21   S    
C46   O24   A    
C4    C5    A    
Cr1   O36   S    
C82   O33   A    
C1    O14   A    
C36   H27   S    
C13   C35   A    
C6    C7    A    
Cr11  O21   S    
C5    H32   S    
C72   C104  A    
C74   C78   A    
C43   C92   S    
C91   O3    A    
C29   H24   S    
C42   C89   S    
C91   O50   A    
C28   O16   A    
C72   C94   A    
C83   H8    S    
C70   H43   S    
C89   O52   A    
C38   C40   A    
Cr5   O12   S    
C3    C101  A    
C66   C70   A    
Cr3   O7    S    
Cr6   O11   S    
C17   O19   A    
C27   H22   S    
C65   C69   A    
Cr4   O8    S    
C93   O5    A    
C56   F3    S    
Cr11  O48   S    
C41   C90   S    
C8    C50   A    
C67   C71   A    
C8    F7    S    
C37   C41   A    
C102  C103  A    
Cr10  O47   S    
Cr7   O43   S    
Cr8   O22   S    
C39   O17   A    
C94   F5    S    
C10   C32   A    
C45   O22   A    
C26   C31   A    
C4    H31   S    
C3    C83   A    
C5    C98   A    
C70   C75   A    
C58   H1    S    
Cr10  O11   S    
C22   C26   A    
C4    C99   A    
Cr4   O13   S    
C46   O28   A    
C73   C77   A    
C47   O29   A    
C34   C82   S    
C38   H29   S    
C33   C81   S    
Cr2   O10   S    
C85   O40   A    
C52   H38   S    
Cr8   O9    S    
C55   F2    S    
