data_mof_unit_43011.cif
_audit_creation_date              2012-12-10T17:28:33-0500
_audit_creation_method            fapswitch 2.2
_symmetry_space_group_name_H-M    P1
_symmetry_Int_Tables_number       1
_space_group_crystal_system       triclinic
_cell_length_a                    10.677695
_cell_length_b                    12.089921
_cell_length_c                    12.891079
_cell_angle_alpha                 93.547129
_cell_angle_beta                  89.197876
_cell_angle_gamma                 86.210729
_cell_volume                      1657.04893496

loop_
_atom_site_label
_atom_site_type_symbol
_atom_type_description
_atom_site_fract_x
_atom_site_fract_y
_atom_site_fract_z
_atom_type_partial_charge
C1    C     C_R   0.489549 0.522083 0.699827 0.859713
C2    C     C_R   0.506156 0.478306 0.299755 0.870436
C3    C     C_R   0.505031 0.466132 0.188009 -0.048169
C4    C     C_R   0.474797 0.537374 0.811095 -0.095045
C5    C     C_R   0.531745 0.641847 0.964640 -0.234241
C6    C     C_R   0.413074 0.375684 0.039603 -0.216430
C7    C     C_R   0.517504 0.633698 0.859079 -0.249795
C8    C     C_R   0.439629 0.379715 0.143678 -0.279917
C9    C     C_R   0.425532 0.455033 0.870120 0.091765
C10   C     C_R   0.551488 0.548589 0.127012 0.108591
C11   C     C_R   0.449295 0.459611 0.977416 0.132460
C12   C     C_R   0.512645 0.550213 0.023272 0.100492
C13   C     C_R   0.377081 0.954460 0.409378 -0.237689
C14   C     C_R   0.623468 0.045462 0.590060 -0.233660
C15   C     C_R   0.385567 0.838669 0.413995 -0.085388
C16   C     C_R   0.615466 0.161167 0.584990 -0.101111
C17   C     C_R   0.557006 0.860744 0.540183 -0.096915
C18   C     C_R   0.442571 0.139318 0.460195 -0.098866
C19   C     C_R   0.545347 0.976636 0.532884 0.106979
C20   C     C_R   0.454464 0.023389 0.467252 0.106206
C21   C     C_R   0.739213 0.499530 0.499238 0.862573
C22   C     C_R   0.261111 0.499950 0.500917 0.867128
C23   C     C_R   0.885794 0.369621 0.341079 -0.170923
C24   C     C_R   0.118689 0.605275 0.672190 -0.162804
C25   C     C_R   0.957346 0.315569 0.259620 -0.139952
C26   C     C_R   0.047838 0.657132 0.755124 -0.135713
C27   C     C_R   0.085865 0.325795 0.254844 -0.149118
C28   C     C_R   0.917756 0.657756 0.754296 -0.149971
C29   C     C_R   0.143281 0.387714 0.332987 -0.153820
C30   C     C_R   0.858383 0.606200 0.670688 -0.158006
C31   C     C_R   0.072403 0.440627 0.418324 0.082873
C32   C     C_R   0.928926 0.553558 0.585062 0.082932
C33   C     C_R   0.942166 0.435351 0.420472 0.073373
C34   C     C_R   0.059829 0.553397 0.585733 0.069816
C35   C     C_R   0.128853 0.499266 0.501062 -0.192669
C36   C     C_R   0.872047 0.497279 0.500895 -0.193814
H1    H     H_    0.862622 0.697164 0.819145 0.134314
H2    H     H_    0.141357 0.285500 0.190624 0.128717
H3    H     H_    0.307629 0.990624 0.358757 0.147040
H4    H     H_    0.693482 0.009251 0.640157 0.147690
H5    H     H_    0.786002 0.360363 0.339101 0.158896
H6    H     H_    0.219621 0.605262 0.677513 0.136157
H7    H     H_    0.912464 0.267041 0.199186 0.137460
H8    H     H_    0.094145 0.696140 0.820572 0.138549
H9    H     H_    0.243387 0.393796 0.325322 0.138650
H10   H     H_    0.757224 0.606431 0.675275 0.144766
H11   H     H_    0.404467 0.316751 0.190627 0.160948
H12   H     H_    0.545525 0.701395 0.814500 0.168943
H13   H     H_    0.559226 0.720455 0.997974 0.141251
H14   H     H_    0.360649 0.307608 0.010502 0.157259
H15   H     H_    0.373719 0.177479 0.410238 0.145115
H16   H     H_    0.625609 0.822623 0.590380 0.143619
H17   H     H_    0.568461 0.226091 0.552193 0.298669
H18   H     H_    0.431874 0.773861 0.447500 0.294273
N1    N     N_R   0.523130 0.207800 0.519340 -0.274512
N2    N     N_R   0.476870 0.792200 0.480660 -0.274426
O1    O     O_R   0.506170 0.421700 0.658830 -0.610020
O2    O     O_R   0.493830 0.578300 0.341170 -0.622674
O3    O     O_R   0.491330 0.609310 0.646410 -0.633746
O4    O     O_R   0.508670 0.390690 0.353590 -0.634009
O5    O     O_R   0.690650 0.406190 0.506220 -0.621112
O6    O     O_R   0.309350 0.593810 0.493780 -0.617675
O7    O     O_R   0.675800 0.593810 0.493800 -0.616589
O8    O     O_R   0.324200 0.406190 0.506200 -0.622468
Zn1   Zn    Zn3+2 0.509910 0.374730 0.508290 0.922895
Zn2   Zn    Zn3+2 0.490090 0.625270 0.491710 0.926883
C37   C     C_3   0.645760 0.630200 0.170094 -0.417466
C38   C     C_3   0.760741 0.571876 0.216297 -0.837042
H19   H     H_    0.736540 0.543657 0.293072 0.254532
H20   H     H_    0.797600 0.500423 0.163828 0.259179
H21   H     H_    0.835729 0.630691 0.227828 0.251225
H22   H     H_    0.686405 0.678313 0.109500 0.199984
H23   H     H_    0.599847 0.692449 0.227715 0.237356
C39   C     C_3   0.344408 0.367721 0.819482 -0.397596
C40   C     C_3   0.416483 0.254273 0.798446 -0.771970
H24   H     H_    0.371926 0.206963 0.733875 0.249343
H25   H     H_    0.515968 0.263595 0.776748 0.276350
H26   H     H_    0.415086 0.204100 0.867465 0.222924
H27   H     H_    0.259375 0.359055 0.868120 0.185849
H28   H     H_    0.305611 0.395923 0.745358 0.211150

loop_
_geom_bond_atom_site_label_1
_geom_bond_atom_site_label_2
_ccdc_geom_bond_type
C27   C29   A    
C24   H6    S    
C19   C20   A    
C25   H7    S    
C26   H8    S    
C21   C36   S    
C10   C37   S    
C22   C35   S    
C32   C36   A    
C24   C26   A    
C37   H22   S    
C1    O3    A    
O3    Zn2   S    
C2    O4    A    
C27   H2    S    
C33   C36   A    
C34   C35   A    
C16   H17   S    
O2    Zn2   S    
C38   H19   S    
C23   C33   A    
C31   C33   A    
C37   H23   S    
C21   O5    A    
O7    Zn2   S    
C39   H28   S    
C5    H13   S    
C4    C7    A    
C17   H16   S    
N1    Zn1   S    
C18   H15   S    
C21   O7    A    
C39   C40   S    
O6    Zn2   S    
C37   C38   S    
C15   H18   S    
C5    C12   A    
C3    C8    A    
C6    C11   A    
C5    C7    A    
C6    C8    A    
C40   H26   S    
C22   O8    A    
C24   C34   A    
C29   H9    S    
C32   C34   A    
C40   H24   S    
C1    O1    A    
C22   O6    A    
C40   H25   S    
C6    H14   S    
C9    C11   A    
C17   N2    A    
C10   C12   A    
C18   N1    A    
C16   N1    A    
O4    Zn1   S    
C39   H27   S    
C13   C15   A    
C14   C16   A    
C9    C39   S    
C13   C20   A    
C14   C19   A    
C30   H10   S    
O1    Zn1   S    
C11   C12   A    
C2    O2    A    
C25   C27   A    
C26   C28   A    
C23   H5    S    
C1    C4    S    
O8    Zn1   S    
C28   C30   A    
C2    C3    S    
C8    H11   S    
C29   C31   A    
C3    C10   A    
C7    H12   S    
C30   C32   A    
C28   H1    S    
C38   H21   S    
N2    Zn2   S    
C31   C35   A    
C17   C19   A    
C18   C20   A    
C23   C25   A    
C15   N2    A    
C13   H3    S    
C14   H4    S    
O5    Zn1   S    
C38   H20   S    
C4    C9    A    
