data_mof_unit_63776.cif
_audit_creation_date              2013-03-05T16:26:20-0500
_audit_creation_method            fapswitch 2.2
_symmetry_space_group_name_H-M    P1
_symmetry_Int_Tables_number       1
_space_group_crystal_system       triclinic
_cell_length_a                    30.780912
_cell_length_b                    30.497654
_cell_length_c                    22.147715
_cell_angle_alpha                 90.145368
_cell_angle_beta                  46.384327
_cell_angle_gamma                 89.946552
_cell_volume                      15052.2334828

loop_
_atom_site_label
_atom_site_type_symbol
_atom_site_description
_atom_site_fract_x
_atom_site_fract_y
_atom_site_fract_z
_atom_type_partial_charge
O1    O     O_R   0.178350 0.230070 0.500010 -0.569451
O2    O     O_R   0.821650 0.230070 0.499990 -0.569726
O3    O     O_R   0.678350 0.730070 0.500010 -0.586404
O4    O     O_R   0.321650 0.730070 0.499990 -0.563179
O5    O     O_R   0.230030 0.178320 0.500020 -0.590604
O6    O     O_R   0.769970 0.178320 0.499980 -0.587186
O7    O     O_R   0.730030 0.678320 0.500020 -0.572248
O8    O     O_R   0.269970 0.678320 0.499980 -0.611396
C1    C     C_R   0.190935 0.189834 0.498501 0.952416
C2    C     C_R   0.808989 0.189858 0.501614 0.950697
C3    C     C_R   0.689455 0.689821 0.501390 0.963302
C4    C     C_R   0.310846 0.689968 0.497623 0.979144
O9    O     O_R   0.285150 0.275890 0.378020 -0.594702
O10   O     O_R   0.714850 0.275890 0.621980 -0.576471
O11   O     O_R   0.785150 0.775890 0.378020 -0.564864
O12   O     O_R   0.214850 0.775890 0.621980 -0.587306
O13   O     O_R   0.336840 0.224130 0.378040 -0.590450
O14   O     O_R   0.663160 0.224130 0.621960 -0.593358
O15   O     O_R   0.836840 0.724130 0.378040 -0.619906
O16   O     O_R   0.163160 0.724130 0.621960 -0.592871
C5    C     C_R   0.330027 0.249594 0.339023 0.929447
C6    C     C_R   0.669825 0.249908 0.660966 0.916066
C7    C     C_R   0.830449 0.750029 0.339017 0.888629
C8    C     C_R   0.170073 0.749681 0.660952 0.940841
Zn1   Zn    Zn3+2 0.215490 0.284560 0.500000 1.214599
Zn2   Zn    Zn3+2 0.784510 0.284560 0.500000 1.215900
Zn3   Zn    Zn3+2 0.715490 0.784560 0.500000 1.225105
Zn4   Zn    Zn3+2 0.284510 0.784560 0.500000 1.196291
Zn5   Zn    Zn3+2 0.284510 0.215440 0.500020 1.163445
Zn6   Zn    Zn3+2 0.715490 0.215440 0.499980 1.180390
Zn7   Zn    Zn3+2 0.784510 0.715440 0.500020 1.173383
Zn8   Zn    Zn3+2 0.215490 0.715440 0.499980 1.180288
O17   O     O_R   0.269970 0.321680 0.499990 -0.584989
O18   O     O_R   0.730030 0.321680 0.500010 -0.582491
O19   O     O_R   0.769970 0.821680 0.499990 -0.561490
O20   O     O_R   0.230030 0.821680 0.500010 -0.603774
O21   O     O_R   0.321650 0.269930 0.500010 -0.599134
O22   O     O_R   0.678350 0.269930 0.499990 -0.587261
O23   O     O_R   0.821650 0.769930 0.500010 -0.599275
O24   O     O_R   0.178350 0.769930 0.499990 -0.579201
O25   O     O_R   0.163160 0.275870 0.621980 -0.574936
O26   O     O_R   0.836840 0.275870 0.378020 -0.585561
O27   O     O_R   0.663160 0.775870 0.621980 -0.584310
O28   O     O_R   0.336840 0.775870 0.378020 -0.589480
O29   O     O_R   0.214850 0.224110 0.621990 -0.605452
O30   O     O_R   0.785150 0.224110 0.378010 -0.595782
O31   O     O_R   0.714850 0.724110 0.621990 -0.580568
O32   O     O_R   0.285150 0.724110 0.378010 -0.593537
C9    C     C_R   0.310104 0.309940 0.499210 0.989366
C10   C     C_R   0.689668 0.310043 0.500823 0.972917
C11   C     C_R   0.810269 0.809986 0.499042 0.959159
C12   C     C_R   0.190096 0.810079 0.500336 1.003241
C13   C     C_R   0.169499 0.249979 0.661066 0.879314
C14   C     C_R   0.830586 0.249707 0.338962 0.873447
C15   C     C_R   0.669502 0.749981 0.661072 0.885255
C16   C     C_R   0.330404 0.749892 0.338964 0.890335
C17   C     C_R   0.507443 0.212265 0.955374 0.198309
C18   C     C_R   0.461151 0.213231 0.042858 0.195567
C19   C     C_R   0.009726 0.711648 0.955774 0.203986
C20   C     C_R   0.963419 0.712712 0.043246 0.204169
C21   C     C_R   0.546673 0.248217 0.913152 -0.181201
C22   C     C_R   0.454842 0.250108 0.086827 -0.184208
C23   C     C_R   0.047065 0.748468 0.913149 -0.181103
C24   C     C_R   0.955213 0.750549 0.086819 -0.182104
C25   C     C_R   0.540468 0.285036 0.957152 0.198226
C26   C     C_R   0.494224 0.285975 0.044633 0.195938
C27   C     C_R   0.038898 0.786289 0.956730 0.205472
C28   C     C_R   0.992636 0.787334 0.044212 0.191589
C29   C     C_1   0.590272 0.248920 0.823926 0.187382
C30   C     C_1   0.410702 0.249684 0.176047 0.189498
C31   C     C_1   0.090623 0.748864 0.823918 0.198521
C32   C     C_1   0.911217 0.750309 0.176051 0.187261
C33   C     C_1   0.373847 0.249487 0.250629 0.013187
C34   C     C_1   0.626593 0.249471 0.749352 0.005170
C35   C     C_1   0.874398 0.750106 0.250638 -0.009537
C36   C     C_1   0.126902 0.749251 0.749343 0.023588
C37   C     C_R   0.097914 0.152246 0.565483 -0.242161
C38   C     C_R   0.901749 0.151579 0.434372 -0.239893
C39   C     C_R   0.646664 0.659329 0.450129 -0.179961
C40   C     C_R   0.380001 0.628725 0.433127 -0.216701
C41   C     C_R   0.159284 0.155950 0.498250 -0.177922
C42   C     C_R   0.840535 0.155982 0.502059 -0.178327
C43   C     C_R   0.657617 0.656010 0.501141 -0.230289
C44   C     C_R   0.340995 0.656558 0.500832 -0.171343
C45   C     C_R   0.191066 0.121916 0.439231 0.602990
C46   C     C_R   0.808686 0.122528 0.561730 0.601748
C47   C     C_R   0.643093 0.616889 0.545193 0.621676
C48   C     C_R   0.326582 0.649122 0.574999 0.598985
C49   C     C_R   0.159663 0.087845 0.440937 0.167352
C50   C     C_R   0.840036 0.088399 0.560129 0.168924
C51   C     C_R   0.610658 0.584278 0.546171 0.175694
C52   C     C_R   0.358154 0.617445 0.577252 0.216539
C53   C     C_R   0.096104 0.088875 0.502696 -0.211174
C54   C     C_R   0.903589 0.088831 0.497810 -0.209739
C55   C     C_R   0.594879 0.590825 0.500166 -0.242188
C56   C     C_R   0.404868 0.593492 0.503078 -0.192759
C57   C     C_R   0.066627 0.118895 0.568357 -0.115823
C58   C     C_R   0.932973 0.118186 0.431604 -0.108332
C59   C     C_R   0.617875 0.626669 0.447233 -0.114505
C60   C     C_R   0.412169 0.597813 0.433796 -0.143098
C61   C     C_3   0.012590 0.147515 0.609629 0.702246
C62   C     C_3   0.987408 0.146332 0.389011 0.697767
C63   C     C_3   0.592467 0.657776 0.425689 0.711263
C64   C     C_3   0.467410 0.604633 0.343101 0.744498
C65   C     C_3   0.047996 0.184678 0.605559 0.712305
C66   C     C_3   0.952033 0.183572 0.393015 0.708837
C67   C     C_3   0.624703 0.694593 0.429322 0.713197
C68   C     C_3   0.431275 0.638944 0.342718 0.673728
C69   C     C_R   0.017499 0.245184 0.043891 0.562563
C70   C     C_R   0.982661 0.252728 0.956131 0.564362
C71   C     C_R   0.515429 0.737669 0.044061 0.574299
C72   C     C_R   0.484259 0.762014 0.956064 0.554932
C73   C     C_R   0.956711 0.248740 0.086835 -0.406538
C74   C     C_R   0.043457 0.249268 0.913187 -0.400240
C75   C     C_R   0.456316 0.749719 0.086878 -0.405190
C76   C     C_R   0.543364 0.749922 0.913233 -0.396097
C77   C     C_R   0.939229 0.252488 0.043075 0.569179
C78   C     C_R   0.060934 0.245464 0.956945 0.560790
C79   C     C_R   0.440680 0.761933 0.043008 0.571715
C80   C     C_R   0.559016 0.737783 0.957118 0.567774
C81   C     C_1   0.912287 0.248842 0.175807 0.321039
C82   C     C_1   0.087909 0.249601 0.824215 0.317830
C83   C     C_1   0.411742 0.749661 0.175833 0.336338
C84   C     C_1   0.587928 0.749915 0.824250 0.318791
C85   C     C_1   0.125222 0.249823 0.749576 -0.004931
C86   C     C_1   0.874945 0.249136 0.250450 -0.001020
C87   C     C_1   0.625267 0.749913 0.749600 -0.003647
C88   C     C_1   0.374446 0.749691 0.250467 0.019249
C89   C     C_R   0.318533 0.367411 0.564852 -0.183105
C90   C     C_R   0.643966 0.338640 0.453947 -0.131103
C91   C     C_R   0.839463 0.846200 0.562906 -0.142126
C92   C     C_R   0.185689 0.872908 0.439123 -0.169482
C93   C     C_R   0.344588 0.342607 0.494892 -0.203821
C94   C     C_R   0.653652 0.342502 0.506510 -0.242847
C95   C     C_R   0.844820 0.842510 0.495492 -0.232750
C96   C     C_R   0.155944 0.843624 0.504930 -0.210570
C97   C     C_R   0.406154 0.348481 0.422744 0.177041
C98   C     C_R   0.625447 0.376567 0.566429 0.190330
C99   C     C_R   0.889539 0.866174 0.421784 0.178357
C100  C     C_R   0.093855 0.847974 0.574986 0.182647
C101  C     C_R   0.438541 0.380159 0.424419 0.655311
C102  C     C_R   0.594384 0.409048 0.564183 0.612778
C103  C     C_R   0.921758 0.897977 0.422782 0.627896
C104  C     C_R   0.061804 0.879485 0.573140 0.628724
C105  C     C_R   0.409726 0.405098 0.497699 -0.224153
C106  C     C_R   0.592435 0.407498 0.502575 -0.208727
C107  C     C_R   0.909267 0.905720 0.496419 -0.213518
C108  C     C_R   0.091595 0.905874 0.501970 -0.271114
C109  C     C_R   0.349970 0.396667 0.567095 -0.165955
C110  C     C_R   0.613795 0.370708 0.451937 -0.191210
C111  C     C_R   0.871033 0.877483 0.563678 -0.174656
C112  C     C_R   0.153735 0.903169 0.436771 -0.113314
C113  C     C_3   0.296799 0.410042 0.655433 0.731505
C114  C     C_3   0.652143 0.365668 0.359906 0.710458
C115  C     C_3   0.820672 0.885636 0.655742 0.718465
C116  C     C_3   0.193212 0.897160 0.344419 0.740076
C117  C     C_3   0.261120 0.375851 0.652535 0.669524
C118  C     C_3   0.685975 0.329873 0.362013 0.680928
C119  C     C_3   0.785532 0.850695 0.654628 0.657144
C120  C     C_3   0.229221 0.864123 0.347186 0.641464
O33   O     O_R   0.580260 0.454160 0.431100 -0.576610
O34   O     O_R   0.419740 0.454160 0.568900 -0.596105
O35   O     O_R   0.080260 0.954160 0.431100 -0.586386
O36   O     O_R   0.919740 0.954160 0.568900 -0.566836
O37   O     O_R   0.511410 0.454120 0.568820 -0.570978
O38   O     O_R   0.488590 0.454120 0.431180 -0.550873
O39   O     O_R   0.011410 0.954120 0.568820 -0.565145
O40   O     O_R   0.988590 0.954120 0.431180 -0.569838
C121  C     C_R   0.560726 0.440464 0.500244 0.954079
C122  C     C_R   0.440638 0.439124 0.499578 0.960725
C123  C     C_R   0.059209 0.938734 0.500167 0.960214
C124  C     C_R   0.939665 0.940002 0.499434 0.968671
O41   O     O_R   0.080260 0.045800 0.431140 -0.577981
O42   O     O_R   0.919740 0.045800 0.568860 -0.583933
O43   O     O_R   0.580260 0.545800 0.431140 -0.587848
O44   O     O_R   0.419740 0.545800 0.568860 -0.595635
O45   O     O_R   0.011410 0.045760 0.568860 -0.598346
O46   O     O_R   0.988590 0.045760 0.431140 -0.588181
O47   O     O_R   0.511410 0.545760 0.568860 -0.562263
O48   O     O_R   0.488590 0.545760 0.431140 -0.573584
C125  C     C_R   0.060881 0.059327 0.500489 0.992332
C126  C     C_R   0.938975 0.059283 0.499713 0.992061
C127  C     C_R   0.560513 0.559528 0.500322 0.941873
C128  C     C_R   0.440242 0.561140 0.500480 0.964993
Zn9   Zn    Zn3+2 0.045990 1.000000 0.408050 1.266164
Zn10  Zn    Zn3+2 0.954010 1.000000 0.591950 1.253116
Zn11  Zn    Zn3+2 0.545990 0.500000 0.408050 1.271085
Zn12  Zn    Zn3+2 0.454010 0.500000 0.591950 1.247333
N1    N     N_R   0.422152 0.176071 0.087056 0.256967
O49   O     O_R   0.364215 0.181383 0.144484 -0.284513
O50   O     O_R   0.444512 0.136740 0.070141 -0.219855
N2    N     N_R   0.513011 0.175610 0.909370 0.251702
O51   O     O_R   0.564739 0.156580 0.851553 -0.271611
O52   O     O_R   0.466329 0.161215 0.924985 -0.237742
N3    N     N_R   0.926330 0.674774 0.087854 0.250551
O53   O     O_R   0.868166 0.678567 0.145094 -0.284712
O54   O     O_R   0.950658 0.636258 0.071439 -0.244510
N4    N     N_R   0.017189 0.673913 0.910188 0.253664
O55   O     O_R   0.069860 0.656082 0.852534 -0.288206
O56   O     O_R   0.971299 0.657338 0.925993 -0.229164
F1    F     F_    0.034574 0.241532 0.086171 -0.506915
F2    F     F_    0.965582 0.256361 0.913854 -0.504311
F3    F     F_    0.530744 0.725889 0.086450 -0.496800
F4    F     F_    0.468952 0.773826 0.913679 -0.523765
N5    N     N_R   0.435379 0.323908 0.347663 0.242542
O57   O     O_R   0.409431 0.318980 0.320404 -0.372208
O58   O     O_R   0.490467 0.310497 0.301576 -0.198557
N6    N     N_R   0.628049 0.378506 0.628768 0.252709
O59   O     O_R   0.619316 0.343343 0.669022 -0.379947
O60   O     O_R   0.633164 0.416040 0.651420 -0.186973
N7    N     N_R   0.902215 0.858843 0.346712 0.226305
O61   O     O_R   0.859070 0.858015 0.348567 -0.313436
O62   O     O_R   0.957497 0.857891 0.274832 -0.216546
N8    N     N_R   0.063251 0.820586 0.647038 0.241616
O63   O     O_R   0.009871 0.805705 0.686372 -0.206239
O64   O     O_R   0.086013 0.814073 0.678508 -0.400211
F5    F     F_    0.497137 0.387098 0.354372 -0.526775
F6    F     F_    0.567215 0.442357 0.620660 -0.545445
F7    F     F_    0.961469 0.923404 0.354229 -0.551250
F8    F     F_    0.001666 0.883456 0.639590 -0.540573
N9    N     N_R   0.301795 0.398903 0.714719 0.242535
O65   O     O_R   0.350907 0.382168 0.689735 -0.320568
O66   O     O_R   0.256165 0.405552 0.793975 -0.215083
N10   N     N_R   0.619461 0.349239 0.338564 0.255612
O67   O     O_R   0.561149 0.346819 0.394566 -0.324971
O68   O     O_R   0.648871 0.338640 0.261720 -0.172702
N11   N     N_R   0.834909 0.872975 0.704179 0.246871
O69   O     O_R   0.889955 0.864979 0.667828 -0.271850
O70   O     O_R   0.792538 0.872522 0.785178 -0.197941
N12   N     N_R   0.162160 0.877951 0.322074 0.218759
O71   O     O_R   0.126077 0.844798 0.363137 -0.322850
O72   O     O_R   0.169553 0.894738 0.261583 -0.216069
F9    F     F_    0.280131 0.453331 0.662238 -0.587764
F10   F     F_    0.685658 0.402666 0.314729 -0.573131
F11   F     F_    0.796910 0.927610 0.675078 -0.554337
F12   F     F_    0.224408 0.934933 0.299911 -0.529466
F13   F     F_    0.242117 0.339716 0.703410 -0.601256
F14   F     F_    0.678854 0.288028 0.345279 -0.567037
F15   F     F_    0.774629 0.812705 0.697534 -0.573167
F16   F     F_    0.227081 0.821285 0.328022 -0.596699
N13   N     N_R   0.214266 0.394343 0.658654 0.229773
O73   O     O_R   0.226768 0.424656 0.607374 -0.279972
O74   O     O_R   0.159925 0.379055 0.713491 -0.259447
N14   N     N_R   0.748805 0.340471 0.314780 0.202288
O75   O     O_R   0.763002 0.376085 0.330331 -0.321054
O76   O     O_R   0.791290 0.314690 0.254716 -0.265198
N15   N     N_R   0.732010 0.867304 0.674801 0.214927
O77   O     O_R   0.735398 0.900261 0.634446 -0.280804
O78   O     O_R   0.680320 0.848780 0.733390 -0.289305
N16   N     N_R   0.290315 0.878215 0.303259 0.236368
O79   O     O_R   0.299828 0.914651 0.323336 -0.256234
O80   O     O_R   0.335785 0.853592 0.244822 -0.275090
N17   N     N_R   0.579460 0.322200 0.912982 0.258471
O81   O     O_R   0.557122 0.361561 0.930267 -0.224595
O82   O     O_R   0.637375 0.316854 0.855152 -0.280253
N18   N     N_R   0.488796 0.322553 0.090652 0.262693
O83   O     O_R   0.535448 0.336574 0.075458 -0.210359
O84   O     O_R   0.437249 0.341910 0.147987 -0.274945
N19   N     N_R   0.075878 0.824268 0.912114 0.254269
O85   O     O_R   0.051455 0.862766 0.928761 -0.240074
O86   O     O_R   0.134034 0.820515 0.854496 -0.290865
N20   N     N_R   0.985217 0.825052 0.089799 0.258122
O87   O     O_R   0.031131 0.841584 0.073977 -0.219227
O88   O     O_R   0.932611 0.843015 0.147230 -0.261321
F17   F     F_    0.252044 0.122524 0.379479 -0.574088
F18   F     F_    0.747728 0.123756 0.621941 -0.574029
F19   F     F_    0.656167 0.611773 0.592186 -0.572134
F20   F     F_    0.284337 0.674246 0.643463 -0.590884
N21   N     N_R   0.192179 0.052648 0.381325 0.261694
O89   O     O_R   0.176488 0.012218 0.405939 -0.323219
O90   O     O_R   0.241400 0.060431 0.304497 -0.168719
N22   N     N_R   0.807466 0.053790 0.620449 0.259819
O91   O     O_R   0.822501 0.013095 0.596526 -0.298409
O92   O     O_R   0.758706 0.062389 0.697370 -0.187951
N23   N     N_R   0.594237 0.545291 0.593790 0.248231
O93   O     O_R   0.538272 0.538386 0.660944 -0.233466
O94   O     O_R   0.635604 0.522328 0.581030 -0.219417
N24   N     N_R   0.344231 0.612013 0.653390 0.259849
O95   O     O_R   0.384310 0.620905 0.655811 -0.245912
O96   O     O_R   0.288920 0.605775 0.723017 -0.223808
F21   F     F_    0.000982 0.154375 0.560107 -0.536999
F22   F     F_    0.999763 0.153659 0.437600 -0.536811
F23   F     F_    0.615731 0.650372 0.346204 -0.495264
F24   F     F_    0.514810 0.622140 0.330145 -0.513900
N25   N     N_R   0.958996 0.133857 0.694202 0.206476
O97   O     O_R   0.957210 0.096367 0.723823 -0.300245
O98   O     O_R   0.911225 0.158474 0.738903 -0.221026
N26   N     N_R   0.040494 0.131789 0.304477 0.207182
O99   O     O_R   0.041534 0.094092 0.275784 -0.285921
O100  O     O_R   0.088539 0.155874 0.258775 -0.218370
N27   N     N_R   0.526737 0.660536 0.489062 0.161571
O101  O     O_R   0.496675 0.658041 0.568134 -0.314110
O102  O     O_R   0.497926 0.666938 0.466396 -0.241454
N28   N     N_R   0.485308 0.566113 0.290533 0.206621
O103  O     O_R   0.461510 0.527881 0.323294 -0.309587
O104  O     O_R   0.528473 0.569471 0.209924 -0.204326
F25   F     F_    0.062263 0.218303 0.552403 -0.534551
F26   F     F_    0.938505 0.217725 0.445226 -0.534560
F27   F     F_    0.671283 0.713523 0.352681 -0.537939
F28   F     F_    0.452580 0.681325 0.329464 -0.548705
N29   N     N_R   0.023992 0.200607 0.686288 0.185315
O105  O     O_R   0.020077 0.174721 0.736541 -0.331293
O106  O     O_R   0.009726 0.241767 0.706143 -0.204659
N30   N     N_R   0.975550 0.198690 0.312310 0.185684
O107  O     O_R   0.978683 0.172322 0.263058 -0.320639
O108  O     O_R   0.990162 0.239631 0.291504 -0.212877
N31   N     N_R   0.584254 0.727351 0.494997 0.200949
O109  O     O_R   0.561034 0.721921 0.570659 -0.319289
O110  O     O_R   0.567002 0.760632 0.479215 -0.222243
N32   N     N_R   0.418708 0.627837 0.291582 0.187068
O111  O     O_R   0.386070 0.593946 0.308977 -0.306870
O112  O     O_R   0.438905 0.652770 0.229276 -0.258560
F29   F     F_    0.119858 0.242081 0.915458 -0.518754
F30   F     F_    0.880314 0.255953 0.084549 -0.501777
F31   F     F_    0.616309 0.726101 0.915761 -0.508958
F32   F     F_    0.383414 0.773723 0.084384 -0.507938

loop_
_geom_bond_atom_site_label_1
_geom_bond_atom_site_label_2
_geom_bond_distance
_ccdc_geom_bond_type
C59   C63   1.501701 S    
C93   C97   1.414584 A    
C47   C51   1.399461 A    
C102  C106  1.407215 A    
C91   C111  1.370915 A    
N27   O101  1.301561 A    
C96   C100  1.408892 A    
N29   O105  1.302350 A    
C95   C99   1.410037 A    
C39   C59   1.364248 A    
C114  C118  1.530862 S    
O36   Zn10  2.017393 S    
C55   C59   1.390522 A    
N16   O80   1.300707 A    
C60   C64   1.503320 S    
N14   O75   1.302301 A    
C4    C44   1.412103 S    
C109  C113  1.499949 S    
C106  C110  1.387055 A    
C53   C125  1.436879 S    
C112  C116  1.504135 S    
N22   O91   1.300988 A    
C25   N17   1.438908 S    
C111  C115  1.502772 S    
O4    C4    1.278132 A    
O47   C127  1.266518 A    
C101  C105  1.416233 A    
C19   C20   1.405634 A    
C90   C94   1.391475 A    
C69   C78   1.394236 A    
O44   Zn12  2.017521 S    
O37   C121  1.264641 A    
C113  F9    1.385625 S    
N32   O112  1.300574 A    
C75   C83   1.426427 S    
C17   N2    1.438806 S    
C46   C50   1.402346 A    
C71   F3    1.358190 S    
C48   F20   1.359857 S    
O39   C123  1.267097 A    
O47   Zn12  2.022990 S    
Zn3   O19   2.024043 S    
C58   C62   1.503436 S    
Zn4   O28   1.988785 S    
O13   C5    1.283336 A    
O45   Zn10  2.022990 S    
Zn5   O29   1.992227 S    
O15   C7    1.283460 A    
O48   Zn11  2.018920 S    
C45   F17   1.359381 S    
C38   C42   1.384634 A    
C63   N27   1.466902 S    
N11   O69   1.301849 A    
C114  F10   1.386502 S    
C61   N25   1.464793 S    
C29   C34   1.196157 T    
O2    Zn2   2.016100 S    
C118  N14   1.466525 S    
O10   Zn2   1.994709 S    
N12   O72   1.300730 A    
C66   F26   1.387153 S    
O46   C126  1.266757 A    
C118  F14   1.387144 S    
C84   C87   1.197010 T    
C89   C93   1.376519 A    
O6    Zn6   2.022422 S    
C78   F29   1.358148 S    
C23   C31   1.431052 S    
N21   O90   1.301197 A    
O19   C11   1.276526 A    
C92   C112  1.375179 A    
C72   F4    1.358148 S    
Zn8   O24   2.016100 S    
O43   C127  1.266409 A    
O44   C128  1.263449 A    
C9    C93   1.410918 S    
C105  C122  1.428349 S    
C44   C48   1.393983 A    
N19   O86   1.301268 A    
N20   O88   1.301255 A    
C17   C21   1.408747 A    
C19   C23   1.408558 A    
C38   C66   1.496020 S    
C70   F2    1.358264 S    
N25   O98   1.300665 A    
C55   C127  1.423696 S    
N28   O103  1.302004 A    
C11   C95   1.417075 S    
C37   C65   1.496062 S    
C16   C88   1.419002 S    
C52   N24   1.434992 S    
O3    C3    1.279975 A    
N3    O53   1.301313 A    
C21   C25   1.408640 A    
C79   F32   1.358221 S    
C63   C67   1.537407 S    
N13   O74   1.300721 A    
C64   N28   1.464929 S    
O16   C8    1.284010 A    
O26   C14   1.283963 A    
O48   C128  1.278714 A    
N26   O100  1.300665 A    
O23   C11   1.274852 A    
O42   C126  1.271866 A    
C28   N20   1.438846 S    
C89   C109  1.342604 A    
O41   Zn9   2.017091 S    
C24   C28   1.408571 A    
N27   O102  1.300367 A    
C104  F8    1.359170 S    
N17   O81   1.301284 A    
N8    O64   1.300108 A    
C69   F1    1.358282 S    
C5    C33   1.417339 S    
C52   C56   1.425829 A    
N13   O73   1.302186 A    
C62   N26   1.464843 S    
N1    O50   1.301279 A    
C66   N30   1.466700 S    
C102  F6    1.358207 S    
C99   C103  1.398780 A    
N18   O84   1.301254 A    
C90   C110  1.369860 A    
C37   C57   1.372433 A    
C70   C74   1.400447 A    
O20   C12   1.274666 A    
O8    C4    1.273687 A    
O33   C121  1.270618 A    
N30   O108  1.300661 A    
O29   C13   1.283667 A    
N12   O71   1.302370 A    
C32   C35   1.196024 T    
N5    O58   1.301206 A    
C22   C26   1.408584 A    
C115  C119  1.531304 S    
C116  C120  1.529520 S    
C98   N6    1.438156 S    
C76   C80   1.400508 A    
N2    O52   1.301292 A    
C107  C111  1.391188 A    
O5    C1    1.275794 A    
N9    O65   1.301948 A    
C116  N12   1.467597 S    
C68   N32   1.466205 S    
C92   C96   1.388235 A    
C91   C119  1.498971 S    
O25   C13   1.283415 A    
C13   C85   1.419295 S    
C73   C77   1.400676 A    
O27   C15   1.283553 A    
N11   O70   1.300625 A    
C26   N18   1.438767 S    
O38   C122  1.265919 A    
C75   C79   1.400382 A    
N31   O109  1.302148 A    
C12   C96   1.418438 S    
O36   C124  1.274335 A    
C6    C34   1.417477 S    
C53   C57   1.395558 A    
C72   C76   1.400625 A    
C107  C124  1.435518 S    
Zn2   O26   1.988785 S    
O16   Zn8   1.988786 S    
O14   C6    1.283698 A    
Zn6   O30   1.994576 S    
C108  C112  1.392489 A    
C15   C87   1.419555 S    
N4    O56   1.301275 A    
N20   O87   1.301266 A    
C40   C68   1.497189 S    
C61   F21   1.384257 S    
O10   C6    1.284017 A    
C82   C85   1.196888 T    
O3    Zn3   2.017861 S    
C67   F27   1.385323 S    
C17   C18   1.405726 A    
C116  F12   1.386633 S    
O45   C125  1.267316 A    
C56   C60   1.395619 A    
N14   O76   1.300271 A    
C49   C53   1.416769 A    
C103  F7    1.359415 S    
C73   C81   1.426645 S    
N22   O92   1.301184 A    
C106  C121  1.426229 S    
N24   O95   1.300053 A    
C27   N19   1.438807 S    
C20   N3    1.438848 S    
C47   F19   1.359437 S    
N3    O54   1.301274 A    
C18   C22   1.408545 A    
C43   C47   1.407277 A    
O13   Zn5   1.991012 S    
N23   O93   1.300551 A    
C40   C44   1.385056 A    
O15   Zn7   1.991012 S    
N10   O67   1.301854 A    
C14   C86   1.419344 S    
C31   C36   1.196116 T    
C54   C58   1.395744 A    
C19   N4    1.438810 S    
O17   C9    1.274490 A    
C108  C123  1.432824 S    
C101  F5    1.358930 S    
N6    O59   1.300704 A    
O35   C123  1.271940 A    
N29   O106  1.300665 A    
O41   C125  1.271761 A    
Zn7   O31   1.992227 S    
N21   O89   1.300805 A    
Zn8   O32   1.994576 S    
C70   C77   1.394179 A    
C50   C54   1.416704 A    
N15   O78   1.300569 A    
O37   Zn12  2.021135 S    
O38   Zn11  2.025212 S    
O1    C1    1.279836 A    
C98   C102  1.400734 A    
C45   C49   1.402533 A    
C67   N31   1.468263 S    
N16   O79   1.302287 A    
C42   C46   1.403498 A    
O39   Zn10  2.021135 S    
C27   C28   1.405684 A    
C103  C107  1.412870 A    
C113  N9    1.464193 S    
N25   O97   1.301834 A    
O21   C9    1.274184 A    
O28   C16   1.283883 A    
N7    O61   1.300329 A    
O34   C122  1.270671 A    
C37   C41   1.385279 A    
C115  N11   1.463673 S    
O30   C14   1.284549 A    
C30   C33   1.195941 T    
C39   C67   1.502279 S    
C117  F13   1.387222 S    
C10   C94   1.424591 S    
Zn1   O25   1.991010 S    
C64   C68   1.530720 S    
C97   C101  1.407545 A    
N32   O111  1.302307 A    
C76   C84   1.426848 S    
C8    C36   1.417586 S    
C100  C104  1.397364 A    
C7    C35   1.417147 S    
O6    C2    1.276057 A    
C72   C79   1.394178 A    
C90   C118  1.501185 S    
C3    C43   1.425848 S    
C51   N23   1.433014 S    
O33   Zn11  2.017827 S    
N26   O99   1.301845 A    
O34   Zn12  2.017393 S    
C2    C42   1.421875 S    
C113  C117  1.548096 S    
N1    O49   1.301304 A    
Zn3   O27   1.991010 S    
O40   C124  1.265775 A    
Zn4   O20   2.022295 S    
Zn5   O21   2.017859 S    
C119  F15   1.387211 S    
C54   C126  1.435961 S    
C105  C109  1.383554 A    
O12   Zn4   1.994709 S    
C62   F22   1.384259 S    
C104  C108  1.409536 A    
C89   C117  1.490784 S    
C97   N5    1.436896 S    
N5    O57   1.299991 A    
O7    C3    1.276966 A    
C92   C120  1.498579 S    
C49   N21   1.436960 S    
N23   O94   1.300947 A    
C91   C95   1.388732 A    
C117  N13   1.464530 S    
O46   Zn9   2.018920 S    
O11   Zn3   1.992361 S    
Zn2   O18   2.022295 S    
C48   C52   1.394830 A    
C39   C43   1.387945 A    
C38   C58   1.371568 A    
N4    O55   1.301296 A    
O14   Zn6   1.988786 S    
C69   C73   1.400454 A    
O11   C7    1.282650 A    
O12   C8    1.283689 A    
C40   C60   1.374013 A    
O1    Zn1   2.017861 S    
C22   C30   1.430730 S    
O9    Zn1   1.992361 S    
C65   F25   1.387152 S    
C56   C128  1.440003 S    
C63   F23   1.386107 S    
O4    Zn4   2.016100 S    
C20   C24   1.408600 A    
C64   F24   1.385916 S    
O5    Zn5   2.024173 S    
C77   F30   1.358138 S    
C68   F28   1.387365 S    
C61   C65   1.532194 S    
C23   C27   1.408657 A    
O18   C10   1.280525 A    
O7    Zn7   2.024173 S    
O9    C5    1.282834 A    
O8    Zn8   2.022422 S    
C80   F31   1.358145 S    
C120  N16   1.465317 S    
N17   O82   1.301267 A    
N8    O63   1.301239 A    
C65   N29   1.466677 S    
C99   N7    1.438641 S    
O24   C12   1.278527 A    
O43   Zn11  2.017091 S    
C71   C80   1.394165 A    
N31   O110  1.300463 A    
C115  F11   1.385794 S    
N18   O83   1.301277 A    
C18   N1    1.438956 S    
C119  N15   1.467015 S    
C74   C78   1.400655 A    
N30   O107  1.302353 A    
N7    O62   1.301183 A    
N24   O96   1.301056 A    
N19   O85   1.301282 A    
O2    C2    1.280201 A    
O31   C15   1.283627 A    
C21   C29   1.431101 S    
O32   C16   1.284544 A    
O40   Zn9   2.025212 S    
C120  F16   1.388230 S    
C50   N22   1.437093 S    
N10   O68   1.300613 A    
C94   C98   1.412794 A    
N15   O77   1.302337 A    
O22   C10   1.275887 A    
C100  N8    1.437307 S    
O35   Zn9   2.017827 S    
N2    O51   1.301301 A    
C81   C86   1.196895 T    
N9    O66   1.300510 A    
O42   Zn10  2.017521 S    
N28   O104  1.300672 A    
C83   C88   1.196746 T    
Zn7   O23   2.017859 S    
C62   C66   1.532111 S    
C24   C32   1.430878 S    
C114  N10   1.463638 S    
C41   C45   1.403565 A    
C74   C82   1.426729 S    
C51   C55   1.413356 A    
N6    O60   1.301256 A    
C25   C26   1.405590 A    
C110  C114  1.500086 S    
Zn1   O17   2.024043 S    
C46   F18   1.359378 S    
C71   C75   1.400555 A    
Zn6   O22   2.016100 S    
C57   C61   1.503215 S    
C1    C41   1.423536 S    
