data_mof_unit_39950.cif
_audit_creation_date              2012-12-10T20:25:39-0500
_audit_creation_method            fapswitch 2.2
_symmetry_space_group_name_H-M    P1
_symmetry_Int_Tables_number       1
_space_group_crystal_system       triclinic
_cell_length_a                    8.493848
_cell_length_b                    10.736495
_cell_length_c                    9.917951
_cell_angle_alpha                 88.628018
_cell_angle_beta                  96.989808
_cell_angle_gamma                 91.867293
_cell_volume                      897.078390749

loop_
_atom_site_label
_atom_site_type_symbol
_atom_type_description
_atom_site_fract_x
_atom_site_fract_y
_atom_site_fract_z
_atom_type_partial_charge
C1    C     C_R   0.505267 0.260132 0.501172 0.920970
C2    C     C_R   0.476033 0.937376 0.374535 -0.246585
C3    C     C_R   0.469113 0.870742 0.495532 -0.154585
C4    C     C_R   0.441879 0.934035 0.611260 0.114058
C5    C     C_3   0.513122 0.922258 0.756006 -0.436268
C6    C     C_3   0.522690 0.063607 0.756749 -0.410362
C7    C     C_R   0.418341 0.408575 0.065655 0.218010
C8    C     C_R   0.580560 0.589078 0.072988 0.168693
C9    C     C_R   0.585480 0.585374 0.931949 -0.142002
C10   C     C_R   0.420269 0.407666 0.923015 0.171761
C11   C     C_3   0.246695 0.380198 0.897266 -0.539471
C12   C     C_R   0.201728 0.512738 0.465435 0.941865
C13   C     C_3   0.241773 0.388347 0.048982 -0.021182
C14   C     C_R   0.492874 0.739626 0.498642 0.852356
C15   C     C_R   0.799550 0.513858 0.534880 0.919851
C16   C     C_2   0.044493 0.561623 0.448360 -0.117854
C17   C     C_2   0.963906 0.557237 0.555866 -0.136819
C18   C     C_R   0.449989 0.061748 0.611455 0.081324
C19   C     C_R   0.495683 0.127501 0.498718 -0.178313
C20   C     C_R   0.507694 0.063669 0.377183 0.212263
H1    H     H_    0.649483 0.656865 0.880021 0.171216
H2    H     H_    0.182139 0.455401 0.838271 0.198507
H3    H     H_    0.220651 0.285377 0.856143 0.225392
H4    H     H_    0.179507 0.471841 0.076903 0.148541
H5    H     H_    0.472736 0.891117 0.279938 0.223433
H6    H     H_    0.427557 0.881355 0.822338 0.213362
H7    H     H_    0.631309 0.879382 0.768049 0.215977
H8    H     H_    0.442980 0.104275 0.823964 0.222191
H9    H     H_    0.646499 0.102477 0.769067 0.213673
N1    N     N_R   0.498950 0.499140 0.142680 -0.137000
N2    N     N_R   0.498950 0.499180 0.857030 -0.121192
O1    O     O_R   0.500020 0.316790 0.614690 -0.610570
O2    O     O_R   0.500000 0.316760 0.385350 -0.567107
O3    O     O_R   0.271760 0.500010 0.587850 -0.632889
O4    O     O_R   0.271740 0.499970 0.358500 -0.615979
O5    O     O_R   0.500000 0.683240 0.614650 -0.639439
O6    O     O_R   0.499980 0.683210 0.385310 -0.613042
O7    O     O_R   0.728260 0.500030 0.641500 -0.616355
O8    O     O_R   0.728240 0.499990 0.412150 -0.594416
Zn1   Zn    Zn3+2 0.500010 0.500020 0.653130 0.938668
Zn2   Zn    Zn3+2 0.499990 0.499980 0.346870 0.987353
C21   C     C_3   0.997014 0.651349 0.331161 -0.375484
C22   C     C_3   0.125891 0.752401 0.313337 -0.413132
C23   C     C_3   0.065613 0.860086 0.220558 -0.762831
H10   H     H_    0.019313 0.825407 0.118507 0.271823
H11   H     H_    0.971890 0.909421 0.265041 0.293887
H12   H     H_    0.165056 0.927429 0.208847 0.270964
H13   H     H_    0.170759 0.790638 0.414046 0.220731
H14   H     H_    0.224582 0.711654 0.267614 0.264684
H15   H     H_    0.967876 0.598607 0.235860 0.231032
H16   H     H_    0.891393 0.699836 0.355144 0.249116
I1    I     I_    0.162223 0.218771 0.139848 -0.353501
C24   C     C_3   0.015931 0.640157 0.677435 -0.407773
C25   C     C_3   0.938641 0.767797 0.659915 -0.370210
C26   C     C_3   0.983643 0.847344 0.784958 -0.859059
H17   H     H_    0.939082 0.801552 0.875050 0.264837
H18   H     H_    0.114526 0.861215 0.804636 0.265009
H19   H     H_    0.929338 0.939974 0.768019 0.260350
H20   H     H_    0.977468 0.818262 0.570129 0.235132
H21   H     H_    0.807702 0.755567 0.643397 0.230604
H22   H     H_    0.981995 0.593282 0.771194 0.214508
H23   H     H_    0.146306 0.657075 0.692799 0.233999
I2    I     I_    0.611388 0.134841 0.203644 -0.313866
I3    I     I_    0.668601 0.760772 0.144502 -0.478854

loop_
_geom_bond_atom_site_label_1
_geom_bond_atom_site_label_2
_ccdc_geom_bond_type
C7    C10   A    
C22   C23   S    
N1    Zn2   S    
O4    Zn2   S    
C16   C21   S    
C13   I1    S    
C22   H13   S    
C11   H2    S    
C19   C20   A    
C23   H12   S    
C7    C13   S    
C21   H16   S    
C26   H17   S    
C8    N1    A    
C20   I2    S    
O1    Zn1   S    
C2    C3    A    
C4    C18   A    
O8    Zn2   S    
C7    N1    A    
C25   H21   S    
C24   C25   S    
C23   H10   S    
C12   O4    A    
O7    Zn1   S    
C11   C13   S    
C15   O8    A    
C16   C17   D    
C3    C14   S    
C24   H22   S    
C8    I3    S    
C15   O7    A    
O3    Zn1   S    
C11   H3    S    
C21   H15   S    
C2    H5    S    
C25   H20   S    
C26   H18   S    
O6    Zn2   S    
C5    C6    S    
C6    C18   S    
C22   H14   S    
C1    C19   S    
C10   C11   S    
C9    N2    A    
C1    O2    A    
C5    H6    S    
C9    H1    S    
C17   C24   S    
O5    Zn1   S    
C6    H9    S    
O2    Zn2   S    
C13   H4    S    
C18   C19   A    
C24   H23   S    
C26   H19   S    
C15   C17   S    
C25   C26   S    
C8    C9    A    
C14   O5    A    
C12   O3    A    
N2    Zn1   S    
C5    H7    S    
C2    C20   A    
C10   N2    A    
C1    O1    A    
C6    H8    S    
C3    C4    A    
C12   C16   S    
C21   C22   S    
C23   H11   S    
C4    C5    S    
C14   O6    A    
