data_mof_unit_58258.cif
_audit_creation_date              2012-12-10T16:52:16-0500
_audit_creation_method            fapswitch 2.2
_symmetry_space_group_name_H-M    P1
_symmetry_Int_Tables_number       1
_space_group_crystal_system       triclinic
_cell_length_a                    11.04008
_cell_length_b                    11.028868
_cell_length_c                    9.852882
_cell_angle_alpha                 88.585184
_cell_angle_beta                  102.392705
_cell_angle_gamma                 92.360158
_cell_volume                      1170.58129307

loop_
_atom_site_label
_atom_site_type_symbol
_atom_type_description
_atom_site_fract_x
_atom_site_fract_y
_atom_site_fract_z
_atom_type_partial_charge
C1    C     C_R   0.502967 0.266616 0.502146 0.884166
C2    C     C_2   0.471789 0.859868 0.487573 0.108028
C3    C     C_2   0.512279 0.062944 0.407290 0.360560
C4    C     C_2   0.525731 0.138354 0.514233 -0.299255
C5    C     C_2   0.438796 0.420421 0.912972 0.446414
C6    C     C_2   0.421054 0.441090 0.057324 -0.008794
C7    C     C_R   0.263440 0.498694 0.443059 0.893849
C8    C     C_R   0.496667 0.732832 0.497880 0.881819
C9    C     C_R   0.736944 0.499745 0.557328 0.812748
C10   C     C_2   0.128505 0.498412 0.411128 -0.257121
C11   C     C_2   0.068060 0.483290 0.514002 -0.065646
C12   C     C_2   0.872980 0.501394 0.591849 -0.156627
C13   C     C_2   0.933792 0.491887 0.488245 -0.192430
C14   C     C_2   0.549561 0.939703 0.440330 0.172442
Cu1   Cu    Cu3+1 0.500020 0.500020 0.638640 1.138939
Cu2   Cu    Cu3+1 0.499980 0.499980 0.361360 1.146744
H1    H     H_    0.883241 0.486382 0.380854 0.212258
H2    H     H_    0.485212 0.586296 0.867594 0.251232
H3    H     H_    0.347962 0.388229 0.091340 0.190570
H4    H     H_    0.118754 0.464746 0.619040 0.221807
H5    H     H_    0.078855 0.513503 0.304588 0.167432
H6    H     H_    0.561563 0.103512 0.618901 0.187821
N1    N     N_2   0.498650 0.498660 0.846590 -0.277299
N2    N     N_2   0.498620 0.498630 0.152710 -0.035798
O1    O     O_R   0.500020 0.321960 0.617050 -0.516738
O2    O     O_R   0.499980 0.321920 0.382890 -0.548522
O3    O     O_R   0.320700 0.500020 0.574050 -0.554664
O4    O     O_R   0.320660 0.499980 0.339890 -0.605556
O5    O     O_R   0.500020 0.678080 0.617110 -0.559295
O6    O     O_R   0.499980 0.678040 0.382950 -0.521579
O7    O     O_R   0.679340 0.500020 0.660110 -0.540513
O8    O     O_R   0.679300 0.499980 0.425950 -0.528607
S1    S     S_3+6 0.614911 0.601170 0.117461 0.134207
O9    O     O_2   0.695242 0.541357 0.035030 -0.275892
O10   O     O_2   0.556971 0.711443 0.041478 -0.271740
O11   O     O_3   0.709853 0.655651 0.260401 -0.420962
H7    H     H_    0.789070 0.677648 0.232508 0.365605
C15   C     C_2   0.938847 0.516975 0.739611 0.899204
O12   O     O_2   0.903200 0.458999 0.831943 -0.514198
O13   O     O_R   0.039290 0.600302 0.773144 -0.731086
H8    H     H_    0.075886 0.602679 0.876674 0.348840
S2    S     S_3+6 0.705123 0.910976 0.433074 0.047554
O14   O     O_2   0.787565 0.013593 0.502238 -0.259418
O15   O     O_2   0.748325 0.793910 0.505052 -0.288365
O16   O     O_3   0.715489 0.908423 0.265479 -0.466397
H9    H     H_    0.805574 0.914751 0.267257 0.391118
S3    S     S_3+6 0.325740 0.899058 0.520150 0.041908
O17   O     O_2   0.345771 0.984108 0.640394 -0.232998
O18   O     O_2   0.249805 0.959541 0.393683 -0.214650
O19   O     O_3   0.247676 0.773420 0.559341 -0.530162
H10   H     H_    0.167008 0.802054 0.572005 0.404600
S4    S     S_3+6 0.443970 0.098351 0.232288 0.119569
O20   O     O_2   0.327742 0.166323 0.226736 -0.208255
O21   O     O_2   0.533510 0.175741 0.169193 -0.236081
O22   O     O_3   0.407025 0.970154 0.141030 -0.454924
H11   H     H_    0.483509 0.949840 0.110649 0.408310
S5    S     S_3+6 0.374762 0.278339 0.843729 0.088770
O23   O     O_2   0.296012 0.292143 0.700272 -0.281184
O24   O     O_2   0.478603 0.194798 0.842085 -0.216506
O25   O     O_3   0.283114 0.213610 0.943064 -0.476812
H12   H     H_    0.261066 0.131473 0.904773 0.421559

loop_
_geom_bond_atom_site_label_1
_geom_bond_atom_site_label_2
_ccdc_geom_bond_type
Cu2   O4    S    
C7    C10   S    
C15   O13   S    
O22   H11   S    
Cu1   O7    S    
Cu1   O5    S    
C5    S5    S    
C2    S3    S    
Cu2   O8    S    
C4    H6    S    
C7    O3    A    
Cu1   O3    S    
N2    S1    S    
C5    N1    D    
S4    O22   S    
C13   H1    S    
C14   S2    S    
C1    C4    S    
C6    N2    D    
Cu1   N1    S    
S1    O9    D    
C3    C4    D    
C8    O6    A    
Cu2   N2    S    
O16   H9    S    
S4    O20   D    
C1    O1    A    
C6    H3    S    
C11   C13   S    
S5    O23   D    
C5    C6    S    
C3    C14   S    
S2    O15   D    
C8    O5    A    
O13   H8    S    
S1    O10   D    
S4    O21   D    
O19   H10   S    
S3    O19   S    
C10   H5    S    
C12   C15   S    
C1    O2    A    
C2    C14   D    
C9    C12   S    
C11   H4    S    
S5    O24   D    
Cu1   O1    S    
C10   C11   D    
C9    O7    A    
Cu2   O6    S    
H2    N1    S    
S3    O17   D    
S1    O11   S    
C15   O12   D    
C12   C13   D    
S3    O18   D    
S2    O14   D    
C3    S4    S    
O11   H7    S    
S5    O25   S    
C9    O8    A    
S2    O16   S    
C2    C8    S    
C7    O4    A    
Cu1   Cu2   S    
O25   H12   S    
Cu2   O2    S    
