data_mof_unit_51977.cif
_audit_creation_date              2012-12-11T14:19:37-0500
_audit_creation_method            fapswitch 2.2
_symmetry_space_group_name_H-M    P1
_symmetry_Int_Tables_number       1
_space_group_crystal_system       triclinic
_cell_length_a                    19.440475
_cell_length_b                    7.237439
_cell_length_c                    17.749504
_cell_angle_alpha                 90.001968
_cell_angle_beta                  107.644438
_cell_angle_gamma                 90.002304
_cell_volume                      2379.85664236

loop_
_atom_site_label
_atom_site_type_symbol
_atom_type_description
_atom_site_fract_x
_atom_site_fract_y
_atom_site_fract_z
_atom_type_partial_charge
O1    O     O_R   0.414820 0.494320 0.416790 -0.527533
O2    O     O_R   0.585180 0.994320 0.583210 -0.527676
O3    O     O_R   0.560270 0.819500 0.430140 -0.536793
O4    O     O_R   0.439730 0.319500 0.569860 -0.536838
C1    C     C_R   0.583393 0.656110 0.417247 0.700401
C2    C     C_R   0.416605 0.156108 0.582751 0.700245
O5    O     O_R   0.413840 0.823740 0.407440 -0.521522
O6    O     O_R   0.586160 0.323740 0.592560 -0.521538
O7    O     O_R   0.437710 0.998590 0.560350 -0.535464
O8    O     O_R   0.562290 0.498590 0.439650 -0.535405
C3    C     C_R   0.388652 0.655096 0.384018 0.651160
C4    C     C_R   0.611341 0.155106 0.615989 0.650978
O9    O     O_3   0.508000 0.662290 0.550200 -0.373928
O10   O     O_3   0.492000 0.162290 0.449800 -0.373787
V1    V     V_3+5 0.498520 0.935380 0.490690 1.521355
V2    V     V_3+5 0.501480 0.435380 0.509310 1.521432
C5    C     C_2   0.781363 0.258728 0.793406 -0.219853
C6    C     C_2   0.218690 0.758667 0.206518 -0.220182
C7    C     C_2   0.828011 0.115442 0.808527 0.253625
C8    C     C_2   0.171982 0.615500 0.191468 0.253742
H1    H     H_    0.789807 0.372398 0.835206 0.092214
H2    H     H_    0.210297 0.872185 0.164653 0.092118
C9    C     C_2   0.720703 0.278750 0.717999 0.289682
C10   C     C_2   0.279359 0.778792 0.281913 0.289436
C11   C     C_2   0.672251 0.140141 0.690787 0.337771
C12   C     C_2   0.327728 0.640069 0.309241 0.337732
C13   C     C_R   0.313831 0.299281 0.623902 0.316763
C14   C     C_R   0.686144 0.799322 0.376066 0.316666
C15   C     C_R   0.362675 0.150319 0.627177 -0.167528
C16   C     C_R   0.637318 0.650326 0.372815 -0.167494
C17   C     C_R   0.360694 0.995628 0.674106 -0.228665
C18   C     C_R   0.639313 0.495607 0.325903 -0.228641
C19   C     C_R   0.313875 0.989183 0.720390 0.134262
C20   C     C_R   0.686129 0.489166 0.279615 0.134232
C21   C     C_R   0.267469 0.139642 0.720071 -0.060504
C22   C     C_R   0.732529 0.639643 0.279926 -0.060475
C23   C     C_R   0.266257 0.295182 0.670964 -0.040917
C24   C     C_R   0.733730 0.795207 0.329018 -0.040944
C25   C     C_R   0.313379 0.834275 0.767834 -0.101261
C26   C     C_R   0.686628 0.334244 0.232175 -0.101208
C27   C     C_R   0.267303 0.827251 0.814762 -0.198417
C28   C     C_R   0.732704 0.327220 0.185247 -0.198402
C29   C     C_R   0.221321 0.975757 0.815743 0.113628
C30   C     C_R   0.778683 0.475740 0.184262 0.113617
C31   C     C_R   0.221720 0.133130 0.768796 0.076503
C32   C     C_R   0.778280 0.633128 0.231202 0.076507
C33   C     C_R   0.176336 0.283653 0.770663 0.019089
C34   C     C_R   0.823659 0.783665 0.229331 0.019079
C35   C     C_R   0.175123 0.436750 0.722394 -0.226271
C36   C     C_R   0.824867 0.936779 0.277592 -0.226237
C37   C     C_R   0.217102 0.441627 0.670916 0.375501
C38   C     C_R   0.782883 0.941663 0.329064 0.375488
C39   C     C_R   0.174896 0.969357 0.862841 -0.220040
C40   C     C_R   0.825109 0.469339 0.137166 -0.220002
C41   C     C_R   0.129822 0.120046 0.865278 -0.075472
C42   C     C_R   0.870179 0.620043 0.134723 -0.075471
C43   C     C_R   0.131497 0.277452 0.819502 -0.191343
C44   C     C_R   0.868500 0.777463 0.180493 -0.191314
H3    H     H_    0.397155 0.881016 0.676130 0.147828
H4    H     H_    0.602864 0.380971 0.323893 0.147936
H5    H     H_    0.348507 0.717673 0.768371 0.122291
H6    H     H_    0.651504 0.217629 0.231644 0.122331
H7    H     H_    0.267741 0.705504 0.850446 0.121138
H8    H     H_    0.732269 0.205461 0.149567 0.121161
H9    H     H_    0.174591 0.847793 0.898442 0.124293
H10   H     H_    0.825418 0.347764 0.101570 0.124325
H11   H     H_    0.096573 0.393716 0.820399 0.131558
H12   H     H_    0.903420 0.893738 0.179590 0.131567
H13   H     H_    0.139356 0.551686 0.722471 0.157263
H14   H     H_    0.860632 0.051725 0.277511 0.157263
O11   O     O_R   0.937810 0.773680 0.060480 -0.536052
O12   O     O_R   0.062190 0.273680 0.939520 -0.536070
O13   O     O_R   0.086190 0.439740 0.092580 -0.538977
O14   O     O_R   0.913810 0.939740 0.907420 -0.538979
C45   C     C_R   0.110842 0.608404 0.116555 0.612018
C46   C     C_R   0.889158 0.108393 0.883441 0.612094
O15   O     O_R   0.939760 0.444210 0.069890 -0.542646
O16   O     O_R   0.060240 0.944210 0.930110 -0.542648
O17   O     O_R   0.914790 0.269640 0.916760 -0.543086
O18   O     O_R   0.085210 0.769640 0.083240 -0.543066
C47   C     C_R   0.919078 0.612395 0.084821 0.697482
C48   C     C_R   0.080922 0.112396 0.915179 0.697435
O19   O     O_3   0.992050 0.601530 0.949880 -0.375484
O20   O     O_3   0.007950 0.101530 0.050120 -0.375457
V3    V     V_3+5 0.001480 0.328340 0.009300 1.410189
V4    V     V_3+5 0.998520 0.828340 0.990700 1.410206
O21   O     O_3   0.207861 0.591226 0.621120 -0.611459
H15   H     H_    0.193766 0.540909 0.566624 0.323247
O22   O     O_3   0.792117 0.091280 0.378852 -0.611484
H16   H     H_    0.806184 0.040994 0.433349 0.323207
O23   O     O_3   0.820626 0.980361 0.751335 -0.613385
H17   H     H_    0.862305 0.894965 0.767930 0.292586
O24   O     O_3   0.179292 0.480624 0.248724 -0.613327
H18   H     H_    0.137580 0.395314 0.232148 0.292580
O25   O     O_3   0.711890 0.444901 0.677743 -0.641900
H19   H     H_    0.751711 0.528737 0.706028 0.314308
O26   O     O_3   0.288273 0.945145 0.322033 -0.641826
H20   H     H_    0.248503 0.029037 0.293681 0.314456
O27   O     O_3   0.679651 0.976269 0.733099 -0.523753
C49   C     C_3   0.626617 0.970460 0.772443 -0.244982
H21   H     H_    0.571330 0.961433 0.729897 0.119609
H22   H     H_    0.630922 0.091848 0.812185 0.106930
H23   H     H_    0.635421 0.844580 0.809811 0.169360
O28   O     O_3   0.320254 0.475967 0.267078 -0.523697
C50   C     C_3   0.372969 0.470310 0.227302 -0.244556
H24   H     H_    0.428440 0.462798 0.269563 0.118764
H25   H     H_    0.368048 0.591024 0.187079 0.107267
H26   H     H_    0.364336 0.343707 0.190376 0.169403
O29   O     O_3   0.312676 0.449958 0.576003 -0.629334
H27   H     H_    0.314690 0.403315 0.524208 0.294670
O30   O     O_3   0.687258 0.950058 0.423919 -0.629347
H28   H     H_    0.685325 0.903482 0.475744 0.294647

loop_
_geom_bond_atom_site_label_1
_geom_bond_atom_site_label_2
_ccdc_geom_bond_type
C8    O24   S    
O24   H18   S    
C13   C15   A    
O13   C45   A    
O25   H19   S    
O1    C3    A    
C46   O17   A    
O21   H15   S    
O2    C4    A    
C2    O7    A    
O12   V3    S    
C42   C47   S    
C33   C35   A    
O5    C3    A    
C50   H25   S    
C19   C25   A    
O14   C46   A    
C20   C26   A    
C7    C46   S    
C21   C23   A    
C10   C12   D    
C23   C37   A    
C24   C38   A    
C26   H6    S    
C31   C33   A    
C17   H3    S    
O18   V4    S    
C12   O28   S    
C11   O27   S    
O30   H28   S    
C9    O25   S    
C14   C16   A    
C35   C37   A    
C36   C38   A    
C17   C19   A    
C22   C32   A    
O15   C47   A    
C39   H9    S    
C45   O18   A    
C20   C22   A    
O16   V4    S    
C34   C36   A    
O15   V3    S    
O6    V2    S    
C35   H13   S    
C27   C29   A    
C38   O22   S    
C28   C30   A    
C43   H11   S    
O28   C50   S    
C30   C32   A    
O26   H20   S    
C32   C34   A    
C39   C41   A    
C14   O30   S    
C25   H5    S    
C50   H26   S    
C40   C42   A    
C10   O26   S    
O20   V3    S    
C25   C27   A    
C37   O21   S    
O23   H17   S    
C5    C7    D    
C3    C12   S    
C29   C39   A    
C49   H23   S    
C5    H1    S    
C8    C45   S    
C18   C20   A    
O4    V2    S    
C33   C43   A    
O11   V4    S    
O16   C48   A    
O27   C49   S    
C14   C24   A    
O6    C4    A    
O19   V4    S    
C49   H22   S    
O1    V2    S    
C5    C9    S    
O14   V4    S    
C41   C48   S    
O2    V1    S    
C29   C31   A    
O13   V3    S    
C44   H12   S    
C41   C43   A    
C6    C10   S    
O4    C2    A    
C18   H4    S    
C21   C31   A    
C28   H8    S    
O17   V3    S    
O3    V1    S    
C1    C16   S    
C6    H2    S    
C26   C28   A    
O3    C1    A    
C34   C44   A    
C40   H10   S    
C50   H24   S    
C4    C11   S    
C22   C24   A    
C36   H14   S    
C1    O8    A    
C15   C17   A    
O8    V2    S    
O29   H27   S    
C16   C18   A    
C13   C23   A    
O5    V1    S    
C49   H21   S    
C19   C21   A    
C42   C44   A    
C6    C8    D    
C9    C11   D    
O7    V1    S    
C7    O23   S    
C30   C40   A    
C2    C15   S    
C13   O29   S    
O9    V2    S    
C27   H7    S    
O10   V1    S    
O22   H16   S    
O12   C48   A    
O11   C47   A    
