data_mof_unit_21264.cif
_audit_creation_date              2012-12-10T18:59:53-0500
_audit_creation_method            fapswitch 2.2
_symmetry_space_group_name_H-M    P1
_symmetry_Int_Tables_number       1
_space_group_crystal_system       triclinic
_cell_length_a                    10.702859
_cell_length_b                    10.616222
_cell_length_c                    9.833774
_cell_angle_alpha                 89.344562
_cell_angle_beta                  90.032545
_cell_angle_gamma                 90.207164
_cell_volume                      1117.27145327

loop_
_atom_site_label
_atom_site_type_symbol
_atom_type_description
_atom_site_fract_x
_atom_site_fract_y
_atom_site_fract_z
_atom_type_partial_charge
C1    C     C_R   0.503563 0.260288 0.500680 0.882687
C2    C     C_R   0.496436 0.739712 0.499320 0.882686
C3    C     C_R   0.872358 0.494082 0.501097 -0.095306
C4    C     C_R   0.127642 0.505918 0.498903 -0.095305
C5    C     C_R   0.938872 0.440803 0.611076 0.033647
C6    C     C_R   0.061128 0.559197 0.388923 0.033647
C7    C     C_R   0.593514 0.062341 0.422573 0.478525
C8    C     C_R   0.406485 0.937659 0.577427 0.478527
C9    C     C_R   0.584253 0.933441 0.419654 -0.171054
C10   C     C_R   0.415746 0.066559 0.580346 -0.171054
C11   C     C_R   0.493251 0.872043 0.497485 -0.219955
C12   C     C_R   0.506749 0.127957 0.502515 -0.219955
C13   C     C_R   0.559139 0.593497 0.070826 -0.008489
C14   C     C_R   0.440861 0.406503 0.929174 -0.008489
C15   C     C_R   0.559248 0.593378 0.926922 -0.052736
C16   C     C_R   0.440752 0.406622 0.073078 -0.052736
C17   C     C_R   0.260108 0.503706 0.499609 0.865950
C18   C     C_R   0.739892 0.496294 0.500391 0.865949
C19   C     C_R   0.228807 0.805322 0.174111 0.200005
C20   C     C_R   0.771192 0.194678 0.825888 0.200005
C21   C     C_R   0.174400 0.744027 0.286174 -0.185106
C22   C     C_R   0.825600 0.255973 0.713826 -0.185106
C23   C     C_R   0.121065 0.623994 0.271536 0.012370
C24   C     C_R   0.878935 0.376006 0.728464 0.012370
C25   C     C_R   0.123124 0.565753 0.144094 -0.104144
C26   C     C_R   0.876876 0.434247 0.855906 -0.104144
C27   C     C_R   0.178763 0.625881 0.031985 0.438394
C28   C     C_R   0.821237 0.374119 0.968015 0.438394
C29   C     C_R   0.231867 0.746361 0.047750 -0.246238
C30   C     C_R   0.768132 0.253639 0.952249 -0.246237
C31   C     C_R   0.933027 0.552022 0.391308 -0.200049
C32   C     C_R   0.066973 0.447978 0.608692 -0.200050
H1    H     H_    0.274615 0.794682 0.961990 0.188890
H2    H     H_    0.725384 0.205318 0.038010 0.188890
H3    H     H_    0.607008 0.667815 0.871555 0.163160
H4    H     H_    0.392992 0.332185 0.128445 0.163160
H5    H     H_    0.172327 0.790199 0.383766 0.157129
H6    H     H_    0.827673 0.209801 0.616234 0.157128
H7    H     H_    0.082230 0.473027 0.132155 0.185391
H8    H     H_    0.917770 0.526973 0.867845 0.185391
H9    H     H_    0.880463 0.595132 0.308733 0.197689
H10   H     H_    0.119537 0.404867 0.691267 0.197689
H11   H     H_    0.651036 0.880602 0.360241 0.179111
H12   H     H_    0.348963 0.119398 0.639758 0.179111
H13   H     H_    0.606734 0.668041 0.124433 0.149050
H14   H     H_    0.393266 0.331958 0.875567 0.149050
N1    N     N_R   0.499970 0.499970 0.857200 -0.099254
N2    N     N_R   0.500030 0.500030 0.142800 -0.099254
O1    O     O_R   0.499990 0.316750 0.614620 -0.618096
O2    O     O_R   0.500010 0.683250 0.385380 -0.618095
O3    O     O_R   0.499990 0.316780 0.385290 -0.607177
O4    O     O_R   0.500010 0.683220 0.614710 -0.607179
O5    O     O_R   0.316760 0.500000 0.614660 -0.626665
O6    O     O_R   0.683240 0.500000 0.385340 -0.626664
O7    O     O_R   0.316760 0.500020 0.385330 -0.607562
O8    O     O_R   0.683240 0.499980 0.614670 -0.607561
Zn1   Zn    Zn3+2 0.500000 0.499980 0.653120 0.963629
Zn2   Zn    Zn3+2 0.500000 0.500020 0.346880 0.963630
I1    I     I_    0.302489 0.988836 0.193160 -0.372694
I2    I     I_    0.697510 0.011164 0.806839 -0.372694
O9    O     O_3   0.179225 0.565141 0.908864 -0.792503
H15   H     H_    0.221120 0.620084 0.840444 0.351833
O10   O     O_3   0.820775 0.434859 0.091136 -0.792503
H16   H     H_    0.778879 0.379917 0.159555 0.351834
O11   O     O_3   0.688797 0.119052 0.349080 -0.761021
H17   H     H_    0.703261 0.205361 0.382674 0.320587
O12   O     O_3   0.311202 0.880948 0.650920 -0.761021
H18   H     H_    0.296741 0.794637 0.617329 0.320588

loop_
_geom_bond_atom_site_label_1
_geom_bond_atom_site_label_2
_ccdc_geom_bond_type
C13   N2    A    
C13   H13   S    
N2    Zn2   S    
C14   N1    A    
C18   O8    A    
C20   I2    S    
C1    O3    A    
C17   O7    A    
C26   C28   A    
C15   N1    A    
C25   C27   A    
C5    C32   A    
C16   N2    A    
C28   C30   A    
C6    C31   A    
C4    C32   A    
O1    Zn1   S    
C14   H14   S    
O3    Zn2   S    
C20   C30   A    
C16   H4    S    
C3    C31   A    
C9    C11   A    
C26   H8    S    
C7    C12   A    
C1    C12   S    
C2    O4    A    
C3    C18   S    
C8    C11   A    
C6    C23   S    
C10   C12   A    
C8    C10   A    
C19   C21   A    
C24   C26   A    
C22   C24   A    
C13   C15   A    
C21   C23   A    
C32   H10   S    
O9    H15   S    
O5    Zn1   S    
C14   C16   A    
C19   C29   A    
C9    H11   S    
N1    Zn1   S    
O4    Zn1   S    
C30   H2    S    
C31   H9    S    
C10   H12   S    
O12   H18   S    
O2    Zn2   S    
C28   O10   S    
C17   O5    A    
C2    O2    A    
C23   C25   A    
C21   H5    S    
O8    Zn1   S    
C8    O12   S    
C4    C6    A    
O11   H17   S    
O6    Zn2   S    
O7    Zn2   S    
C15   H3    S    
C27   C29   A    
C7    C9    A    
C18   O6    A    
C5    C24   S    
C2    C11   S    
C27   O9    S    
C19   I1    S    
C1    O1    A    
C7    O11   S    
C25   H7    S    
O10   H16   S    
C29   H1    S    
C20   C22   A    
C3    C5    A    
C22   H6    S    
C4    C17   S    
