data_mof_unit_9085.cif
_audit_creation_date              2012-12-10T17:10:18-0500
_audit_creation_method            fapswitch 2.2
_symmetry_space_group_name_H-M    P1
_symmetry_Int_Tables_number       1
_space_group_crystal_system       triclinic
_cell_length_a                    15.737372
_cell_length_b                    10.65836
_cell_length_c                    10.099606
_cell_angle_alpha                 90.261
_cell_angle_beta                  91.77046
_cell_angle_gamma                 90.009136
_cell_volume                      1693.2267843

loop_
_atom_site_label
_atom_site_type_symbol
_atom_type_description
_atom_site_fract_x
_atom_site_fract_y
_atom_site_fract_z
_atom_type_partial_charge
C1    C     C_R   0.497410 0.262559 0.499252 0.820858
C2    C     C_3   0.083123 0.514829 0.494628 -0.055822
C3    C     C_3   0.973471 0.625145 0.551278 0.030280
C4    C     C_3   0.916288 0.513334 0.506469 -0.065012
C5    C     C_3   0.023634 0.609732 0.421804 0.040785
C6    C     C_3   0.966253 0.498276 0.379296 0.328407
C7    C     C_1   0.174002 0.510511 0.491629 0.020872
C8    C     C_1   0.825630 0.508331 0.508227 0.037830
C9    C     C_2   0.535965 0.935064 0.392662 0.481683
C10   C     C_2   0.544381 0.863324 0.502618 -0.032786
C11   C     C_2   0.540294 0.070268 0.406001 -0.360198
C12   C     C_R   0.338117 0.500697 0.498013 0.908579
C13   C     C_2   0.492649 0.128785 0.494753 0.262634
C14   C     C_2   0.531776 0.413418 0.926620 -0.158815
C15   C     C_2   0.547433 0.431213 0.073201 -0.067314
C16   C     C_R   0.510675 0.736394 0.500600 0.928754
C17   C     C_R   0.661790 0.500048 0.501916 0.865719
C18   C     C_3   0.976143 0.420312 0.577358 0.320924
C19   C     C_3   0.025587 0.405455 0.450551 0.321692
C20   C     C_1   0.249219 0.505690 0.493377 -0.181947
C21   C     C_1   0.750513 0.504051 0.506365 -0.174268
C22   C     C_3   0.033508 0.530018 0.623818 -0.004742
H1    H     H_    0.549785 0.325108 0.881753 0.166274
H2    H     H_    0.507727 0.590644 0.890169 0.185521
H3    H     H_    0.598839 0.378113 0.119886 0.141291
H4    H     H_    0.578867 0.121883 0.337185 0.129479
N1    N     N_2   0.500900 0.501330 0.852150 -0.194820
N2    N     N_2   0.500930 0.501360 0.147810 -0.095006
O1    O     O_R   0.499990 0.319060 0.613040 -0.617591
O2    O     O_R   0.500010 0.319100 0.386900 -0.634014
O3    O     O_R   0.376760 0.499970 0.613050 -0.600425
O4    O     O_R   0.376790 0.500010 0.386910 -0.632841
O5    O     O_R   0.499990 0.680900 0.613100 -0.634793
O6    O     O_R   0.500010 0.680940 0.386960 -0.557616
O7    O     O_R   0.623210 0.499990 0.613090 -0.617278
O8    O     O_R   0.623240 0.500030 0.386950 -0.606810
Zn1   Zn    Zn3+2 0.499980 0.499970 0.650990 0.938510
Zn2   Zn    Zn3+2 0.500020 0.500030 0.349010 0.954739
O9    O     O_3   0.054775 0.292357 0.398037 -0.745704
H5    H     H_    0.003408 0.239499 0.384286 0.336076
O10   O     O_3   0.438387 0.063404 0.575026 -0.782698
H6    H     H_    0.406766 0.124557 0.629015 0.336575
C23   C     C_3   0.413487 0.531909 0.105496 -0.140868
C24   C     C_3   0.357393 0.413632 0.096107 -0.337210
C25   C     C_3   0.263673 0.447431 0.079147 -0.905772
H7    H     H_    0.242657 0.503870 0.164927 0.273937
H8    H     H_    0.252825 0.501532 0.986383 0.261680
H9    H     H_    0.225213 0.360139 0.072986 0.267538
H10   H     H_    0.375388 0.355352 0.010045 0.216045
H11   H     H_    0.366618 0.355756 0.186539 0.252992
H12   H     H_    0.387706 0.597621 0.179280 0.217813
H13   H     H_    0.407351 0.587295 0.014290 0.130718
O11   O     O_3   0.948567 0.321631 0.656060 -0.764817
H14   H     H_    0.000997 0.277247 0.686013 0.339666
O12   O     O_3   0.927842 0.479268 0.254213 -0.780609
H15   H     H_    0.897069 0.398410 0.259732 0.337536
C26   C     C_3   0.058148 0.711535 0.331478 -0.377062
C27   C     C_3   0.986914 0.788999 0.264641 -0.332832
C28   C     C_3   0.022397 0.880328 0.164375 -0.880439
H16   H     H_    0.068175 0.945868 0.214169 0.276203
H17   H     H_    0.054861 0.828512 0.084804 0.264501
H18   H     H_    0.969611 0.935803 0.118508 0.253673
H19   H     H_    0.940213 0.726352 0.212858 0.261501
H20   H     H_    0.952928 0.843720 0.340117 0.220211
H21   H     H_    0.101325 0.773978 0.390541 0.191619
H22   H     H_    0.096905 0.665411 0.255386 0.209611
C29   C     C_3   0.933602 0.744592 0.607501 -0.386709
C30   C     C_3   0.999810 0.845097 0.645253 -0.359074
C31   C     C_3   0.958744 0.955852 0.715003 -0.843752
H23   H     H_    0.908330 0.998232 0.650052 0.275491
H24   H     H_    0.930619 0.924765 0.808920 0.254955
H25   H     H_    0.007639 0.028337 0.738667 0.257031
H26   H     H_    0.050025 0.805452 0.712126 0.227086
H27   H     H_    0.030281 0.880221 0.555151 0.231308
H28   H     H_    0.887305 0.783057 0.533125 0.192326
H29   H     H_    0.897041 0.718529 0.695390 0.199507
C32   C     C_3   0.078119 0.538531 0.760015 -0.392274
C33   C     C_3   0.014750 0.558083 0.869900 -0.331858
C34   C     C_3   0.058538 0.545822 0.005224 -0.855629
H30   H     H_    0.079786 0.447738 0.021960 0.282762
H31   H     H_    0.113587 0.610770 0.014296 0.247088
H32   H     H_    0.012800 0.571228 0.081329 0.310632
H33   H     H_    0.986815 0.653316 0.862874 0.222529
H34   H     H_    0.962578 0.487980 0.861305 0.268830
H35   H     H_    0.113930 0.449896 0.777288 0.210006
H36   H     H_    0.124621 0.616929 0.760663 0.192749
O13   O     O_3   0.512340 0.883974 0.270675 -0.760719
H37   H     H_    0.506817 0.952599 0.204902 0.328790
C35   C     C_3   0.591014 0.908431 0.629834 -0.430735
C36   C     C_3   0.672113 0.831800 0.658679 -0.398842
C37   C     C_3   0.721205 0.882579 0.780155 -0.856604
H38   H     H_    0.743475 0.979683 0.761870 0.266516
H39   H     H_    0.680318 0.882356 0.867854 0.267247
H40   H     H_    0.777368 0.822359 0.801878 0.247868
H41   H     H_    0.655782 0.732519 0.677659 0.254081
H42   H     H_    0.713807 0.835146 0.571855 0.216805
H43   H     H_    0.610920 0.007993 0.624360 0.225202
H44   H     H_    0.547722 0.900551 0.714330 0.244773

loop_
_geom_bond_atom_site_label_1
_geom_bond_atom_site_label_2
_ccdc_geom_bond_type
C24   H10   S    
O12   H15   S    
O10   H6    S    
C2    C7    S    
H2    N1    S    
C6    O12   S    
C4    C8    S    
C13   O10   S    
C36   C37   S    
C36   H41   S    
O11   H14   S    
C6    C19   S    
O7    Zn1   S    
C5    C6    S    
C23   H13   S    
C15   H3    S    
C30   H27   S    
O2    Zn2   S    
C18   C19   S    
C31   H24   S    
C18   O11   S    
C16   O6    A    
C33   H33   S    
C10   C35   S    
C30   C31   S    
C2    C22   S    
C17   O8    A    
O4    Zn2   S    
C14   N1    D    
C9    C10   D    
C26   H22   S    
C4    C18   S    
C32   H35   S    
C28   H16   S    
O6    Zn2   S    
C12   O4    A    
C25   H8    S    
C27   H20   S    
C28   H17   S    
C29   C30   S    
C4    C6    S    
O9    H5    S    
C34   H31   S    
C33   C34   S    
C11   H4    S    
C30   H26   S    
C32   C33   S    
C17   C21   S    
O3    Zn1   S    
C35   H43   S    
C14   H1    S    
C31   H25   S    
C23   C24   S    
C33   H34   S    
C16   O5    A    
C37   H39   S    
N2    Zn2   S    
C12   C20   S    
C1    O1    A    
C8    C21   T    
C9    C11   S    
C19   O9    S    
C32   H36   S    
C12   O3    A    
C2    C5    S    
C29   H28   S    
C15   N2    D    
C3    C4    S    
C37   H38   S    
C24   C25   S    
C25   H9    S    
C24   H11   S    
C27   H19   S    
C28   H18   S    
C2    C19   S    
C18   C22   S    
C3    C29   S    
C22   C32   S    
C26   H21   S    
C3    C5    S    
C34   H32   S    
C36   H42   S    
N2    C23   S    
C5    C26   S    
C35   H44   S    
O8    Zn2   S    
C27   C28   S    
C10   C16   S    
C9    O13   S    
C37   H40   S    
C11   C13   D    
C23   H12   S    
C26   C27   S    
N1    Zn1   S    
C1    O2    A    
C31   H23   S    
O5    Zn1   S    
C34   H30   S    
C25   H7    S    
C1    C13   S    
O13   H37   S    
C7    C20   T    
O1    Zn1   S    
C14   C15   S    
C3    C22   S    
C29   H29   S    
C17   O7    A    
C35   C36   S    
