data_mof_unit_58251.cif
_audit_creation_date              2012-12-10T19:44:33-0500
_audit_creation_method            fapswitch 2.2
_symmetry_space_group_name_H-M    P1
_symmetry_Int_Tables_number       1
_space_group_crystal_system       triclinic
_cell_length_a                    8.584064
_cell_length_b                    14.978772
_cell_length_c                    14.192395
_cell_angle_alpha                 89.772906
_cell_angle_beta                  98.411703
_cell_angle_gamma                 90.34032
_cell_volume                      1805.16878768

loop_
_atom_site_label
_atom_site_type_symbol
_atom_type_description
_atom_site_fract_x
_atom_site_fract_y
_atom_site_fract_z
_atom_type_partial_charge
C1    C     C_R   0.502865 0.327653 0.500389 0.853907
C2    C     C_R   0.378969 0.460135 0.885118 -0.382336
C3    C     C_R   0.504134 0.498349 0.053724 0.109270
C4    C     C_R   0.504021 0.498521 0.947055 0.109563
C5    C     C_R   0.201134 0.499425 0.475200 0.975827
C6    C     C_R   0.798843 0.500193 0.524797 0.952063
C7    C     C_2   0.036204 0.497242 0.461830 -0.411936
C8    C     C_2   0.963731 0.501610 0.538168 -0.370407
C9    C     C_R   0.498846 0.091566 0.582005 -0.178658
C10   C     C_R   0.477974 0.908011 0.418124 -0.188246
C11   C     C_R   0.485548 0.183386 0.581217 -0.199484
C12   C     C_R   0.502323 0.672227 0.499997 0.853754
C13   C     C_R   0.464071 0.816134 0.417526 -0.170334
C14   C     C_R   0.517818 0.231867 0.501837 -0.020999
C15   C     C_R   0.516193 0.767870 0.500527 -0.019833
C16   C     C_R   0.569334 0.188611 0.424793 -0.197208
C17   C     C_R   0.586719 0.811082 0.583255 -0.195540
C18   C     C_R   0.585234 0.096908 0.426310 -0.184390
C19   C     C_R   0.602985 0.902869 0.583391 -0.183016
C20   C     C_R   0.547291 0.048122 0.504147 0.120419
C21   C     C_R   0.546357 0.951574 0.501295 0.115624
C22   C     C_3   0.801547 0.647911 0.263270 0.097415
C23   C     C_R   0.432291 0.429028 0.099708 -0.285572
C24   C     C_3   0.834787 0.741762 0.229597 -0.867370
C25   C     C_3   0.216453 0.335407 0.747891 0.072010
C26   C     C_3   0.048085 0.331900 0.770014 -0.858251
C27   C     C_R   0.627287 0.537716 0.905374 -0.283378
C28   C     C_R   0.430668 0.431435 0.198660 -0.098360
C29   C     C_R   0.622356 0.538345 0.805805 -0.091950
C30   C     C_R   0.575009 0.567132 0.210940 0.635597
C31   C     C_R   0.380595 0.458592 0.785390 0.644425
C32   C     C_R   0.574311 0.568252 0.111109 -0.375784
H1    H     H_    0.974862 0.491544 0.389389 0.167294
H2    H     H_    0.657980 0.935904 0.647623 0.130018
H3    H     H_    0.378538 0.372556 0.059891 0.146124
H4    H     H_    0.728039 0.567252 0.949191 0.147925
H5    H     H_    0.374205 0.377908 0.232565 0.153106
H6    H     H_    0.717469 0.569317 0.775089 0.153133
H7    H     H_    0.625981 0.624613 0.078952 0.154793
H8    H     H_    0.278596 0.432908 0.913562 0.153718
H9    H     H_    0.852487 0.598229 0.218024 0.106311
H10   H     H_    0.864789 0.639832 0.336770 0.176426
H11   H     H_    0.774246 0.752485 0.155871 0.245064
H12   H     H_    0.024924 0.507215 0.610587 0.220482
H13   H     H_    0.792331 0.791856 0.277313 0.268067
H14   H     H_    0.963461 0.751110 0.230733 0.215640
H15   H     H_    0.298076 0.304996 0.807671 0.107097
H16   H     H_    0.221896 0.292849 0.684631 0.168397
H17   H     H_    0.965368 0.356119 0.707727 0.267718
H18   H     H_    0.016245 0.262062 0.785991 0.214155
H19   H     H_    0.036133 0.374285 0.832483 0.245662
H20   H     H_    0.466889 0.054429 0.642038 0.129061
H21   H     H_    0.431191 0.945084 0.354681 0.132713
H22   H     H_    0.447537 0.216082 0.641722 0.137846
H23   H     H_    0.409692 0.783069 0.353137 0.167196
H24   H     H_    0.597974 0.225527 0.363743 0.153936
H25   H     H_    0.630380 0.773935 0.647259 0.151496
H26   H     H_    0.625028 0.063969 0.366389 0.130868
N1    N     N_R   0.500000 0.499980 0.252470 -0.130140
N2    N     N_R   0.500000 0.500020 0.747530 -0.128179
O1    O     O_R   0.500010 0.369070 0.579480 -0.614530
O2    O     O_3   0.254789 0.423908 0.723888 -0.604792
O3    O     O_R   0.499990 0.630930 0.420520 -0.570066
O4    O     O_R   0.500010 0.369060 0.420520 -0.638081
O5    O     O_R   0.499990 0.630940 0.579480 -0.632912
O6    O     O_R   0.271750 0.500000 0.560890 -0.558313
O7    O     O_R   0.728250 0.500000 0.439110 -0.608460
O8    O     O_R   0.271750 0.499990 0.401930 -0.636846
O9    O     O_R   0.728250 0.500010 0.598070 -0.638322
O10   O     O_3   0.638257 0.637877 0.266455 -0.597126
Zn1   Zn    Zn3+2 0.500000 0.500010 0.606140 0.970983
Zn2   Zn    Zn3+2 0.500000 0.499990 0.393860 0.965717

loop_
_geom_bond_atom_site_label_1
_geom_bond_atom_site_label_2
_ccdc_geom_bond_type
C29   H6    S    
C31   N2    A    
C6    O9    A    
C2    C4    A    
C16   H24   S    
C15   C17   A    
C27   H4    S    
C27   C29   A    
C7    H1    S    
C12   O5    A    
C25   H15   S    
C9    C20   A    
C23   H3    S    
O6    Zn1   S    
C31   O2    S    
C29   N2    A    
N1    Zn2   S    
O8    Zn2   S    
C24   H14   S    
C30   N1    A    
O1    Zn1   S    
C26   H18   S    
C5    C7    S    
C7    C8    D    
C10   C21   A    
O5    Zn1   S    
C26   H19   S    
O3    Zn2   S    
C30   C32   A    
C9    C11   A    
C25   H16   S    
C22   H10   S    
C9    H20   S    
C28   H5    S    
C5    O8    A    
C24   H13   S    
C22   C24   S    
C11   H22   S    
C6    O7    A    
C30   O10   S    
C18   H26   S    
C10   C13   A    
C12   C15   S    
C18   C20   A    
C25   O2    S    
O4    Zn2   S    
C13   C15   A    
C32   H7    S    
C3    C32   A    
C11   C14   A    
C14   C16   A    
C28   N1    A    
C22   H9    S    
C13   H23   S    
C3    C4    S    
C1    O4    A    
C2    H8    S    
C4    C27   A    
C20   C21   S    
C10   H21   S    
C12   O3    A    
C16   C18   A    
O7    Zn2   S    
C26   H17   S    
O9    Zn1   S    
C24   H11   S    
C5    O6    A    
C6    C8    S    
C1    C14   S    
N2    Zn1   S    
C17   C19   A    
C25   C26   S    
C23   C28   A    
C3    C23   A    
C22   O10   S    
C8    H12   S    
C17   H25   S    
C2    C31   A    
C19   C21   A    
C19   H2    S    
C1    O1    A    
