data_mof_unit_58758.cif
_audit_creation_date              2012-12-10T20:44:49-0500
_audit_creation_method            fapswitch 2.2
_symmetry_space_group_name_H-M    P1
_symmetry_Int_Tables_number       1
_space_group_crystal_system       triclinic
_cell_length_a                    9.892806
_cell_length_b                    10.701781
_cell_length_c                    16.687898
_cell_angle_alpha                 88.451557
_cell_angle_beta                  94.231938
_cell_angle_gamma                 87.523306
_cell_volume                      1759.48615286

loop_
_atom_site_label
_atom_site_type_symbol
_atom_type_description
_atom_site_fract_x
_atom_site_fract_y
_atom_site_fract_z
_atom_type_partial_charge
C1    C     C_R   0.503138 0.259658 0.505169 0.882954
C2    C     C_R   0.506841 0.126094 0.509022 -0.022143
C3    C     C_R   0.397898 0.064832 0.539028 -0.171085
C4    C     C_R   0.516865 0.503807 0.653763 1.029142
C5    C     C_R   0.388397 0.937281 0.529435 -0.134365
C6    C     C_R   0.485299 0.872382 0.487138 -0.059658
C7    C     C_R   0.576395 0.938545 0.444305 0.029434
C8    C     C_3   0.723283 0.913206 0.432411 0.164983
C9    C     C_3   0.747589 0.036423 0.472984 0.127327
C10   C     C_R   0.081610 0.437446 0.559124 0.125943
C11   C     C_R   0.058638 0.580153 0.449615 0.451739
C12   C     C_R   0.648900 0.519009 0.786655 0.535475
C13   C     C_R   0.915636 0.575956 0.449228 -0.074211
C14   C     C_R   0.939670 0.440431 0.560446 0.157066
C15   C     C_3   0.942174 0.306140 0.584027 0.586757
C16   C     C_R   0.496343 0.739851 0.495362 0.911433
C17   C     C_3   0.095042 0.301505 0.579878 -0.522914
C18   C     C_R   0.483355 0.490777 0.346179 1.053808
C19   C     C_R   0.523590 0.521943 0.740700 -0.517755
C20   C     C_R   0.403127 0.548084 0.778240 0.482065
C21   C     C_R   0.406712 0.557557 0.860661 0.560105
C22   C     C_R   0.530099 0.539465 0.907670 -0.088261
C23   C     C_R   0.554378 0.372889 0.136449 0.208693
C24   C     C_R   0.652810 0.530973 0.870081 0.247902
C25   C     C_R   0.576245 0.393301 0.220296 0.199156
C26   C     C_R   0.439440 0.430850 0.093664 -0.052395
C27   C     C_R   0.472233 0.461672 0.259244 -0.421540
C28   C     C_R   0.347541 0.494445 0.215629 0.520901
C29   C     C_R   0.330692 0.478632 0.133503 0.280670
C30   C     C_R   0.596262 0.060573 0.463564 0.028144
F1    F     F_    0.905514 0.290641 0.661991 -0.505249
F2    F     F_    0.767206 0.501653 0.751056 -0.513967
F3    F     F_    0.242641 0.547805 0.252074 -0.554634
F4    F     F_    0.288653 0.581191 0.895147 -0.538274
F5    F     F_    0.280485 0.562893 0.735933 -0.552141
H1    H     H_    0.311720 0.888727 0.559566 0.212820
H2    H     H_    0.744950 0.786327 0.231857 0.407709
H3    H     H_    0.807391 0.855965 0.665676 0.421004
H4    H     H_    0.120662 0.907384 0.414405 0.398976
H5    H     H_    0.518093 0.196778 0.992352 0.376078
H6    H     H_    0.001368 0.619380 0.909261 0.442739
H7    H     H_    0.015332 0.603790 0.148689 0.405429
H8    H     H_    0.775141 0.830256 0.463833 0.182926
H9    H     H_    0.807153 0.102839 0.439489 0.172104
H10   H     H_    0.850151 0.636329 0.408918 0.224598
H11   H     H_    0.886429 0.250612 0.538566 0.095359
H12   H     H_    0.152626 0.281596 0.638904 0.263124
H13   H     H_    0.128668 0.245476 0.529276 0.177868
H14   H     H_    0.323874 0.114334 0.572415 0.174190
H15   H     H_    0.827277 0.511638 0.242290 0.383196
N1    N     N_2   0.530562 0.519266 0.991588 -0.011323
N2    N     N_2   0.437108 0.452011 0.010195 -0.000370
N3    N     N_R   0.142860 0.499130 0.500540 -0.173742
N4    N     N_R   0.857210 0.499170 0.500530 -0.178486
O1    O     O_R   0.614690 0.316790 0.499990 -0.596696
O2    O     O_2   0.821875 0.251024 0.234247 -0.117916
O3    O     O_3   0.822546 0.468243 0.295108 -0.510191
O4    O     O_2   0.646747 0.012072 0.283812 -0.210719
O5    O     O_2   0.888719 0.959915 0.314235 -0.198882
O6    O     O_3   0.725752 0.777464 0.289115 -0.543936
O7    O     O_2   0.960629 0.012903 0.584519 -0.267107
O8    O     O_2   0.747139 0.103424 0.629015 -0.228075
O9    O     O_3   0.766139 0.865075 0.609787 -0.548530
O10   O     O_2   0.252502 0.707696 0.368478 -0.222271
O11   O     O_2   0.019044 0.720545 0.314898 -0.214864
O12   O     O_R   0.385350 0.316760 0.500000 -0.648571
O13   O     O_3   0.081930 0.838400 0.444753 -0.553088
O14   O     O_2   0.798524 0.318586 0.081199 -0.111639
O15   O     O_2   0.669645 0.141971 0.124997 -0.180971
O16   O     O_3   0.597367 0.249347 0.987903 -0.497125
O17   O     O_2   0.800082 0.573595 0.009160 -0.248377
O18   O     O_2   0.875410 0.399699 0.927359 -0.111374
O19   O     O_3   0.912779 0.626330 0.877384 -0.431499
O20   O     O_2   0.182625 0.657557 0.048552 -0.224297
O21   O     O_2   0.148914 0.441419 0.009991 -0.157747
O22   O     O_3   0.044748 0.516118 0.139215 -0.425611
O23   O     O_R   0.627460 0.498860 0.616130 -0.539049
O24   O     O_R   0.398120 0.498820 0.616130 -0.569157
O25   O     O_R   0.614650 0.683240 0.500000 -0.627439
O26   O     O_R   0.385310 0.683210 0.500010 -0.581836
O27   O     O_R   0.601880 0.501180 0.383870 -0.553239
O28   O     O_R   0.372540 0.501140 0.383870 -0.534690
O29   O     O_2   0.700975 0.279872 0.352881 -0.302714
S1    S     S_3+6 0.732613 0.341758 0.275381 0.130528
S2    S     S_3+6 0.747967 0.919865 0.326792 0.097588
S3    S     S_3+6 0.808711 0.007205 0.577056 0.039506
S4    S     S_3+6 0.109443 0.709880 0.391383 0.119366
S5    S     S_3+6 0.659235 0.268624 0.083229 0.171576
S6    S     S_3+6 0.812675 0.530256 0.924994 0.213731
S7    S     S_3+6 0.174582 0.525190 0.079789 0.187558
Zn1   Zn    Zn3+2 0.653130 0.500020 0.499990 1.085750
Zn2   Zn    Zn3+2 0.346870 0.499980 0.500010 1.082703

loop_
_geom_bond_atom_site_label_1
_geom_bond_atom_site_label_2
_ccdc_geom_bond_type
C19   C20   A    
C17   H13   S    
O16   S5    S    
C24   S6    S    
C3    H14   S    
C7    C8    S    
O8    S3    D    
H5    O16   S    
C8    S2    S    
C28   C29   A    
H3    O9    S    
C5    C6    A    
C10   C17   S    
C5    H1    S    
C18   O27   A    
O28   Zn2   S    
C1    C2    S    
C23   C26   A    
C10   N3    A    
O1    Zn1   S    
O21   S7    D    
C4    C19   S    
C11   S4    S    
C8    C9    S    
C25   S1    S    
C8    H8    S    
O11   S4    D    
O10   S4    D    
O25   Zn1   S    
C11   N3    A    
C7    C30   A    
C21   C22   A    
C12   F2    S    
C20   F5    S    
C29   S7    S    
O2    S1    D    
N1    N2    D    
C10   C14   A    
O12   Zn2   S    
C21   F4    S    
O24   Zn2   S    
C6    C16   S    
O13   S4    S    
C16   O26   A    
O26   Zn2   S    
O5    S2    D    
C4    O24   A    
C26   N2    S    
C9    S3    S    
O29   S1    D    
O17   S6    D    
N3    Zn2   S    
C1    O12   A    
O3    S1    S    
O15   S5    D    
C9    C30   S    
C14   N4    A    
C28   F3    S    
C23   S5    S    
O9    S3    S    
O14   S5    D    
C22   C24   A    
O4    S2    D    
C13   N4    A    
C15   C17   S    
O23   Zn1   S    
C9    H9    S    
H15   O3    S    
H4    O13   S    
C18   C27   S    
C17   H12   S    
C3    C5    A    
O6    S2    S    
C15   F1    S    
C6    C7    A    
C25   C27   A    
C12   C24   A    
H7    O22   S    
C2    C30   A    
C16   O25   A    
O20   S7    D    
C2    C3    A    
C1    O1    A    
O19   S6    S    
N4    Zn1   S    
C13   H10   S    
O18   S6    D    
C11   C13   A    
C12   C19   A    
C18   O28   A    
C23   C25   A    
H2    O6    S    
O7    S3    D    
H6    O19   S    
O27   Zn1   S    
C4    O23   A    
C20   C21   A    
C26   C29   A    
C27   C28   A    
C14   C15   S    
C15   H11   S    
O22   S7    S    
C22   N1    S    
