data_mof_unit_24130.cif
_audit_creation_date              2012-12-11T14:58:36-0500
_audit_creation_method            fapswitch 2.2
_symmetry_space_group_name_H-M    P1
_symmetry_Int_Tables_number       1
_space_group_crystal_system       triclinic
_cell_length_a                    10.945666
_cell_length_b                    10.937526
_cell_length_c                    18.858123
_cell_angle_alpha                 90.106888
_cell_angle_beta                  90.600273
_cell_angle_gamma                 59.8579
_cell_volume                      1952.26854627

loop_
_atom_site_label
_atom_site_type_symbol
_atom_type_description
_atom_site_fract_x
_atom_site_fract_y
_atom_site_fract_z
_atom_type_partial_charge
C1    C     C_R   0.359235 0.771545 0.397101 0.589980
C2    C     C_R   0.230911 0.423340 0.203192 -0.146314
C3    C     C_R   0.235720 0.436529 0.276280 -0.044832
C4    C     C_R   0.387381 0.356108 0.387235 0.539956
C5    C     C_R   0.905324 0.762324 0.400505 -0.127411
C6    C     C_R   0.962882 0.620121 0.419424 0.113643
C7    C     C_R   0.056701 0.514168 0.373586 -0.036690
C8    C     C_R   0.107558 0.549200 0.313026 0.015358
C9    C     C_R   0.364783 0.345607 0.311894 -0.005112
C10   C     C_R   0.848345 0.232535 0.294946 -0.159770
C11   C     C_R   0.871668 0.220501 0.222677 -0.144357
C12   C     C_R   0.611895 0.134784 0.164161 0.043250
C13   C     C_R   0.863960 0.334374 0.184466 0.012889
C14   C     C_R   0.832657 0.459715 0.218863 -0.148094
C15   C     C_R   0.812837 0.470296 0.290787 -0.136674
C16   C     C_R   0.773984 0.381320 0.401955 0.556627
C17   C     C_R   0.821250 0.356633 0.329458 0.015194
C18   C     C_R   0.431540 0.697256 0.275591 -0.134153
C19   C     C_R   0.424310 0.723950 0.202735 0.068634
C20   C     C_R   0.344325 0.864016 0.179189 0.063945
C21   C     C_R   0.278179 0.975896 0.227662 -0.142062
C22   C     C_R   0.287097 0.948812 0.300298 0.068407
C23   C     C_R   0.351138 0.327103 0.164919 0.011018
C24   C     C_R   0.358649 0.808717 0.323567 0.073053
C25   C     C_R   0.373453 0.199007 0.693228 0.075598
C26   C     C_R   0.359635 0.186068 0.765261 -0.127220
C27   C     C_R   0.295569 0.306664 0.808592 0.001932
C28   C     C_R   0.347451 0.764575 0.606001 0.595946
C29   C     C_R   0.231786 0.441393 0.778882 -0.172265
C30   C     C_R   0.244452 0.455108 0.706660 -0.171601
C31   C     C_R   0.321519 0.333865 0.664355 0.066140
C32   C     C_R   0.903260 0.376625 0.711549 -0.154965
C33   C     C_R   0.924501 0.366990 0.783782 -0.162678
C34   C     C_R   0.486398 0.256023 0.273044 -0.153057
C35   C     C_R   0.859281 0.312307 0.827304 0.062502
C36   C     C_R   0.778946 0.257747 0.797281 0.071971
C37   C     C_R   0.757065 0.268764 0.723798 -0.124514
C38   C     C_R   0.815781 0.332294 0.681647 0.010297
C39   C     C_R   0.192634 0.878134 0.708813 0.048099
C40   C     C_R   0.369204 0.350762 0.595639 0.582235
C41   C     C_R   0.176941 0.895073 0.781568 -0.137261
C42   C     C_R   0.295491 0.847240 0.825943 -0.009507
C43   C     C_R   0.430433 0.782455 0.798170 -0.139540
C44   C     C_R   0.449595 0.762585 0.725524 0.046033
C45   C     C_R   0.481794 0.243654 0.200446 -0.029131
C46   C     C_R   0.329318 0.809310 0.680031 0.074372
C47   C     C_R   0.912995 0.314583 0.112393 0.537411
C48   C     C_R   0.327521 0.292987 0.093200 0.547242
C49   C     C_R   0.308509 0.898600 0.105171 0.580081
C50   C     C_R   0.889088 0.306586 0.902664 0.557339
C51   C     C_R   0.292106 0.285028 0.883841 0.543220
C52   C     C_R   0.764273 0.375086 0.610007 0.573654
C53   C     C_R   0.274486 0.894488 0.898264 0.548989
C54   C     C_R   0.824285 0.930355 0.077134 0.076862
C55   C     C_R   0.766903 0.074521 0.062658 -0.084530
C56   C     C_R   0.046815 0.694369 0.294125 0.121731
C57   C     C_R   0.663699 0.176018 0.106544 -0.116923
C58   C     C_R   0.944748 0.798565 0.337536 -0.060264
C59   C     C_R   0.672239 0.988263 0.179482 0.104638
C60   C     C_R   0.777456 0.888133 0.135713 -0.003943
Cr1   Cr    Cr6+3 0.601770 0.606860 0.505860 1.016728
Cr2   Cr    Cr6+3 0.291380 0.601660 0.495070 1.032717
Cr3   Cr    Cr6+3 0.606880 0.291510 0.499120 1.021814
Cr4   Cr    Cr6+3 0.062440 0.063090 0.008210 0.993979
Cr5   Cr    Cr6+3 0.062880 0.375170 0.998920 1.023298
Cr6   Cr    Cr6+3 0.374700 0.061720 0.992470 1.025862
H1    H     H_    0.831875 0.844969 0.435286 0.100845
H2    H     H_    0.899770 0.908912 0.323682 0.120070
H3    H     H_    0.520804 0.750301 0.833192 0.125150
H4    H     H_    0.800130 0.107875 0.016443 0.160426
H5    H     H_    0.588294 0.195557 0.299180 0.140157
H6    H     H_    0.827404 0.641817 0.496831 0.251799
H7    H     H_    0.984483 0.614982 0.525506 0.220261
H8    H     H_    0.101302 0.404380 0.389019 0.126942
H9    H     H_    0.899490 0.121043 0.197357 0.161140
H10   H     H_    0.488249 0.589077 0.294870 0.114911
H11   H     H_    0.569073 0.617731 0.127623 0.235045
H12   H     H_    0.851806 0.145497 0.323827 0.124703
H13   H     H_    0.536068 0.512680 0.178985 0.231450
H14   H     H_    0.820569 0.776537 0.146373 0.134439
H15   H     H_    0.117593 0.123508 0.338220 0.239973
H16   H     H_    0.270122 0.126020 0.342652 0.227778
H17   H     H_    0.389472 0.020865 0.653048 0.230457
H18   H     H_    0.545989 0.011515 0.671187 0.217728
H19   H     H_    0.949331 0.425056 0.679527 0.141799
H20   H     H_    0.991004 0.404838 0.805874 0.152447
H21   H     H_    0.638330 0.279382 0.871553 0.230776
H22   H     H_    0.664331 0.157913 0.810090 0.229406
H23   H     H_    0.826780 0.548741 0.190651 0.138793
H24   H     H_    0.010081 0.041828 0.671870 0.236744
H25   H     H_    0.008804 0.888608 0.680543 0.226381
H26   H     H_    0.071093 0.952014 0.802898 0.157581
H27   H     H_    0.607093 0.769575 0.674626 0.226846
H28   H     H_    0.665323 0.649632 0.739915 0.223906
H29   H     H_    0.014524 0.841684 0.030355 0.267739
H30   H     H_    0.885179 0.842559 0.980508 0.226735
H31   H     H_    0.618323 0.286913 0.093322 0.114917
H32   H     H_    0.058959 0.712592 0.187816 0.233542
H33   H     H_    0.202128 0.688449 0.234428 0.260417
H34   H     H_    0.785852 0.570176 0.315388 0.161114
H35   H     H_    0.650655 0.964873 0.284375 0.224460
H36   H     H_    0.513586 0.987054 0.232715 0.249534
H37   H     H_    0.129382 0.483421 0.176761 0.146042
H38   H     H_    0.217438 0.084196 0.208798 0.118297
H39   H     H_    0.402079 0.080900 0.787496 0.141930
H40   H     H_    0.178103 0.534812 0.811666 0.131289
H41   H     H_    0.202940 0.560586 0.685111 0.148592
H42   H     H_    0.687935 0.235349 0.700172 0.138822
N1    N     N_3   0.935993 0.582636 0.487755 -0.594422
N2    N     N_3   0.623306 0.937550 0.236178 -0.648443
N3    N     N_3   0.488342 0.610197 0.152667 -0.636558
N4    N     N_3   0.225084 0.062385 0.350139 -0.628150
N5    N     N_3   0.444629 0.075524 0.649977 -0.606934
N6    N     N_3   0.716039 0.197575 0.841311 -0.624191
N7    N     N_3   0.069339 0.932775 0.664189 -0.603620
N8    N     N_3   0.591043 0.692902 0.698625 -0.575824
N9    N     N_3   0.928159 0.825727 0.031754 -0.639667
N10   N     N_3   0.092245 0.740295 0.233989 -0.625166
O1    O     O_R   0.748800 0.497470 0.428000 -0.520733
O2    O     O_R   0.417600 0.174890 0.067840 -0.505216
O3    O     O_R   0.375320 0.946260 0.070860 -0.501698
O4    O     O_R   0.476420 0.724060 0.429470 -0.510952
O5    O     O_R   0.160600 0.919630 0.926660 -0.529537
O6    O     O_R   0.933060 0.190520 0.936020 -0.496404
O7    O     O_R   0.908880 0.403460 0.925020 -0.531389
O8    O     O_R   0.179600 0.361450 0.918490 -0.504930
O9    O     O_R   0.391510 0.170860 0.907530 -0.523672
O10   O     O_R   0.351130 0.942530 0.922260 -0.508048
O11   O     O_3   0.166667 0.166667 0.999870 -0.259089
O12   O     O_R   0.300070 0.471040 0.567100 -0.524303
O13   O     O_R   0.264580 0.744340 0.416750 -0.500838
O14   O     O_R   0.309380 0.472470 0.418200 -0.495373
O15   O     O_R   0.501710 0.260430 0.414300 -0.529381
O16   O     O_R   0.728090 0.305600 0.428960 -0.509589
O17   O     O_R   0.738760 0.495930 0.588610 -0.494130
O18   O     O_R   0.467110 0.722640 0.578360 -0.487979
O19   O     O_R   0.254530 0.742800 0.577360 -0.489663
O20   O     O_R   0.491670 0.258900 0.574910 -0.484083
O21   O     O_R   0.718780 0.304180 0.577850 -0.510490
O22   O     O_3   0.500010 0.500010 0.500020 -0.268048
O23   O     O_R   0.186690 0.923650 0.086970 -0.515771
O24   O     O_R   0.957250 0.194250 0.084630 -0.521254
O25   O     O_R   0.934970 0.407490 0.085330 -0.522914
O26   O     O_R   0.203780 0.365190 0.067090 -0.502704

loop_
_geom_bond_atom_site_label_1
_geom_bond_atom_site_label_2
_ccdc_geom_bond_type
C25   C31   A    
H18   N5    S    
C23   C45   A    
C30   H41   S    
Cr1   O1    S    
C11   C13   A    
Cr3   O22   S    
H17   N5    S    
C35   C36   A    
C15   H34   S    
C5    H1    S    
C16   O16   A    
C8    C56   A    
C10   H12   S    
C7    C8    A    
C39   C41   A    
C54   C60   A    
Cr6   O9    S    
C47   O24   A    
C28   C46   S    
C26   C27   A    
C37   C38   A    
Cr4   O24   S    
C5    C58   A    
C18   C24   A    
Cr3   O15   S    
C36   C37   A    
C42   C53   S    
C30   C31   A    
Cr5   O25   S    
C38   C52   S    
Cr4   O23   S    
C10   C17   A    
C47   O25   A    
C52   O21   A    
C31   C40   S    
C48   O26   A    
C18   C19   A    
C41   C42   A    
H11   N3    S    
Cr2   O12   S    
C1    O4    A    
H21   N6    S    
C33   C35   A    
H6    N1    S    
C12   C59   A    
C19   C20   A    
C56   C58   A    
C16   C17   S    
C40   O20   A    
C32   C38   A    
C29   C30   A    
Cr6   O11   S    
C36   N6    S    
C59   C60   A    
C43   H3    S    
Cr6   O2    S    
C13   C14   A    
C21   H38   S    
Cr3   O21   S    
C26   H39   S    
C27   C51   S    
H32   N10   S    
C7    H8    S    
C49   O3    A    
Cr3   O16   S    
Cr2   O14   S    
H30   N9    S    
C50   O6    A    
C37   H42   S    
C48   O2    A    
C3    C8    S    
C53   O5    A    
C16   O1    A    
C13   C47   S    
Cr5   O26   S    
H28   N8    S    
C44   C46   A    
H35   N2    S    
Cr4   O6    S    
H29   N9    S    
C49   O23   A    
Cr1   O4    S    
H27   N8    S    
H16   N4    S    
C33   H20   S    
C14   H23   S    
C20   C49   S    
C3    C9    A    
C53   O10   A    
C25   N5    S    
H15   N4    S    
C57   H31   S    
C35   C50   S    
Cr6   O3    S    
C50   O7    A    
H24   N7    S    
Cr4   O11   S    
C34   C45   A    
C39   C46   A    
C12   C57   A    
C58   H2    S    
C39   N7    S    
C55   C57   A    
C43   C44   A    
C9    C34   A    
Cr3   O20   S    
C22   C24   A    
C29   H40   S    
H36   N2    S    
C42   C43   A    
Cr1   O17   S    
C15   C17   A    
C40   O12   A    
C54   C55   A    
C60   H14   S    
C18   H10   S    
C23   C48   S    
C28   O18   A    
C51   O8    A    
C56   N10   S    
Cr2   O13   S    
Cr6   O10   S    
C28   O19   A    
C12   C45   S    
C1    O13   A    
Cr5   O11   S    
C59   N2    S    
Cr1   O22   S    
H7    N1    S    
C6    C7    A    
C19   N3    S    
Cr4   O5    S    
C22   N4    S    
H13   N3    S    
C51   O9    A    
Cr5   O8    S    
C2    C3    A    
C25   C26   A    
C11   H9    S    
C32   C33   A    
H33   N10   S    
C4    O14   A    
C5    C6    A    
C27   C29   A    
C2    H37   S    
C32   H19   S    
C6    N1    S    
H25   N7    S    
Cr2   O19   S    
H22   N6    S    
C55   H4    S    
C10   C11   A    
C41   H26   S    
C20   C21   A    
C44   N8    S    
C1    C24   S    
C54   N9    S    
C2    C23   A    
C52   O17   A    
C14   C15   A    
Cr2   O22   S    
C4    C9    S    
C21   C22   A    
C34   H5    S    
Cr1   O18   S    
Cr5   O7    S    
C4    O15   A    
