data_mof_unit_61721.cif
_audit_creation_date              2012-12-10T20:48:21-0500
_audit_creation_method            fapswitch 2.2
_symmetry_space_group_name_H-M    P1
_symmetry_Int_Tables_number       1
_space_group_crystal_system       triclinic
_cell_length_a                    16.047333
_cell_length_b                    19.224906
_cell_length_c                    19.224855
_cell_angle_alpha                 94.455982
_cell_angle_beta                  95.206526
_cell_angle_gamma                 90.407264
_cell_volume                      5888.10712

loop_
_atom_site_label
_atom_site_type_symbol
_atom_type_description
_atom_site_fract_x
_atom_site_fract_y
_atom_site_fract_z
_atom_type_partial_charge
C1    C     C_R   0.509002 0.310676 0.492874 0.795650
C2    C     C_R   0.418770 0.801222 0.535414 -0.209114
C3    C     C_R   0.449635 0.119650 0.464595 -0.166517
C4    C     C_R   0.491153 0.689326 0.506870 0.795480
C5    C     C_R   0.445516 0.192023 0.462908 -0.225829
C6    C     C_R   0.522871 0.088811 0.493717 0.320180
C7    C     C_R   0.513859 0.234350 0.490998 0.000988
C8    C     C_R   0.587074 0.203307 0.518959 -0.210300
C9    C     C_R   0.591738 0.131059 0.519352 -0.193164
C10   C     C_R   0.485391 0.491875 0.233093 -0.001714
C11   C     C_R   0.545252 0.528446 0.200824 -0.223655
C12   C     C_1   0.111213 0.483488 0.483413 0.093454
C13   C     C_R   0.539011 0.530223 0.128321 -0.168617
C14   C     C_R   0.472285 0.495449 0.086563 0.320810
C15   C     C_R   0.411982 0.459827 0.118887 -0.193544
C16   C     C_R   0.508986 0.507928 0.690114 0.795849
C17   C     C_R   0.418795 0.457334 0.191584 -0.212536
C18   C     C_R   0.449598 0.530897 0.875881 -0.165522
C19   C     C_R   0.445480 0.532228 0.803143 -0.222671
C20   C     C_R   0.522851 0.508293 0.913206 0.319227
C21   C     C_R   0.513840 0.510230 0.766870 -0.000623
C22   C     C_R   0.587069 0.488783 0.804398 -0.209327
C23   C     C_1   0.888914 0.517979 0.518758 -0.150275
C24   C     C_R   0.591732 0.488795 0.877058 -0.192795
C25   C     C_R   0.491167 0.492326 0.309889 0.795264
C26   C     C_R   0.724116 0.509852 0.509987 0.828243
C27   C     C_R   0.275989 0.490085 0.490122 0.809012
C28   C     C_1   0.813647 0.514167 0.514664 -0.137073
C29   C     C_2   0.979383 0.522736 0.523820 0.482646
C30   C     C_2   0.021179 0.480772 0.480589 -0.213550
C31   C     C_1   0.186469 0.486247 0.486237 -0.129881
C32   C     C_R   0.485380 0.765609 0.506796 -0.003243
C33   C     C_R   0.545259 0.803176 0.475543 -0.222708
C34   C     C_R   0.539023 0.875126 0.473208 -0.168212
C35   C     C_R   0.472285 0.910977 0.502050 0.319772
C36   C     C_R   0.411962 0.873315 0.532312 -0.192618
H1    H     H_    0.987677 0.443672 0.442286 0.107214
H2    H     H_    0.388544 0.214921 0.440898 0.163171
H3    H     H_    0.396099 0.087921 0.442877 0.150806
H4    H     H_    0.359953 0.900073 0.554113 0.145736
H5    H     H_    0.640926 0.234907 0.540277 0.164339
H6    H     H_    0.585849 0.902493 0.448173 0.151831
H7    H     H_    0.648741 0.107865 0.540925 0.144446
H8    H     H_    0.388495 0.549168 0.775198 0.167411
H9    H     H_    0.981113 0.595790 0.599145 0.333832
H10   H     H_    0.371308 0.773269 0.559168 0.169893
H11   H     H_    0.596992 0.776944 0.452743 0.168255
H12   H     H_    0.396050 0.547844 0.902867 0.152170
H13   H     H_    0.359982 0.433403 0.087526 0.144460
H14   H     H_    0.371348 0.429364 0.215339 0.165922
H15   H     H_    0.640933 0.472264 0.777568 0.164976
H16   H     H_    0.585822 0.559418 0.105098 0.151736
H17   H     H_    0.648747 0.472296 0.905302 0.144542
H18   H     H_    0.596974 0.555844 0.231634 0.167747
N1    N     N_2   0.463277 0.984250 0.500313 -0.200781
N2    N     N_2   0.530713 0.015700 0.496294 -0.203675
N3    N     N_2   0.463269 0.496386 0.012491 -0.200689
N4    N     N_2   0.530697 0.506408 0.987012 -0.203760
O1    O     O_3   0.500000 0.500000 0.500000 -0.475977
O2    O     O_R   0.688130 0.469010 0.547620 -0.639566
O3    O     O_R   0.315580 0.449250 0.449280 -0.642703
O4    O     O_R   0.680710 0.547310 0.468650 -0.637291
O5    O     O_R   0.315580 0.534430 0.534450 -0.623384
O6    O     O_3   0.022554 0.569766 0.572366 -0.745467
O7    O     O_R   0.456860 0.545290 0.655940 -0.640303
O8    O     O_R   0.446440 0.450430 0.339790 -0.644173
O9    O     O_R   0.557290 0.347960 0.537250 -0.644398
O10   O     O_R   0.539410 0.656320 0.467010 -0.645390
O11   O     O_R   0.456880 0.340240 0.450910 -0.642330
O12   O     O_R   0.446420 0.655480 0.544820 -0.642299
O13   O     O_R   0.557280 0.467820 0.657110 -0.644654
O14   O     O_R   0.539420 0.536460 0.347160 -0.645200
Zn1   Zn    Zn3+2 0.430910 0.557800 0.557800 0.984391
Zn2   Zn    Zn3+2 0.574380 0.447110 0.559460 0.972911
Zn3   Zn    Zn3+2 0.563780 0.559000 0.446630 0.971519
Zn4   Zn    Zn3+2 0.430930 0.436090 0.436110 0.971644

loop_
_geom_bond_atom_site_label_1
_geom_bond_atom_site_label_2
_ccdc_geom_bond_type
N1    N2    D    
C16   C21   S    
C35   C36   A    
C34   H6    S    
C3    C6    A    
C6    C9    A    
C4    O12   A    
C7    C8    A    
C2    H10   S    
O10   Zn3   S    
C23   C29   S    
C19   C21   A    
C18   C19   A    
C10   C17   A    
O7    Zn1   S    
O11   Zn4   S    
C2    C32   A    
C34   C35   A    
C27   O3    A    
C20   C24   A    
C8    C9    A    
O1    Zn1   S    
C29   O6    S    
C3    H3    S    
C13   C14   A    
C16   O13   A    
O14   Zn3   S    
O3    Zn4   S    
C9    H7    S    
C27   C31   S    
C36   H4    S    
C5    H2    S    
C8    H5    S    
O9    Zn2   S    
O5    Zn1   S    
C24   H17   S    
C35   N1    S    
C1    O11   A    
C4    O10   A    
C30   H1    S    
C29   C30   D    
C13   H16   S    
O8    Zn4   S    
O12   Zn1   S    
C33   C34   A    
C25   O14   A    
C23   C28   T    
O1    Zn2   S    
C4    C32   S    
C11   H18   S    
C27   O5    A    
C10   C25   S    
C12   C31   T    
C33   H11   S    
C22   C24   A    
O4    Zn3   S    
C20   N4    S    
O1    Zn3   S    
C19   H8    S    
C5    C7    A    
C2    C36   A    
C15   C17   A    
C14   N3    S    
C12   C30   S    
C1    C7    S    
C25   O8    A    
C6    N2    S    
C3    C5    A    
C18   H12   S    
C17   H14   S    
O13   Zn2   S    
H9    O6    S    
C26   C28   S    
C32   C33   A    
C26   O4    A    
C11   C13   A    
N3    N4    D    
O2    Zn2   S    
C1    O9    A    
C18   C20   A    
C15   H13   S    
C10   C11   A    
C14   C15   A    
C16   O7    A    
C21   C22   A    
C26   O2    A    
O1    Zn4   S    
C22   H15   S    
