data_mof_unit_66972.cif
_audit_creation_date              2013-03-05T15:58:12-0500
_audit_creation_method            fapswitch 2.2
_symmetry_space_group_name_H-M    P1
_symmetry_Int_Tables_number       1
_space_group_crystal_system       triclinic
_cell_length_a                    8.223804
_cell_length_b                    12.844085
_cell_length_c                    14.267049
_cell_angle_alpha                 93.431137
_cell_angle_beta                  90.606684
_cell_angle_gamma                 98.663207
_cell_volume                      1486.83147473

loop_
_atom_site_label
_atom_site_type_symbol
_atom_site_description
_atom_site_fract_x
_atom_site_fract_y
_atom_site_fract_z
_atom_type_partial_charge
P1    P     P_3+3 0.054400 0.427280 0.286870 0.447430
O1    O     O_2   0.887370 0.460630 0.272300 -0.365116
O2    O     O_3   0.129410 0.451380 0.388510 -0.414418
O3    O     O_3   0.670210 0.653170 0.329170 -0.392309
O4    O     O_2   0.795311 0.593562 0.165211 -0.351985
O5    O     O_3   0.012908 0.289625 0.265794 -0.579752
O6    O     O_3   0.701275 0.779442 0.174416 -0.512170
H1    H     H_    0.754253 0.866744 0.299969 0.145603
C1    C     C_3   0.609780 0.946612 0.208553 -0.507539
H2    H     H_    0.592431 0.002473 0.268778 0.197143
P2    P     P_3+3 0.668300 0.742890 0.573060 0.455458
P3    P     P_3+3 0.134167 0.840903 0.373990 0.430543
O7    O     O_2   0.845380 0.761330 0.544970 -0.379878
O8    O     O_3   0.088930 0.704860 0.376040 -0.392809
O9    O     O_2   0.997666 0.887363 0.428537 -0.395852
O10   O     O_3   0.676393 0.773181 0.694070 -0.617342
O11   O     O_3   0.111742 0.874288 0.257727 -0.540763
C2    C     C_3   0.147875 0.790035 0.197807 0.446909
H3    H     H_    0.057721 0.718066 0.206442 0.170729
H4    H     H_    0.274133 0.773137 0.211869 0.013844
C3    C     C_3   0.135928 0.817454 0.096201 -0.915728
H5    H     H_    0.013742 0.840335 0.081488 0.297381
H6    H     H_    0.234627 0.882897 0.081929 0.230473
C4    C     C_3   0.204087 0.765414 0.661099 0.377413
H7    H     H_    0.336371 0.775352 0.645082 0.074961
H8    H     H_    0.132177 0.729608 0.598083 0.147812
C5    C     C_3   0.152228 0.871935 0.684008 -0.925984
H9    H     H_    0.208609 0.905259 0.752156 0.265791
H10   H     H_    0.189135 0.925308 0.627216 0.252353
H11   H     H_    0.017332 0.862318 0.692726 0.262541
Ba1   Ba    Ba6+2 0.855630 0.555280 0.454520 1.536202
C6    C     C_3   0.982835 0.241226 0.350866 0.385654
H12   H     H_    0.858831 0.252416 0.373544 0.081282
H13   H     H_    0.072870 0.273799 0.407078 0.158505
C7    C     C_3   0.994534 0.123962 0.337722 -0.945534
H14   H     H_    0.870927 0.077930 0.323810 0.232935
H15   H     H_    0.043404 0.096113 0.402841 0.260037
H16   H     H_    0.078503 0.108424 0.279723 0.283471
C8    C     C_3   0.719021 0.692698 0.746354 0.257043
H17   H     H_    0.850560 0.686564 0.736169 0.118866
H18   H     H_    0.641190 0.615774 0.726863 0.118095
C9    C     C_3   0.689835 0.726158 0.848879 -0.045723
H19   H     H_    0.726093 0.812886 0.861378 0.162470
H20   H     H_    0.557210 0.706590 0.864449 0.124108
P4    P     P_3+3 0.135310 0.572810 0.713130 0.469419
O12   O     O_2   0.302330 0.539400 0.727760 -0.360618
O13   O     O_3   0.060300 0.548700 0.611500 -0.412293
O14   O     O_3   0.519500 0.346920 0.670840 -0.354343
O15   O     O_3   0.179020 0.708234 0.741430 -0.556686
P5    P     P_3+3 0.061293 0.157744 0.625187 0.437990
O16   O     O_3   0.614310 0.373510 0.452640 -0.391951
O17   O     O_3   0.100780 0.295230 0.623970 -0.384447
O18   O     O_2   0.204534 0.114561 0.574188 -0.390509
O19   O     O_3   0.081036 0.125859 0.742153 -0.539496
Ba2   Ba    Ba6+2 0.334200 0.444810 0.545490 1.538057
P6    P     P_3+3 0.656365 0.649582 0.206892 0.490704
C10   C     C_3   0.652338 0.846180 0.247295 0.333897
H21   H     H_    0.540379 0.810089 0.283253 0.027471
H22   H     H_    0.491368 0.928491 0.168522 0.200643
O20   O     O_3   0.575400 0.626570 0.547370 -0.379584
C11   C     C_3   0.464073 0.311181 0.262596 0.481898
H23   H     H_    0.342205 0.323317 0.289685 0.103300
H24   H     H_    0.555796 0.382683 0.280315 0.115923
C12   C     C_3   0.450626 0.295204 0.156160 -1.091175
H25   H     H_    0.371709 0.219267 0.135561 0.275514
H26   H     H_    0.395557 0.359433 0.125960 0.238295
H27   H     H_    0.574942 0.296170 0.126637 0.259756
P7    P     P_3+3 0.526719 0.241434 0.422144 0.414982
O21   O     O_2   0.344320 0.238700 0.455090 -0.379030
O22   O     O_3   0.512851 0.221539 0.299660 -0.586432
H28   H     H_    0.151202 0.748155 0.048791 0.254084
C13   C     C_3   0.034233 0.207386 0.801626 0.435084
H29   H     H_    0.138136 0.273087 0.812966 0.135811
H30   H     H_    0.930746 0.240829 0.770491 -0.016844
C14   C     C_3   0.975283 0.163895 0.895153 -0.533652
H31   H     H_    0.885806 0.212277 0.925093 0.144895
H32   H     H_    0.907329 0.082901 0.880552 0.231769
P8    P     P_3+3 0.534643 0.353919 0.793140 0.445553
C15   C     C_3   0.548560 0.158907 0.825892 0.704278
H33   H     H_    0.677112 0.192155 0.812410 -0.005315
O23   O     O_2   0.421030 0.430112 0.831989 -0.388279
O24   O     O_3   0.440542 0.233684 0.830493 -0.554587
H34   H     H_    0.644992 0.062921 0.928837 0.244294
C16   C     C_3   0.545551 0.111197 0.921188 -1.061008
H35   H     H_    0.427468 0.060054 0.930913 0.276799
H36   H     H_    0.561500 0.176605 0.976226 0.252329
C17   C     C_R   0.987138 0.440319 0.059901 -0.142505
C18   C     C_R   0.183849 0.494432 0.195322 0.243644
C19   C     C_R   0.339107 0.544879 0.225625 -0.544106
C20   C     C_R   0.452634 0.589407 0.162421 0.277364
C21   C     C_R   0.408456 0.592315 0.068077 -0.281660
C22   C     C_R   0.251835 0.545217 0.034752 0.024336
C23   C     C_R   0.139181 0.492093 0.097450 -0.006003
H37   H     H_    0.374630 0.546022 0.298984 0.179216
C24   C     C_R   0.057230 0.498460 0.901404 0.038984
C25   C     C_R   0.944818 0.444579 0.964069 0.116509
C26   C     C_R   0.010526 0.499801 0.803954 0.268765
C27   C     C_R   0.855529 0.449332 0.773814 -0.477404
C28   C     C_R   0.743407 0.402590 0.836667 0.250977
C29   C     C_R   0.786902 0.399620 0.931107 -0.275103
C30   C     C_R   0.208502 0.550699 0.939304 -0.091625
H38   H     H_    0.496246 0.631442 0.020907 0.198846
H39   H     H_    0.697041 0.363202 0.978770 0.136691
H40   H     H_    0.817983 0.451315 0.701081 0.169062
H41   H     H_    0.899343 0.397036 0.104619 0.159715
H42   H     H_    0.294267 0.596427 0.895311 0.162446
C31   C     C_R   0.766083 0.174896 0.533422 -0.486455
C32   C     C_R   0.426944 0.814026 0.464367 -0.527317
C33   C     C_R   0.404685 0.993355 0.429767 -0.238167
C34   C     C_R   0.338777 0.886959 0.426709 0.234907
C35   C     C_R   0.578829 0.846072 0.510180 0.285073
C36   C     C_R   0.646345 0.956359 0.516132 -0.050278
C37   C     C_R   0.557307 0.030294 0.474699 -0.057081
C38   C     C_R   0.620807 0.139849 0.482231 0.259664
C39   C     C_R   0.858412 0.104199 0.570242 0.216587
C40   C     C_R   0.797673 0.995955 0.563307 -0.177235
H43   H     H_    0.333726 0.046380 0.397738 0.188712
H44   H     H_    0.869158 0.944488 0.595956 0.180895
H45   H     H_    0.812352 0.258514 0.540532 0.164215
H46   H     H_    0.373543 0.731554 0.461238 0.177191
Cl1   Cl    Cl    0.807502 0.667379 0.929567 -0.687838
C41   C     C_3   0.742869 0.997136 0.144380 -0.186556
C42   C     C_3   0.723809 0.111431 0.133064 -0.911545
H47   H     H_    0.593954 0.114824 0.114713 0.286010
H48   H     H_    0.755090 0.159590 0.199412 0.312328
H49   H     H_    0.805043 0.144856 0.077568 0.254986
H50   H     H_    0.867497 0.993495 0.173418 0.227760
H51   H     H_    0.729998 0.953464 0.074357 0.217393
C43   C     C_3   0.112311 0.165735 0.969750 -0.217089
C44   C     C_3   0.125071 0.055207 0.998969 -0.886083
H52   H     H_    0.151705 0.003873 0.937353 0.277198
H53   H     H_    0.223985 0.059467 0.053154 0.245563
H54   H     H_    0.007833 0.019613 0.028773 0.262539
H55   H     H_    0.085344 0.214455 0.033148 0.193046
H56   H     H_    0.233016 0.202627 0.945489 0.251209
C45   C     C_3   0.489968 0.077757 0.745453 -0.288332
C46   C     C_3   0.563107 0.976156 0.749573 -0.979768
H57   H     H_    0.699552 0.992920 0.752521 0.271063
H58   H     H_    0.517403 0.931787 0.810809 0.277172
H59   H     H_    0.521706 0.925880 0.686109 0.282743
H60   H     H_    0.354721 0.059619 0.746629 0.251326
H61   H     H_    0.522390 0.113387 0.677838 0.189370

loop_
_geom_bond_atom_site_label_1
_geom_bond_atom_site_label_2
_geom_bond_distance
_ccdc_geom_bond_type
C11   O22   1.404881 S    
O14   Ba2   2.808898 S    
O5    C6    1.403954 S    
C5    H10   1.107967 S    
C2    C3    1.517765 S    
C32   H46   1.081993 S    
O4    P6    1.545291 D    
C35   C36   1.438651 A    
C4    C5    1.511881 S    
C36   C40   1.418110 A    
O8    Ba1   2.796136 S    
P3    C34   1.834973 S    
C26   C27   1.391396 A    
C20   C21   1.394595 A    
C33   H43   1.079121 S    
C42   H47   1.104686 S    
C8    H18   1.111769 S    
P4    O12   1.515432 D    
C15   C45   1.526233 S    
C46   H58   1.109652 S    
P5    O19   1.753560 S    
C3    H28   1.108578 S    
C7    H15   1.108057 S    
C4    H8    1.107625 S    
P1    O1    1.515058 D    
C15   C16   1.523325 S    
C42   H48   1.105271 S    
C39   C40   1.401966 A    
C25   C29   1.403489 A    
P1    Ba1   3.393772 S    
C4    O15   1.398408 S    
P5    C39   1.852924 S    
O14   P8    1.743953 S    
C41   H50   1.109978 S    
C11   H24   1.111666 S    
C45   H61   1.110243 S    
C16   H36   1.106907 S    
C43   H56   1.102227 S    
O2    Ba2   2.800901 S    
C7    H14   1.105853 S    
C40   H44   1.071299 S    
P7    O21   1.572659 D    
O12   Ba2   2.835362 S    
P5    O17   1.747889 S    
C1    H2    1.110425 S    
C1    C10   1.519624 S    
O17   Ba2   2.796716 S    
C33   C37   1.406623 A    
P1    C18   1.863025 S    
P6    C20   1.826395 S    
P2    Ba1   3.424298 S    
Ba1   O13   2.800333 S    
Ba2   O20   2.825199 S    
O3    P6    1.744450 S    
C5    H11   1.106746 S    
C9    H20   1.109658 S    
O6    P6    1.744599 S    
C13   C14   1.532607 S    
C31   H45   1.082393 S    
C36   C37   1.433490 A    
C1    C41   1.528281 S    
C8    C9    1.531378 S    
P4    O13   1.564791 S    
C46   H59   1.100000 S    
P5    O18   1.546404 D    
P2    C35   1.877410 S    
P1    O5    1.756506 S    
C6    C7    1.524173 S    
C7    H16   1.111411 S    
C4    H7    1.104043 S    
C13   H30   1.109546 S    
C21   C22   1.403166 A    
C2    H3    1.108354 S    
C42   H49   1.105883 S    
O16   Ba2   2.907721 S    
C29   H39   1.082543 S    
C15   H33   1.102333 S    
O1    Ba1   2.834848 S    
C1    H22   1.110262 S    
C6    H13   1.104708 S    
Ba1   O20   2.908502 S    
P3    O11   1.752637 S    
C11   C12   1.520715 S    
C44   H53   1.109295 S    
C14   H31   1.105775 S    
C12   H27   1.108464 S    
C31   C38   1.394114 A    
C45   H60   1.102023 S    
H1    C10   1.110491 S    
P2    O10   1.745226 S    
P8    O24   1.736372 S    
H34   C16   1.106403 S    
C17   H41   1.081054 S    
P3    O9    1.544849 D    
P4    O15   1.744207 S    
C17   C25   1.413546 A    
O11   C2    1.407717 S    
C32   C35   1.397295 A    
C16   H35   1.102431 S    
O2    Ba1   2.921772 S    
C14   H32   1.111016 S    
C31   C39   1.390450 A    
Ba2   O21   2.887643 S    
C22   C30   1.412490 A    
P3    O8    1.732916 S    
C3    H6    1.106921 S    
C44   H54   1.103884 S    
C9    H19   1.112036 S    
C21   H38   1.080820 S    
P2    O20   1.592105 S    
C19   C20   1.389443 A    
C8    H17   1.106860 S    
O13   Ba2   2.922533 S    
C37   C38   1.422538 A    
C30   H42   1.079390 S    
C18   C23   1.437493 A    
O7    Ba1   2.887419 S    
Ba1   O16   2.825861 S    
C13   H29   1.109914 S    
C19   H37   1.082288 S    
C15   O24   1.402346 S    
C24   C26   1.440271 A    
P8    C28   1.825258 S    
C46   H57   1.110125 S    
C28   C29   1.394600 A    
Ba1   Ba2   4.580579 S    
C12   H25   1.108975 S    
C44   H52   1.110705 S    
C43   C44   1.521486 S    
P4    C26   1.869550 S    
C33   C34   1.390115 A    
C6    H12   1.100402 S    
P2    O7    1.502414 D    
P8    O23   1.536037 D    
C10   H21   1.111623 S    
C27   H40   1.082362 S    
C17   C23   1.409013 A    
C22   C23   1.422739 A    
C32   C34   1.395885 A    
C2    H4    1.110925 S    
O16   P7    1.767151 S    
C41   H51   1.112073 S    
C11   H23   1.107319 S    
O3    Ba1   2.809494 S    
O10   C8    1.394214 S    
C43   H55   1.112304 S    
C24   C30   1.407493 A    
O19   C13   1.409466 S    
C18   C19   1.393753 A    
P4    Ba2   3.394229 S    
P7    O22   1.750867 S    
C27   C28   1.389229 A    
P7    C38   1.860107 S    
C5    H9    1.106503 S    
C45   C46   1.520870 S    
P1    O2    1.564911 S    
C41   C42   1.517515 S    
C3    H5    1.109961 S    
O6    C10   1.408533 S    
C24   C25   1.425374 A    
C14   C43   1.538405 S    
C9    Cl1   1.769768 S    
C12   H26   1.105560 S    
