data_mof_unit_26638.cif
_audit_creation_date              2012-10-26T20:51:12-0400
_audit_creation_method            fapswitch 2.2
_symmetry_space_group_name_H-M    P1
_symmetry_Int_Tables_number       1
_space_group_crystal_system       triclinic
_cell_length_a                    12.931036
_cell_length_b                    10.838892
_cell_length_c                    9.580544
_cell_angle_alpha                 90.213279
_cell_angle_beta                  95.653607
_cell_angle_gamma                 91.378112
_cell_volume                      1335.84752704

loop_
_atom_site_label
_atom_site_type_symbol
_atom_type_description
_atom_site_fract_x
_atom_site_fract_y
_atom_site_fract_z
_atom_type_partial_charge
C1    C     C_R   0.502529 0.262558 0.500288 0.539027
C2    C     C_R   0.513654 0.935608 0.375662 -0.165164
C3    C     C_R   0.499466 0.870713 0.499191 0.008992
C4    C     C_R   0.301001 0.497415 0.474288 0.550625
C5    C     C_R   0.481723 0.936046 0.619964 0.020876
C6    C     C_3   0.539630 0.930112 0.762373 -0.268279
C7    C     C_3   0.541584 0.069795 0.763096 -0.268179
C8    C     C_R   0.554404 0.588687 0.080705 0.113405
C9    C     C_R   0.433873 0.423468 0.066110 0.243665
C10   C     C_R   0.431755 0.426030 0.915380 0.241879
C11   C     C_R   0.555434 0.587513 0.934426 0.116324
C12   C     C_R   0.025286 0.539164 0.540796 0.016144
C13   C     C_3   0.669300 0.615201 0.943993 -0.279539
C14   C     C_3   0.667902 0.619286 0.102502 -0.276665
C15   C     C_R   0.501269 0.737469 0.500245 0.542000
C16   C     C_R   0.698976 0.498577 0.525684 0.538243
C17   C     C_R   0.811461 0.502606 0.539396 0.012469
C18   C     C_R   0.189068 0.484122 0.460849 0.000981
C19   C     C_R   0.034359 0.364861 0.381147 -0.131081
C20   C     C_R   0.140546 0.387466 0.380448 -0.161244
C21   C     C_R   0.131964 0.559363 0.541111 -0.143829
C22   C     C_3   0.796346 0.317189 0.242409 -0.310170
C23   C     C_R   0.974918 0.441144 0.459632 0.076429
C24   C     C_3   0.366141 0.215318 0.114132 -0.308483
C25   C     C_3   0.250790 0.384968 0.825116 -0.279782
C26   C     C_R   0.866948 0.421438 0.460735 0.128877
C27   C     C_R   0.862617 0.596385 0.621876 -0.168051
C28   C     C_R   0.969063 0.614433 0.622936 -0.153697
C29   C     C_R   0.482856 0.063587 0.620470 0.021681
C30   C     C_R   0.502567 0.129024 0.500088 0.001029
C31   C     C_R   0.517138 0.063859 0.376991 -0.178191
Cu1   Cu    Cu3+1 0.499990 0.499980 0.640670 0.953250
Cu2   Cu    Cu3+1 0.500010 0.500020 0.359330 0.950889
H1    H     H_    0.617980 0.890349 0.760767 0.129814
H2    H     H_    0.007201 0.688638 0.686124 0.110451
H3    H     H_    0.185566 0.326167 0.322102 0.114711
H4    H     H_    0.171146 0.632577 0.605099 0.105256
H5    H     H_    0.534829 0.111609 0.283102 0.128766
H6    H     H_    0.526693 0.887783 0.279693 0.132592
H7    H     H_    0.491305 0.889123 0.840924 0.136277
H8    H     H_    0.755947 0.276292 0.443496 0.251129
H9    H     H_    0.712273 0.330227 0.211401 0.159909
H10   H     H_    0.818132 0.227341 0.199320 0.134478
H11   H     H_    0.842275 0.391594 0.195594 0.138037
H12   H     H_    0.495383 0.108744 0.843548 0.118199
H13   H     H_    0.288827 0.382162 0.131621 0.236731
H14   H     H_    0.302546 0.182264 0.035844 0.110203
H15   H     H_    0.353735 0.169996 0.214810 0.160877
H16   H     H_    0.442065 0.187590 0.080413 0.124306
H17   H     H_    0.370677 0.258198 0.835104 0.230347
H18   H     H_    0.213107 0.342273 0.912432 0.104192
H19   H     H_    0.208508 0.349745 0.726068 0.158820
H20   H     H_    0.243172 0.486813 0.829251 0.153190
H21   H     H_    0.621013 0.111255 0.761842 0.136731
H22   H     H_    0.714241 0.537124 0.907710 0.149705
H23   H     H_    0.687437 0.706364 0.898455 0.116299
H24   H     H_    0.713890 0.545917 0.156872 0.152745
H25   H     H_    0.683431 0.713300 0.147681 0.125249
H26   H     H_    0.819369 0.658426 0.681986 0.114544
H27   H     H_    0.000001 0.286969 0.321123 0.139859
N1    N     N_R   0.500660 0.500930 0.148010 -0.234306
N2    N     N_R   0.500660 0.500890 0.852110 -0.231078
N3    N     N_2   0.815953 0.315210 0.393873 -0.527405
N4    N     N_2   0.362378 0.347651 0.132620 -0.456935
N5    N     N_2   0.358947 0.351563 0.829355 -0.452027
O1    O     O_R   0.500000 0.319640 0.618810 -0.484477
O2    O     O_R   0.500010 0.319680 0.381230 -0.485813
O3    O     O_R   0.348990 0.499960 0.599490 -0.475741
O4    O     O_R   0.349000 0.500000 0.361910 -0.487225
O5    O     O_R   0.499990 0.680320 0.618770 -0.501000
O6    O     O_R   0.500000 0.680360 0.381190 -0.506643
O7    O     O_R   0.651000 0.500000 0.638090 -0.515050
O8    O     O_R   0.651010 0.500040 0.400510 -0.500150

loop_
_geom_bond_atom_site_label_1
_geom_bond_atom_site_label_2
_ccdc_geom_bond_type
C25   N5    S    
C19   C23   A    
C26   N3    S    
C25   H18   S    
C6    C7    S    
C7    C29   S    
C19   H27   S    
C9    N4    S    
C15   O6    A    
C9    C10   A    
C17   C27   A    
C5    C29   A    
C19   C20   A    
C16   O7    A    
C31   H5    S    
Cu2   O4    S    
C8    N1    A    
Cu1   O3    S    
C11   N2    A    
C4    C18   S    
Cu1   Cu2   S    
C13   H23   S    
Cu1   O5    S    
C2    C3    A    
C25   H19   S    
Cu1   N2    S    
Cu2   N1    S    
C24   N4    S    
C10   N2    A    
C13   C14   S    
C18   C21   A    
C11   C13   S    
C12   C23   A    
C22   H9    S    
C12   C21   A    
C12   C28   A    
C8    C11   A    
C9    N1    A    
C17   C26   A    
C7    H12   S    
Cu2   O8    S    
C4    O4    A    
C1    O2    A    
C25   H20   S    
C15   O5    A    
C1    O1    A    
C18   C20   A    
C2    C31   A    
C5    C6    S    
C14   H25   S    
H17   N5    S    
C6    H7    S    
C23   C26   A    
H8    N3    S    
C29   C30   A    
C16   O8    A    
C24   H15   S    
C3    C5    A    
C27   C28   A    
C3    C15   S    
Cu2   O2    S    
C21   H4    S    
Cu1   O1    S    
C10   N5    S    
C24   H16   S    
C4    O3    A    
C14   H24   S    
Cu2   O6    S    
C30   C31   A    
C1    C30   S    
C8    C14   S    
C27   H26   S    
C7    H21   S    
C13   H22   S    
C22   N3    S    
C24   H14   S    
C2    H6    S    
C22   H10   S    
C22   H11   S    
C6    H1    S    
C28   H2    S    
H13   N4    S    
C16   C17   S    
Cu1   O7    S    
C20   H3    S    
