data_mof_unit_13771.cif
_audit_creation_date              2012-12-11T14:41:12-0500
_audit_creation_method            fapswitch 2.2
_symmetry_space_group_name_H-M    P1
_symmetry_Int_Tables_number       1
_space_group_crystal_system       triclinic
_cell_length_a                    24.768182
_cell_length_b                    17.699804
_cell_length_c                    15.540637
_cell_angle_alpha                 89.736256
_cell_angle_beta                  129.504914
_cell_angle_gamma                 90.052434
_cell_volume                      5256.54846021

loop_
_atom_site_label
_atom_site_type_symbol
_atom_type_description
_atom_site_fract_x
_atom_site_fract_y
_atom_site_fract_z
_atom_type_partial_charge
Br1   Br    Br    0.703053 0.566311 0.314196 -0.537471
Br2   Br    Br    0.403446 0.544549 0.718522 -0.577225
Br3   Br    Br    0.929050 0.857993 0.737240 -0.599713
Br4   Br    Br    0.903446 0.044547 0.718521 -0.577228
Br5   Br    Br    0.229271 0.399204 0.275948 -0.546662
Br6   Br    Br    0.226396 0.590001 0.257164 -0.540971
Br7   Br    Br    0.729272 0.899200 0.275947 -0.546673
Br8   Br    Br    0.726397 0.089998 0.257160 -0.540973
Br9   Br    Br    0.763556 0.408744 0.482904 -0.568222
Br10  Br    Br    0.203042 0.066319 0.314177 -0.537469
Br11  Br    Br    0.263545 0.908749 0.482854 -0.568216
Br12  Br    Br    0.396267 0.776742 0.065789 -0.587314
Br13  Br    Br    0.374944 0.241752 0.026761 -0.555818
Br14  Br    Br    0.896267 0.276741 0.065788 -0.587309
Br15  Br    Br    0.874944 0.741758 0.026755 -0.555813
Br16  Br    Br    0.429052 0.357992 0.737242 -0.599717
C1    C     C_R   0.346859 0.365533 0.228146 -0.127693
C2    C     C_R   0.683811 0.613183 0.498768 0.142151
C3    C     C_R   0.159449 0.833513 0.505656 0.061210
C4    C     C_R   0.183811 0.113180 0.498766 0.142150
C5    C     C_R   0.344325 0.329785 0.495278 -0.190011
C6    C     C_R   0.316898 0.613038 0.500456 -0.085123
C7    C     C_R   0.844327 0.829782 0.495278 -0.190021
C8    C     C_R   0.816894 0.113033 0.500453 -0.085117
C9    C     C_3   0.353491 0.203951 0.580505 -0.478390
C10   C     C_3   0.305433 0.685444 0.626639 -0.424909
C11   C     C_3   0.853491 0.703952 0.580510 -0.478379
C12   C     C_R   0.353874 0.642929 0.244174 -0.105625
C13   C     C_3   0.805414 0.185420 0.626632 -0.424889
C14   C     C_3   0.811126 0.648024 0.594254 0.071315
C15   C     C_3   0.766798 0.250245 0.632960 0.053307
C16   C     C_3   0.311126 0.148021 0.594248 0.071318
C17   C     C_3   0.266817 0.750271 0.632963 0.053317
C18   C     C_3   0.256976 0.302615 0.514179 -0.354266
C19   C     C_3   0.198521 0.644342 0.439471 -0.348410
C20   C     C_3   0.756973 0.802616 0.514171 -0.354266
C21   C     C_3   0.698509 0.144341 0.439441 -0.348405
C22   C     C_3   0.257478 0.223190 0.377472 -0.214054
C23   C     C_R   0.846860 0.865532 0.228146 -0.127689
C24   C     C_3   0.277330 0.746723 0.453153 -0.235591
C25   C     C_3   0.757481 0.723186 0.377475 -0.214056
C26   C     C_3   0.777339 0.246723 0.453179 -0.235594
C27   C     C_3   0.304139 0.266244 0.492114 0.332658
C28   C     C_3   0.275278 0.671014 0.504586 0.259181
C29   C     C_3   0.804140 0.766244 0.492114 0.332658
C30   C     C_3   0.775272 0.171006 0.504582 0.259170
C31   C     C_3   0.730196 0.663891 0.496969 0.208065
C32   C     C_3   0.702800 0.275177 0.509178 0.211913
C33   C     C_3   0.230196 0.163890 0.496967 0.208069
C34   C     C_R   0.853875 0.142929 0.244174 -0.105615
C35   C     C_3   0.202808 0.775188 0.509180 0.211913
C36   C     C_3   0.711393 0.743942 0.511447 -0.564899
C37   C     C_3   0.655851 0.205272 0.443139 -0.549444
C38   C     C_3   0.211395 0.243939 0.511451 -0.564900
C39   C     C_3   0.155863 0.705276 0.443165 -0.549444
C40   C     C_R   0.667968 0.391865 0.798223 -0.157514
C41   C     C_R   0.665018 0.614953 0.791742 -0.126979
C42   C     C_R   0.167967 0.891862 0.798221 -0.157506
C43   C     C_R   0.165019 0.114951 0.791744 -0.126977
C44   C     C_3   0.711444 0.664923 0.379145 0.139475
C45   C     C_R   0.651274 0.374869 0.864893 0.113630
C46   C     C_3   0.728142 0.305067 0.445474 0.178625
C47   C     C_3   0.211441 0.164926 0.379141 0.139464
C48   C     C_3   0.228136 0.805070 0.445452 0.178623
C49   C     C_2   0.699885 0.348629 0.981246 -0.200840
C50   C     C_2   0.689955 0.674597 0.960694 -0.211457
C51   C     C_2   0.199883 0.848625 0.981243 -0.200837
C52   C     C_2   0.189955 0.174595 0.960696 -0.211453
C53   C     C_2   0.769031 0.347498 0.038508 -0.036589
C54   C     C_2   0.759095 0.665894 0.024659 -0.017180
C55   C     C_2   0.269029 0.847497 0.038508 -0.036588
C56   C     C_R   0.644224 0.640782 0.850477 0.089074
C57   C     C_2   0.259094 0.165893 0.024663 -0.017180
C58   C     C_2   0.362366 0.753485 0.145707 0.320500
C59   C     C_2   0.349283 0.261337 0.118724 0.337424
C60   C     C_2   0.862367 0.253485 0.145707 0.320499
C61   C     C_2   0.849284 0.761338 0.118722 0.337426
C62   C     C_2   0.311993 0.794884 0.132335 -0.206240
C63   C     C_2   0.303253 0.218430 0.114777 -0.239728
C64   C     C_2   0.811994 0.294885 0.132335 -0.206238
C65   C     C_2   0.803256 0.718430 0.114776 -0.239727
C66   C     C_R   0.601944 0.368618 0.409837 -0.095070
C67   C     C_R   0.151273 0.874866 0.864890 0.113627
C68   C     C_R   0.615040 0.600070 0.407158 -0.128214
C69   C     C_R   0.101948 0.868622 0.409838 -0.095070
C70   C     C_R   0.115040 0.100069 0.407158 -0.128210
C71   C     C_R   0.401347 0.366665 0.590834 0.334774
C72   C     C_R   0.384267 0.593620 0.591607 0.259950
C73   C     C_R   0.901347 0.866664 0.590833 0.334775
C74   C     C_R   0.884265 0.093618 0.591605 0.259947
C75   C     C_R   0.674830 0.370203 0.596487 -0.056095
C76   C     C_R   0.689545 0.598564 0.591592 -0.125843
C77   C     C_R   0.174838 0.870213 0.596489 -0.056122
C78   C     C_R   0.144224 0.140780 0.850479 0.089072
C79   C     C_R   0.189546 0.098561 0.591591 -0.125858
C80   C     C_R   0.323444 0.373520 0.404715 0.250082
C81   C     C_R   0.311632 0.599900 0.408028 0.258806
C82   C     C_R   0.823446 0.873518 0.404715 0.250082
C83   C     C_R   0.811632 0.099899 0.408026 0.258805
C84   C     C_R   0.583836 0.400745 0.810435 0.076552
C85   C     C_R   0.575857 0.617344 0.794261 0.037147
C86   C     C_R   0.083836 0.900743 0.810434 0.076547
C87   C     C_R   0.075857 0.117344 0.794262 0.037147
C88   C     C_R   0.437001 0.366698 0.227048 -0.069165
C89   C     C_R   0.659440 0.333502 0.505655 0.061193
C90   C     C_R   0.443824 0.640606 0.242518 -0.056933
C91   C     C_R   0.937001 0.866698 0.227048 -0.069164
C92   C     C_R   0.943824 0.140606 0.242518 -0.056932
C93   C     C_R   0.376926 0.328452 0.188983 0.010622
C94   C     C_R   0.386719 0.682842 0.211048 0.001989
C95   C     C_R   0.876927 0.828452 0.188983 0.010617
C96   C     C_R   0.886720 0.182842 0.211048 0.001986
H1    H     H_    0.296770 0.353721 0.205138 0.160012
H2    H     H_    0.197372 0.590690 0.475905 0.197512
H3    H     H_    0.788444 0.831195 0.596091 0.233358
H4    H     H_    0.697350 0.090682 0.475851 0.197512
H5    H     H_    0.716975 0.748332 0.588186 0.206351
H6    H     H_    0.632324 0.181832 0.478939 0.198036
H7    H     H_    0.216977 0.248326 0.588191 0.206351
H8    H     H_    0.132345 0.681842 0.478983 0.198034
H9    H     H_    0.720173 0.761444 0.307979 0.176971
H10   H     H_    0.756703 0.236170 0.366367 0.149975
H11   H     H_    0.220172 0.261448 0.307977 0.176976
H12   H     H_    0.308235 0.660889 0.232005 0.150409
H13   H     H_    0.256684 0.736159 0.366339 0.149988
H14   H     H_    0.656894 0.686601 0.317578 0.101798
H15   H     H_    0.681701 0.310279 0.355436 0.112713
H16   H     H_    0.156891 0.186608 0.317578 0.101804
H17   H     H_    0.181689 0.810273 0.355416 0.112707
H18   H     H_    0.222721 0.346743 0.450302 0.214389
H19   H     H_    0.172409 0.633288 0.351033 0.230887
H20   H     H_    0.722717 0.846740 0.450285 0.214389
H21   H     H_    0.672403 0.133302 0.351001 0.230888
H22   H     H_    0.719749 0.392941 0.823222 0.114763
H23   H     H_    0.796771 0.853719 0.205139 0.160014
H24   H     H_    0.716643 0.617164 0.815827 0.123089
H25   H     H_    0.219748 0.892936 0.823219 0.114762
H26   H     H_    0.216644 0.117162 0.815830 0.123090
H27   H     H_    0.655414 0.757453 0.441280 0.197537
H28   H     H_    0.610560 0.221676 0.356016 0.192985
H29   H     H_    0.155416 0.257453 0.441286 0.197538
H30   H     H_    0.110566 0.721670 0.356042 0.192987
H31   H     H_    0.294013 0.780864 0.178462 0.122489
H32   H     H_    0.288712 0.231574 0.165522 0.109702
H33   H     H_    0.794014 0.280865 0.178462 0.122491
H34   H     H_    0.808236 0.160890 0.232007 0.150408
H35   H     H_    0.788717 0.731571 0.165525 0.109701
H36   H     H_    0.791654 0.375442 0.005972 0.171184
H37   H     H_    0.782575 0.629117 0.000805 0.163577
H38   H     H_    0.291653 0.875443 0.005973 0.171183
H39   H     H_    0.282575 0.129115 0.000810 0.163579
H40   H     H_    0.677685 0.321334 0.015267 0.158158
H41   H     H_    0.667214 0.711220 0.986252 0.150507
H42   H     H_    0.177683 0.821328 0.015263 0.158159
H43   H     H_    0.167213 0.211219 0.986252 0.150507
H44   H     H_    0.581414 0.359427 0.325367 0.109985
H45   H     H_    0.381164 0.174149 0.555777 0.168539
H46   H     H_    0.591589 0.600796 0.320225 0.141602
H47   H     H_    0.081416 0.859429 0.325366 0.109988
H48   H     H_    0.091588 0.100795 0.320225 0.141608
H49   H     H_    0.718408 0.363171 0.683601 0.120216
H50   H     H_    0.735716 0.597532 0.678062 0.125372
H51   H     H_    0.218420 0.863188 0.683602 0.120216
H52   H     H_    0.235717 0.097529 0.678060 0.125373
H53   H     H_    0.468950 0.356426 0.203640 0.142525
H54   H     H_    0.480452 0.654539 0.229170 0.142200
H55   H     H_    0.968951 0.856428 0.203640 0.142525
H56   H     H_    0.362393 0.697956 0.681544 0.183949
H57   H     H_    0.980453 0.154538 0.229170 0.142201
H58   H     H_    0.397759 0.225100 0.662589 0.210024
H59   H     H_    0.299167 0.633174 0.659155 0.215227
H60   H     H_    0.897759 0.725102 0.662595 0.210024
H61   H     H_    0.799138 0.133144 0.659126 0.215221
H62   H     H_    0.828371 0.563083 0.522349 0.207536
H63   H     H_    0.879731 0.557195 0.659911 0.126084
H64   H     H_    0.846399 0.323452 0.672906 0.177095
H65   H     H_    0.850998 0.300226 0.780896 0.141453
H66   H     H_    0.328364 0.063082 0.522331 0.207540
H67   H     H_    0.881166 0.674147 0.555786 0.168533
H68   H     H_    0.379729 0.057190 0.659895 0.126079
H69   H     H_    0.346407 0.823479 0.672872 0.177093
H70   H     H_    0.351017 0.800271 0.780877 0.141433
H71   H     H_    0.381881 0.141831 0.767850 0.142906
H72   H     H_    0.330078 0.217355 0.719877 0.176295
H73   H     H_    0.284536 0.710937 0.775501 0.156449
H74   H     H_    0.213126 0.674088 0.658792 0.122258
H75   H     H_    0.881877 0.641839 0.767855 0.142909
H76   H     H_    0.830073 0.717361 0.719876 0.176299
H77   H     H_    0.784497 0.210897 0.775475 0.156437
H78   H     H_    0.862376 0.197927 0.681554 0.183969
H79   H     H_    0.713091 0.174059 0.658748 0.122253
H80   H     H_    0.266430 0.170088 0.269781 0.171551
H81   H     H_    0.332809 0.227527 0.358412 0.103074
H82   H     H_    0.348475 0.818822 0.469606 0.178829
H83   H     H_    0.381739 0.735225 0.523921 0.097047
H84   H     H_    0.766430 0.670093 0.269777 0.171537
H85   H     H_    0.832818 0.727518 0.358429 0.103080
H86   H     H_    0.848500 0.318825 0.469683 0.178834
H87   H     H_    0.881753 0.235221 0.523976 0.097049
H88   H     H_    0.561840 0.397074 0.915654 0.180826
H89   H     H_    0.288450 0.331187 0.596105 0.233358
H90   H     H_    0.525663 0.471560 0.824300 0.207912
H91   H     H_    0.531634 0.683119 0.839074 0.121697
H92   H     H_    0.568495 0.603117 0.914948 0.151248
H93   H     H_    0.061839 0.897071 0.915652 0.180829
H94   H     H_    0.025664 0.971559 0.824303 0.207909
H95   H     H_    0.031641 0.183118 0.839088 0.121700
H96   H     H_    0.068491 0.103108 0.914943 0.151253
N1    N     N_R   0.389430 0.421450 0.294590 -0.035328
N2    N     N_R   0.581780 0.577610 0.443390 -0.053934
N3    N     N_R   0.081780 0.922390 0.443390 -0.041948
N4    N     N_R   0.081780 0.077610 0.443390 -0.053935
N5    N     N_R   0.419850 0.423100 0.556610 -0.077703
N6    N     N_R   0.419850 0.576900 0.556610 -0.094154
N7    N     N_R   0.919850 0.923100 0.556610 -0.077702
N8    N     N_R   0.919850 0.076900 0.556610 -0.094153
N9    N     N_R   0.627410 0.423100 0.556610 -0.049345
N10   N     N_R   0.627410 0.576900 0.556610 -0.049529
N11   N     N_R   0.127410 0.923100 0.556610 -0.049349
N12   N     N_R   0.389430 0.578550 0.294590 -0.029803
N13   N     N_R   0.127410 0.076900 0.556610 -0.049528
N14   N     N_R   0.374220 0.422390 0.443390 -0.074694
N15   N     N_R   0.374220 0.577610 0.443390 -0.091726
N16   N     N_R   0.874220 0.922390 0.443390 -0.074692
N17   N     N_R   0.874220 0.077610 0.443390 -0.091725
N18   N     N_R   0.555000 0.424040 0.705410 -0.062505
N19   N     N_R   0.555000 0.575960 0.705410 -0.053298
N20   N     N_R   0.055000 0.924040 0.705410 -0.062506
N21   N     N_R   0.055000 0.075960 0.705410 -0.053298
N22   N     N_R   0.446630 0.421450 0.294590 -0.058730
N23   N     N_R   0.889430 0.921450 0.294590 -0.035327
N24   N     N_R   0.446630 0.578550 0.294590 -0.058502
N25   N     N_R   0.946630 0.921450 0.294590 -0.058730
N26   N     N_R   0.946630 0.078550 0.294590 -0.058502
N27   N     N_3   0.828402 0.569562 0.589047 -0.156887
N28   N     N_3   0.815564 0.313855 0.695964 -0.195203
N29   N     N_3   0.328401 0.069560 0.589035 -0.156897
N30   N     N_3   0.315577 0.813889 0.695941 -0.195197
N31   N     N_3   0.330462 0.159941 0.704900 -0.212907
N32   N     N_3   0.241734 0.724046 0.692741 -0.216575
N33   N     N_3   0.830459 0.659948 0.704903 -0.212907
N34   N     N_R   0.889430 0.078550 0.294590 -0.029802
N35   N     N_3   0.741701 0.224014 0.692714 -0.216570
N36   N     N_3   0.299880 0.187339 0.352997 -0.182092
N37   N     N_3   0.348986 0.776259 0.517013 -0.189497
N38   N     N_3   0.799881 0.687334 0.352998 -0.182081
N39   N     N_3   0.848998 0.276253 0.517067 -0.189501
N40   N     N_3   0.569687 0.437747 0.875723 -0.205086
N41   N     N_3   0.537915 0.625348 0.834077 -0.183669
N42   N     N_3   0.069687 0.937744 0.875723 -0.205085
N43   N     N_3   0.037915 0.125347 0.834077 -0.183669
N44   N     N_R   0.612200 0.424040 0.705410 -0.061745
N45   N     N_R   0.612200 0.575960 0.705410 -0.060287
N46   N     N_R   0.112200 0.924040 0.705410 -0.061744
N47   N     N_R   0.112200 0.075960 0.705410 -0.060287
N48   N     N_R   0.581780 0.422390 0.443390 -0.041945
Ni1   Ni    Ni4+2 0.382890 0.500000 0.370170 0.301603
Ni2   Ni    Ni4+2 0.882890 0.000000 0.370170 0.301606
Ni3   Ni    Ni4+2 0.618740 0.500000 0.629830 0.208577
Ni4   Ni    Ni4+2 0.118740 0.000000 0.629830 0.208571
Ni5   Ni    Ni4+2 0.514090 0.500000 0.370170 0.246628
Ni6   Ni    Ni4+2 0.014090 0.000000 0.370170 0.246629
Ni7   Ni    Ni4+2 0.487550 0.500000 0.629830 0.251246
Ni8   Ni    Ni4+2 0.987550 0.000000 0.629830 0.251247

loop_
_geom_bond_atom_site_label_1
_geom_bond_atom_site_label_2
_ccdc_geom_bond_type
H69   N30   S    
C87   N21   A    
C5    C71   A    
C51   C67   S    
H80   N36   S    
C67   C86   A    
Br12  C58   S    
C25   N38   S    
C37   H28   S    
C75   C89   A    
Br10  C47   S    
C91   H55   S    
C81   N15   A    
H75   N33   S    
C52   H43   S    
H62   N27   S    
C9    C27   S    
C74   N8    A    
C24   N37   S    
C1    H1    S    
N19   N45   A    
C21   H4    S    
C23   H23   S    
N18   N44   A    
H83   N37   S    
C10   H56   S    
C79   N13   A    
C72   N6    A    
N5    Ni7   S    
C51   H42   S    
C7    C29   S    
N10   Ni3   S    
C90   H54   S    
C15   N35   S    
Br7   C82   S    
Br8   C83   S    
C11   H67   S    
N17   Ni2   S    
C1    N1    A    
C20   H20   S    
C88   C93   A    
C68   N2    A    
H73   N32   S    
C16   N29   S    
C77   H51   S    
C18   H89   S    
C33   C38   S    
C8    C83   A    
H85   N38   S    
C36   H27   S    
C19   H2    S    
C26   C30   S    
C66   C89   A    
C25   H9    S    
C39   H8    S    
C61   C95   S    
C54   C65   S    
N45   Ni3   S    
C10   H59   S    
C17   N30   S    
H71   N31   S    
C88   H53   S    
C5    C27   S    
H95   N43   S    
N1    Ni1   S    
C50   C56   S    
Br13  C59   S    
C65   H35   S    
H82   N37   S    
C4    C70   A    
H77   N35   S    
Br16  C71   S    
C2    C68   A    
C7    C73   A    
C41   H24   S    
Br2   C72   S    
H93   N42   S    
C43   C78   A    
C6    C72   A    
C14   N27   S    
N13   Ni4   S    
C9    H58   S    
C26   C46   S    
H72   N31   S    
C51   C55   D    
C47   H16   S    
C3    C77   A    
H87   N39   S    
C15   N28   S    
C73   N7    A    
C66   H44   S    
C36   H5    S    
C11   C29   S    
C9    C16   S    
C23   C95   A    
C91   N25   A    
N22   Ni5   S    
H90   N40   S    
C12   N12   A    
C39   H30   S    
H91   N41   S    
N48   Ni5   S    
C57   H39   S    
C11   C14   S    
C92   H57   S    
N34   Ni2   S    
C66   N48   A    
H76   N33   S    
C54   H37   S    
N4    N13   A    
C69   N3    A    
C34   C96   A    
N21   N47   A    
H65   N28   S    
Br4   C74   S    
C33   C47   S    
C71   N5    A    
C32   C37   S    
N19   Ni7   S    
C80   N14   A    
C92   N26   A    
C26   N39   S    
C59   C93   S    
N24   Ni5   S    
N12   N24   A    
C10   C28   S    
Br9   C46   S    
Br6   C81   S    
N6    Ni7   S    
N8    Ni8   S    
Br11  C48   S    
Br1   C44   S    
N15   Ni1   S    
H70   N30   S    
C68   H46   S    
C37   H6    S    
C43   H26   S    
C12   C94   A    
C52   C57   D    
C62   H31   S    
C43   N47   A    
C14   N33   S    
C19   C39   S    
C52   C78   S    
C92   C96   A    
C82   N16   A    
N25   Ni6   S    
H96   N43   S    
Br14  C60   S    
C85   N19   A    
C75   N9    A    
C76   N10   A    
C23   N23   A    
C4    C33   S    
C84   N40   S    
C87   N43   S    
C45   C49   S    
C11   H60   S    
N5    N14   A    
C14   C31   S    
C10   C17   S    
C32   C46   S    
C32   C89   S    
N46   Ni4   S    
H86   N39   S    
C60   C96   S    
N4    Ni6   S    
N23   Ni2   S    
C86   N20   A    
C57   C63   S    
C20   C29   S    
N23   N25   A    
C24   H13   S    
C88   N22   A    
C84   N18   A    
H88   N40   S    
C19   C28   S    
C83   N17   A    
N9    N48   A    
N26   N34   A    
N20   N46   A    
H92   N41   S    
C42   H25   S    
C64   H33   S    
C5    C80   A    
C4    C79   A    
C24   C28   S    
C78   C87   A    
C18   C38   S    
C38   H7    S    
C15   C32   S    
C9    H45   S    
H81   N36   S    
H74   N32   S    
C45   C84   A    
C19   H19   S    
C31   C44   S    
Br5   C80   S    
C22   N36   S    
C26   H10   S    
N16   Ni2   S    
C22   C47   S    
C90   C94   A    
N21   Ni8   S    
C76   H50   S    
N47   Ni4   S    
N3    Ni6   S    
C6    C28   S    
N7    N16   A    
H84   N38   S    
C86   N42   S    
C91   C95   A    
N7    Ni8   S    
C85   N41   S    
C18   C27   S    
C60   C64   D    
C25   C44   S    
C13   H61   S    
C3    C69   A    
C1    C93   A    
C58   C94   S    
C50   H41   S    
C40   H22   S    
C12   H12   S    
C31   C36   S    
C70   N4    A    
C16   N31   S    
C17   C35   S    
N3    N11   A    
C20   C36   S    
C50   C54   D    
H63   N27   S    
N8    N17   A    
N9    Ni3   S    
C63   H32   S    
C77   N11   A    
C13   C30   S    
Br3   C73   S    
C8    C74   A    
C2    C76   A    
H79   N35   S    
C49   H40   S    
C44   H14   S    
N12   Ni1   S    
C21   C37   S    
C22   C27   S    
C13   C15   S    
C17   N32   S    
C34   N34   A    
C42   C67   A    
C34   H34   S    
Br15  C61   S    
C70   H48   S    
H68   N29   S    
N2    Ni5   S    
C49   C53   D    
C24   C48   S    
C40   N44   A    
C58   C62   D    
C90   N24   A    
C42   N46   A    
C35   C39   S    
N1    N22   A    
H66   N29   S    
C41   C56   A    
C41   N45   A    
H94   N42   S    
C21   H21   S    
C16   C33   S    
N14   Ni1   S    
H64   N28   S    
N6    N15   A    
C55   H38   S    
C3    C35   S    
C46   H15   S    
N26   Ni6   S    
C7    C82   A    
C48   H17   S    
C18   H18   S    
C61   C65   D    
C56   C85   A    
C22   H11   S    
C2    C31   S    
C6    C81   A    
C53   H36   S    
C25   C29   S    
C13   H78   S    
C75   H49   S    
C53   C64   S    
C35   C48   S    
N11   Ni4   S    
C69   H47   S    
C21   C30   S    
C79   H52   S    
C20   H3    S    
C59   C63   D    
N18   Ni7   S    
C38   H29   S    
C55   C62   S    
N2    N10   A    
N20   Ni8   S    
N44   Ni3   S    
C8    C30   S    
C40   C45   A    
