data_mof_unit_12101.cif
_audit_creation_date              2012-12-10T18:32:54-0500
_audit_creation_method            fapswitch 2.2
_symmetry_space_group_name_H-M    P1
_symmetry_Int_Tables_number       1
_space_group_crystal_system       triclinic
_cell_length_a                    14.975518
_cell_length_b                    15.338256
_cell_length_c                    15.747096
_cell_angle_alpha                 89.532468
_cell_angle_beta                  103.941911
_cell_angle_gamma                 82.060588
_cell_volume                      3473.64228382

loop_
_atom_site_label
_atom_site_type_symbol
_atom_type_description
_atom_site_fract_x
_atom_site_fract_y
_atom_site_fract_z
_atom_type_partial_charge
C1    C     C_R   0.441635 0.662574 0.489047 0.854566
C2    C     C_R   0.593210 0.243770 0.532525 -0.089518
C3    C     C_R   0.283308 0.873544 0.502688 -0.179254
C4    C     C_R   0.500903 0.499161 0.661492 0.905442
C5    C     C_R   0.311870 0.785420 0.488389 -0.191082
C6    C     C_R   0.471206 0.813099 0.519603 -0.209201
C7    C     C_R   0.445277 0.898384 0.543180 0.135744
C8    C     C_R   0.349601 0.930776 0.528292 0.084789
C9    C     C_R   0.512621 0.954423 0.572381 -0.066315
C10   C     C_R   0.483813 0.045956 0.561463 -0.110291
C11   C     C_R   0.387445 0.078314 0.552563 0.468237
C12   C     C_3   0.401333 0.530628 0.026972 0.458240
C13   C     C_R   0.321951 0.020008 0.537178 -0.315866
C14   C     C_R   0.607342 0.922140 0.611183 -0.010680
C15   C     C_R   0.675406 0.977876 0.617587 0.399789
C16   C     C_R   0.558276 0.337341 0.512889 0.852609
C17   C     C_R   0.648392 0.067259 0.591465 0.032462
C18   C     C_R   0.552517 0.100499 0.560569 0.020428
C19   C     C_R   0.715122 0.124533 0.595999 -0.166013
C20   C     C_R   0.687346 0.212992 0.568752 -0.216937
C21   C     C_R   0.528136 0.185830 0.523726 -0.176436
C22   C     C_R   0.853826 0.591917 0.666097 0.384477
C23   C     C_3   0.504076 0.492838 0.082935 0.052799
C24   C     C_R   0.761017 0.578442 0.632170 -0.268757
C25   C     C_R   0.788646 0.542048 0.494102 0.549796
C26   C     C_R   0.885672 0.537146 0.528739 -0.184571
C27   C     C_R   0.916594 0.569297 0.613453 0.042381
C28   C     C_R   0.499450 0.500384 0.338402 0.882311
C29   C     C_R   0.952236 0.498705 0.484031 0.095237
C30   C     C_R   0.047362 0.508311 0.516508 0.091365
C31   C     C_R   0.074278 0.549559 0.596636 -0.265381
C32   C     C_R   0.010525 0.577127 0.645076 -0.144867
C33   C     C_R   0.927755 0.442984 0.413901 -0.269712
C34   C     C_3   0.533495 0.394217 0.056834 0.931415
C35   C     C_R   0.993827 0.400875 0.373195 0.066641
C36   C     C_R   0.086548 0.415714 0.400312 0.168861
C37   C     C_R   0.113497 0.471339 0.470873 -0.051354
C38   C     C_R   0.153564 0.374792 0.358994 -0.274786
C39   C     C_R   0.244696 0.391171 0.386022 0.026358
C40   C     C_3   0.408305 0.544754 0.928203 -0.210239
C41   C     C_R   0.206505 0.487429 0.493036 -0.069088
C42   C     C_3   0.584317 0.538603 0.968532 -0.468801
C43   C     C_3   0.576963 0.551254 0.064240 0.255145
C44   C     C_1   0.500358 0.498385 0.249534 -0.183504
C45   C     C_3   0.513314 0.398235 0.954119 -0.577837
C46   C     C_3   0.502293 0.494397 0.917373 0.148654
C47   C     C_3   0.263177 0.455149 0.975185 0.134796
C48   C     C_3   0.189276 0.537142 0.952017 -0.434144
C49   C     C_3   0.097905 0.513732 0.896636 -0.919680
C50   C     C_3   0.668521 0.302529 0.154991 0.140032
C51   C     C_3   0.651146 0.325405 0.244812 -0.340892
C52   C     C_3   0.706263 0.257086 0.315873 -0.988622
C53   C     C_3   0.805346 0.908457 0.582255 0.043201
C54   C     C_3   0.894450 0.845268 0.621276 -0.311683
C55   C     C_3   0.934911 0.800600 0.549788 -0.973629
C56   C     C_1   0.503555 0.495398 0.174900 0.081498
C57   C     C_3   0.371169 0.186116 0.648471 0.058355
C58   C     C_3   0.336726 0.283804 0.654940 -0.272354
C59   C     C_3   0.354970 0.310709 0.749930 -1.018253
C60   C     C_3   0.820757 0.656798 0.792704 0.063671
C61   C     C_3   0.868076 0.698538 0.876300 -0.319762
C62   C     C_3   0.796741 0.747658 0.920224 -0.979998
C63   C     C_3   0.750810 0.630216 0.369809 0.053990
C64   C     C_3   0.681808 0.702253 0.396687 -0.335774
C65   C     C_3   0.679785 0.790791 0.350924 -1.024546
C66   C     C_3   0.725031 0.590459 0.121047 0.091540
C67   C     C_1   0.503314 0.494468 0.826035 0.013638
C68   C     C_3   0.823735 0.551911 0.170456 -0.318927
C69   C     C_3   0.889486 0.620844 0.181278 -0.979775
C70   C     C_3   0.480796 0.251326 0.054282 0.060769
C71   C     C_3   0.381757 0.235554 0.010542 -0.321917
C72   C     C_3   0.380074 0.141770 0.979223 -0.990346
C73   C     C_1   0.502954 0.496474 0.750720 -0.197133
C74   C     C_R   0.406445 0.755342 0.496012 -0.078246
H1    H     H_    0.353558 0.517140 0.880899 0.162827
H2    H     H_    0.231295 0.533709 0.541022 0.135102
H3    H     H_    0.296579 0.360946 0.353801 0.142058
H4    H     H_    0.711165 0.588057 0.671455 0.175623
H5    H     H_    0.650710 0.496332 0.967208 0.221682
H6    H     H_    0.145537 0.555875 0.627098 0.139051
H7    H     H_    0.858453 0.425898 0.393302 0.201527
H8    H     H_    0.136044 0.331072 0.305782 0.171416
H9    H     H_    0.585971 0.603407 0.937043 0.150162
H10   H     H_    0.552484 0.621688 0.071910 0.049679
H11   H     H_    0.448615 0.371273 0.924341 0.171002
H12   H     H_    0.248980 0.045533 0.528580 0.166707
H13   H     H_    0.570636 0.356715 0.933106 0.182713
H14   H     H_    0.305350 0.645520 0.022928 0.170804
H15   H     H_    0.413400 0.658038 0.076496 0.128707
H16   H     H_    0.230970 0.404267 0.003020 0.169018
H17   H     H_    0.279763 0.424688 0.916308 0.095880
H18   H     H_    0.176647 0.566836 0.012960 0.243563
H19   H     H_    0.212397 0.586080 0.913090 0.203630
H20   H     H_    0.108996 0.481476 0.836346 0.266833
H21   H     H_    0.047638 0.574823 0.877219 0.289596
H22   H     H_    0.068141 0.468946 0.934579 0.264040
H23   H     H_    0.458005 0.208031 0.486675 0.211356
H24   H     H_    0.745085 0.292857 0.163231 0.158565
H25   H     H_    0.648820 0.238103 0.133760 0.099291
H26   H     H_    0.672639 0.390685 0.262626 0.260728
H27   H     H_    0.576542 0.327046 0.243058 0.239257
H28   H     H_    0.685572 0.191083 0.300505 0.266129
H29   H     H_    0.691934 0.275748 0.379794 0.277093
H30   H     H_    0.781976 0.253947 0.321586 0.257329
H31   H     H_    0.822028 0.962465 0.543763 0.145290
H32   H     H_    0.756440 0.871207 0.536691 0.140301
H33   H     H_    0.946635 0.882304 0.662250 0.223693
H34   H     H_    0.739111 0.257024 0.576284 0.163915
H35   H     H_    0.879217 0.793831 0.663722 0.237937
H36   H     H_    0.886187 0.758442 0.511828 0.264286
H37   H     H_    0.001713 0.758518 0.580102 0.273980
H38   H     H_    0.948206 0.850679 0.504765 0.260483
H39   H     H_    0.328950 0.666717 0.887974 0.174206
H40   H     H_    0.439081 0.674085 0.944353 0.181208
H41   H     H_    0.446819 0.173008 0.681082 0.148557
H42   H     H_    0.332631 0.146311 0.682923 0.142863
H43   H     H_    0.372986 0.323756 0.618658 0.257759
H44   H     H_    0.260867 0.297746 0.624285 0.224569
H45   H     H_    0.209811 0.896955 0.493419 0.136804
H46   H     H_    0.317845 0.272716 0.787153 0.266821
H47   H     H_    0.329681 0.382009 0.752240 0.268522
H48   H     H_    0.430692 0.298595 0.781132 0.266866
H49   H     H_    0.662876 0.842685 0.719408 0.206364
H50   H     H_    0.682572 0.799750 0.625650 0.179053
H51   H     H_    0.940287 0.290471 0.331657 0.182605
H52   H     H_    0.912846 0.374840 0.256078 0.186009
H53   H     H_    0.781642 0.606120 0.811360 0.149293
H54   H     H_    0.772774 0.709391 0.749054 0.139499
H55   H     H_    0.912787 0.646248 0.922870 0.220493
H56   H     H_    0.260327 0.741372 0.470888 0.158208
H57   H     H_    0.912625 0.745409 0.860283 0.228350
H58   H     H_    0.754373 0.803446 0.876843 0.270033
H59   H     H_    0.833142 0.774224 0.982412 0.265506
H60   H     H_    0.750103 0.702493 0.935128 0.251824
H61   H     H_    0.729282 0.627206 0.297983 0.185066
H62   H     H_    0.822333 0.648422 0.385679 0.131756
H63   H     H_    0.610949 0.683301 0.378826 0.253112
H64   H     H_    0.701889 0.710488 0.468471 0.202422
H65   H     H_    0.749830 0.811702 0.368256 0.268459
H66   H     H_    0.630081 0.841415 0.372187 0.268702
H67   H     H_    0.542262 0.791663 0.517105 0.171663
H68   H     H_    0.657116 0.786115 0.278753 0.268086
H69   H     H_    0.701099 0.651517 0.151643 0.120478
H70   H     H_    0.727161 0.608125 0.053043 0.128037
H71   H     H_    0.823232 0.525431 0.236108 0.235201
H72   H     H_    0.849906 0.496446 0.133793 0.222112
H73   H     H_    0.892763 0.646745 0.116178 0.271219
H74   H     H_    0.960330 0.590342 0.217167 0.275467
H75   H     H_    0.865580 0.676125 0.219342 0.259086
H76   H     H_    0.507279 0.202097 0.109934 0.155507
H77   H     H_    0.526421 0.238044 0.008200 0.119676
H78   H     H_    0.788492 0.101718 0.622084 0.171273
H79   H     H_    0.337478 0.247040 0.057920 0.234282
H80   H     H_    0.351822 0.281598 0.953236 0.204415
H81   H     H_    0.422483 0.129590 0.930385 0.265122
H82   H     H_    0.307422 0.132501 0.947835 0.266180
H83   H     H_    0.407694 0.093266 0.035354 0.267324
H84   H     H_    0.035789 0.604385 0.708120 0.187727
N1    N     N_R   0.731690 0.552720 0.548990 -0.144851
N2    N     N_R   0.268300 0.447240 0.450950 -0.105793
N3    N     N_3   0.366215 0.613139 0.064051 -0.443122
N4    N     N_3   0.398324 0.637830 0.898732 -0.463285
N5    N     N_3   0.632903 0.835794 0.653094 -0.456472
N6    N     N_3   0.966580 0.341222 0.305242 -0.477411
O1    O     O_R   0.383120 0.605620 0.475300 -0.612264
O2    O     O_3   0.632491 0.371044 0.089555 -0.647809
O3    O     O_3   0.768135 0.944300 0.651122 -0.651365
O4    O     O_3   0.354922 0.166218 0.559190 -0.659218
O5    O     O_3   0.889169 0.616991 0.751605 -0.663372
O6    O     O_3   0.748879 0.545392 0.405268 -0.638542
O7    O     O_3   0.665279 0.527041 0.123520 -0.585123
O8    O     O_3   0.480110 0.336528 0.089425 -0.651094
O9    O     O_R   0.531890 0.639510 0.506740 -0.627400
O10   O     O_R   0.425580 0.483050 0.607130 -0.623214
O11   O     O_R   0.574360 0.516930 0.638570 -0.622092
O12   O     O_R   0.468110 0.360490 0.493260 -0.624487
O13   O     O_R   0.616880 0.394380 0.524700 -0.601693
O14   O     O_R   0.425640 0.483070 0.361430 -0.605943
O15   O     O_R   0.574420 0.516950 0.392870 -0.559981
O16   O     O_3   0.344159 0.466427 0.040625 -0.593686
Zn1   Zn    Zn3+2 0.400660 0.477370 0.479010 0.939338
Zn2   Zn    Zn3+2 0.599340 0.522630 0.520990 0.956779

loop_
_geom_bond_atom_site_label_1
_geom_bond_atom_site_label_2
_ccdc_geom_bond_type
C25   O6    S    
C59   H47   S    
C66   C68   S    
C52   H29   S    
C59   H46   S    
C72   H82   S    
C39   N2    A    
C18   C21   A    
C35   C36   A    
C70   H76   S    
C24   N1    A    
C34   O8    S    
C23   C56   S    
C57   H41   S    
C57   O4    S    
C64   H64   S    
C53   C54   S    
C40   C46   S    
C12   C23   S    
C1    O9    A    
C26   C27   A    
C8    C13   A    
C54   H33   S    
C60   O5    S    
C39   H3    S    
C62   H59   S    
C36   C37   A    
C45   H13   S    
C30   C31   A    
C55   H38   S    
H40   N4    S    
C66   H70   S    
O13   Zn2   S    
C71   H79   S    
C29   C33   A    
C58   H44   S    
C21   H23   S    
C15   C17   A    
C40   N4    S    
C42   C46   S    
C5    C74   A    
C70   O8    S    
C17   C19   A    
C12   N3    S    
C65   H66   S    
C53   H32   S    
C53   O3    S    
C19   C20   A    
C68   C69   S    
C4    O11   A    
C13   H12   S    
C50   O2    S    
C70   C71   S    
C67   C73   T    
C49   H20   S    
C2    C16   S    
C9    C10   A    
C61   H55   S    
O15   Zn2   S    
C16   O12   A    
C59   H48   S    
H39   N4    S    
C42   H5    S    
N1    Zn2   S    
C72   H81   S    
C4    O10   A    
C38   H8    S    
C43   H10   S    
C15   O3    S    
H52   N6    S    
O10   Zn1   S    
H15   N3    S    
C6    C74   A    
C57   H42   S    
C32   H84   S    
C64   H63   S    
C60   H53   S    
O12   Zn1   S    
C50   H24   S    
C48   H19   S    
C70   H77   S    
C2    C20   A    
C51   C52   S    
C22   O5    S    
C62   H58   S    
C66   O7    S    
C7    C8    A    
C31   H6    S    
C3    C8    A    
C43   O7    S    
C63   O6    S    
C66   H69   S    
C50   C51   S    
C25   C26   A    
C45   C46   S    
C71   H80   S    
C28   C44   S    
C58   H43   S    
C72   H83   S    
C30   C37   A    
C60   C61   S    
C63   H61   S    
C12   C40   S    
C45   H11   S    
C9    C14   A    
C25   N1    A    
C29   C30   A    
C41   N2    A    
H49   N5    S    
C44   C56   T    
C47   C48   S    
C1    O1    A    
C23   C34   S    
C52   H28   S    
C2    C21   A    
C17   C18   A    
C50   H25   S    
C34   C45   S    
C49   H21   S    
C6    H67   S    
C4    C73   S    
C3    H45   S    
O11   Zn2   S    
C24   H4    S    
C5    H56   S    
C12   O16   S    
O9    Zn2   S    
C22   C27   A    
C55   H36   S    
C11   O4    S    
C69   H73   S    
C47   H16   S    
C22   C24   A    
H51   N6    S    
C42   C43   S    
C1    C74   S    
N2    Zn1   S    
C68   H72   S    
C16   O13   A    
C51   H26   S    
C7    C9    A    
C54   C55   S    
C52   H30   S    
C55   H37   S    
C27   C32   A    
C23   C43   S    
C47   H17   S    
C31   C32   A    
C42   H9    S    
C60   H54   S    
C3    C5    A    
C14   N5    S    
C6    C7    A    
C51   H27   S    
C47   O16   S    
C35   N6    S    
C40   H1    S    
O1    Zn1   S    
C64   C65   S    
H50   N5    S    
C36   C38   A    
C58   C59   S    
C69   H75   S    
C71   C72   S    
C63   H62   S    
C41   H2    S    
C65   H68   S    
C11   C13   A    
C62   H60   S    
C57   C58   S    
C38   C39   A    
C33   H7    S    
C10   C18   A    
C48   C49   S    
C33   C35   A    
C49   H22   S    
C37   C41   A    
C61   C62   S    
C28   O15   A    
O14   Zn1   S    
C10   C11   A    
C61   H57   S    
C63   C64   S    
C65   H65   S    
C53   H31   S    
C46   C67   S    
C54   H35   S    
C26   C29   A    
C48   H18   S    
C69   H74   S    
C14   C15   A    
C34   O2    S    
C28   O14   A    
C68   H71   S    
H14   N3    S    
C20   H34   S    
C19   H78   S    
