data_mof_unit_65544.cif
_audit_creation_date              2012-10-26T21:11:18-0400
_audit_creation_method            fapswitch 2.2
_symmetry_space_group_name_H-M    P1
_symmetry_Int_Tables_number       1
_space_group_crystal_system       triclinic
_cell_length_a                    15.962163
_cell_length_b                    14.432589
_cell_length_c                    13.145951
_cell_angle_alpha                 90.000259
_cell_angle_beta                  90.005206
_cell_angle_gamma                 89.999938
_cell_volume                      3028.50289413

loop_
_atom_site_label
_atom_site_type_symbol
_atom_type_description
_atom_site_fract_x
_atom_site_fract_y
_atom_site_fract_z
_atom_type_partial_charge
C1    C     C_1   0.500000 0.227123 0.499999 -0.037213
C2    C     C_R   0.499999 0.671297 0.500000 0.552436
C3    C     C_R   0.337726 0.499997 0.499980 0.561231
C4    C     C_R   0.662274 0.500003 0.500020 0.561230
C5    C     C_1   0.500000 0.142310 0.499999 -0.033295
C6    C     C_1   0.500000 0.857690 0.500001 -0.033295
C7    C     C_1   0.500015 0.500000 0.173629 0.139022
C8    C     C_1   0.499985 0.500000 0.826371 0.139022
C9    C     C_1   0.500000 0.042405 0.499999 0.008023
C10   C     C_1   0.500000 0.957595 0.500000 0.008023
C11   C     C_3   0.971556 0.425881 0.552108 -0.134016
C12   C     C_1   0.500000 0.772877 0.500001 -0.037213
C13   C     C_3   0.028444 0.574119 0.447892 -0.134016
C14   C     C_3   0.028453 0.421588 0.456119 -0.134156
C15   C     C_3   0.971547 0.578412 0.543880 -0.134156
C16   C     C_1   0.500005 0.500000 0.050681 -0.031548
C17   C     C_1   0.499995 0.500000 0.949319 -0.031548
C18   C     C_1   0.248652 0.500006 0.500008 -0.002256
C19   C     C_1   0.751348 0.499994 0.499992 -0.002256
C20   C     C_2   0.945618 0.490858 0.295849 0.230871
C21   C     C_2   0.054381 0.509142 0.704151 0.230871
C22   C     C_3   0.026751 0.504274 0.595452 0.045167
C23   C     C_3   0.973249 0.495726 0.404548 0.045167
C24   C     C_3   0.082556 0.500039 0.500739 0.049283
C25   C     C_3   0.917444 0.499961 0.499260 0.049283
C26   C     C_1   0.173614 0.500019 0.500237 0.001971
C27   C     C_1   0.826386 0.499981 0.499763 0.001970
C28   C     C_R   0.500000 0.328703 0.499999 0.552436
Cu1   Cu    Cu3+1 0.499990 0.500000 0.592680 1.005450
Cu2   Cu    Cu3+1 0.500010 0.500000 0.407320 1.005450
H1    H     H_    0.052540 0.357549 0.419594 0.115810
H2    H     H_    0.947460 0.642451 0.580406 0.115810
H3    H     H_    0.947476 0.365408 0.595349 0.116096
H4    H     H_    0.052524 0.634592 0.404651 0.116096
H5    H     H_    0.992195 0.488179 0.235871 0.102269
H6    H     H_    0.007805 0.511821 0.764129 0.102269
N1    N     N_1   0.500020 0.500000 0.268070 -0.161510
N2    N     N_1   0.499980 0.500000 0.731930 -0.161510
O1    O     O_R   0.499990 0.376050 0.578280 -0.473550
O2    O     O_2   0.128679 0.510122 0.725889 -0.486718
O3    O     O_R   0.500010 0.623950 0.421720 -0.473550
O4    O     O_R   0.500010 0.376050 0.421720 -0.473154
O5    O     O_R   0.499990 0.623950 0.578280 -0.473154
O6    O     O_R   0.379070 0.500000 0.578250 -0.466375
O7    O     O_R   0.620930 0.500000 0.421750 -0.466375
O8    O     O_R   0.379080 0.500000 0.421720 -0.493837
O9    O     O_R   0.620920 0.500000 0.578280 -0.493837
O10   O     O_2   0.871321 0.489878 0.274111 -0.486718

loop_
_geom_bond_atom_site_label_1
_geom_bond_atom_site_label_2
_ccdc_geom_bond_type
C14   C23   S    
C6    C10   S    
C1    C28   S    
Cu2   O3    S    
C5    C9    S    
Cu1   Cu2   S    
C25   C27   S    
C19   C27   T    
C9    C10   T    
C14   H1    S    
C11   C22   S    
C8    C17   S    
C18   C26   T    
C20   C23   S    
C2    O5    A    
C2    C12   S    
Cu1   O1    S    
C23   C25   S    
C7    N1    T    
Cu2   O7    S    
C13   H4    S    
C21   H6    S    
C21   C22   S    
Cu1   O5    S    
C20   H5    S    
C20   O10   D    
C21   O2    D    
C8    N2    T    
Cu1   O9    S    
C1    C5    T    
C28   O4    A    
C7    C16   S    
C24   C26   S    
C4    O7    A    
C13   C15   S    
Cu1   O6    S    
C6    C12   T    
C13   C24   S    
C11   C14   S    
C22   C24   S    
C3    O6    A    
C15   C25   S    
C11   C25   S    
C2    O3    A    
C11   H3    S    
Cu1   N2    S    
C13   C23   S    
C3    C18   S    
C14   C24   S    
Cu2   O4    S    
C3    O8    A    
C28   O1    A    
C4    C19   S    
Cu2   O8    S    
C15   C22   S    
Cu2   N1    S    
C16   C17   T    
C4    O9    A    
C15   H2    S    
