data_mof_unit_51257.cif
_audit_creation_date              2012-10-26T17:12:34-0400
_audit_creation_method            fapswitch 2.2
_symmetry_space_group_name_H-M    P1
_symmetry_Int_Tables_number       1
_space_group_crystal_system       triclinic
_cell_length_a                    16.764707
_cell_length_b                    16.703781
_cell_length_c                    16.763431
_cell_angle_alpha                 67.905573
_cell_angle_beta                  67.697012
_cell_angle_gamma                 67.74087
_cell_volume                      3868.63877487

loop_
_atom_site_label
_atom_site_type_symbol
_atom_type_description
_atom_site_fract_x
_atom_site_fract_y
_atom_site_fract_z
_atom_type_partial_charge
C1    C     C_R   0.029887 0.827892 0.564073 0.577612
C2    C     C_R   0.029956 0.564061 0.827848 0.601335
C3    C     C_R   0.171822 0.973348 0.434809 0.602447
C4    C     C_R   0.827867 0.030218 0.564003 0.567506
C5    C     C_R   0.448460 0.074486 0.706911 0.398239
C6    C     C_R   0.488717 0.076536 0.255209 0.383704
C7    C     C_R   0.102220 0.700776 0.445775 0.394238
C8    C     C_R   0.080188 0.246133 0.499051 0.379295
C9    C     C_R   0.744768 0.510749 0.924521 0.381091
C10   C     C_R   0.292889 0.551614 0.927759 0.424906
C11   C     C_R   0.298493 0.948771 0.540301 0.427530
C12   C     C_R   0.990700 0.166990 0.429516 0.576702
C13   C     C_R   0.699791 0.092623 0.447274 0.391015
C14   C     C_R   0.552835 0.300038 0.906862 0.407807
C15   C     C_R   0.459289 0.700336 0.054744 0.396217
C16   C     C_R   0.078678 0.500936 0.246741 0.379502
C17   C     C_R   0.100481 0.444899 0.701109 0.408606
C18   C     C_R   0.533083 0.056513 0.534281 0.013685
C19   C     C_R   0.439954 0.028395 0.442116 0.014743
C20   C     C_R   0.085202 0.525871 0.526135 0.013367
C21   C     C_R   0.071589 0.428204 0.427932 0.013747
C22   C     C_R   0.557615 0.558964 0.974072 0.014367
C23   C     C_R   0.832157 0.570262 0.012198 0.578144
C24   C     C_R   0.465566 0.466472 0.944891 0.015103
C25   C     C_R   0.566975 0.069324 0.440706 -0.026282
C26   C     C_R   0.407529 0.015087 0.535656 -0.028377
C27   C     C_R   0.089889 0.433418 0.564534 -0.025237
C28   C     C_R   0.083552 0.515291 0.384388 -0.024940
C29   C     C_R   0.463919 0.591270 0.988158 -0.029808
C30   C     C_R   0.559238 0.432468 0.931684 -0.023755
C31   C     C_R   0.515831 0.062331 0.393436 -0.024950
C32   C     C_R   0.448409 0.039815 0.579146 -0.030426
C33   C     C_R   0.420481 0.550850 0.962892 -0.028348
C34   C     C_R   0.171863 0.435518 0.971118 0.592660
C35   C     C_R   0.606454 0.483408 0.939183 -0.024418
C36   C     C_R   0.083839 0.384051 0.514621 -0.024067
C37   C     C_R   0.090319 0.564661 0.433865 -0.026375
C38   C     C_R   0.404367 0.055487 0.663672 -0.095228
C39   C     C_R   0.535733 0.090364 0.299515 -0.090415
C40   C     C_R   0.104421 0.650728 0.394397 -0.087057
C41   C     C_R   0.093751 0.290962 0.545892 -0.088906
C42   C     C_R   0.700462 0.463710 0.910596 -0.090879
C43   C     C_R   0.335894 0.595229 0.947774 -0.074233
C44   C     C_R   0.338810 0.972303 0.583919 -0.076204
C45   C     C_R   0.564465 0.028802 0.828236 0.574010
C46   C     C_R   0.649322 0.091214 0.398131 -0.092157
C47   C     C_R   0.601986 0.350275 0.908846 -0.081237
C48   C     C_R   0.415535 0.659684 0.031753 -0.093967
C49   C     C_R   0.092259 0.547607 0.291799 -0.091826
C50   C     C_R   0.102711 0.393657 0.650832 -0.076786
C51   C     C_R   0.542633 0.060885 0.675027 0.016663
C52   C     C_R   0.424895 0.026685 0.302799 0.013770
C53   C     C_R   0.076159 0.671090 0.540319 0.016803
C54   C     C_R   0.044942 0.294144 0.424372 0.017154
C55   C     C_R   0.697064 0.574437 0.974816 0.015351
C56   C     C_R   0.429717 0.988050 0.167770 0.587788
C57   C     C_R   0.324894 0.457369 0.940063 0.024427
C58   C     C_R   0.319675 0.974911 0.445818 0.035346
C59   C     C_R   0.672165 0.067482 0.542129 0.020580
C60   C     C_R   0.457927 0.327783 0.932341 0.032035
C61   C     C_R   0.553829 0.679338 0.027758 0.018134
C62   C     C_R   0.044420 0.425244 0.294145 0.017639
C63   C     C_R   0.075493 0.539793 0.671432 0.028164
C64   C     C_R   0.597223 0.048498 0.728885 -0.003733
C65   C     C_R   0.387469 0.995705 0.260312 -0.014083
C66   C     C_R   0.052051 0.727733 0.596712 -0.002499
C67   C     C_R   0.436122 0.172090 0.969671 0.605689
C68   C     C_R   0.009321 0.255988 0.386041 -0.015441
C69   C     C_R   0.739547 0.612261 0.005317 -0.009697
C70   C     C_R   0.271171 0.402755 0.951628 0.000805
C71   C     C_R   0.269033 0.967977 0.397773 0.007343
C72   C     C_R   0.727867 0.050789 0.596933 -0.009011
C73   C     C_R   0.403171 0.272063 0.948922 0.007183
C74   C     C_R   0.601861 0.730561 0.033736 -0.002795
C75   C     C_R   0.009267 0.386325 0.255905 -0.015801
C76   C     C_R   0.051878 0.596472 0.727865 0.006299
C77   C     C_R   0.688572 0.042932 0.688755 -0.168484
C78   C     C_R   0.564926 0.828137 0.027203 0.567388
C79   C     C_R   0.307772 0.971210 0.307407 -0.166623
C80   C     C_R   0.040334 0.688969 0.688988 -0.159322
C81   C     C_R   0.990466 0.303967 0.303953 -0.177669
C82   C     C_R   0.692334 0.692100 0.030036 -0.182319
C83   C     C_R   0.311353 0.311294 0.956715 -0.153956
C84   C     C_R   0.583106 0.060992 0.583987 -0.066645
C85   C     C_R   0.395099 0.009536 0.396953 -0.067043
C86   C     C_R   0.077878 0.579238 0.579647 -0.065759
C87   C     C_R   0.051374 0.383378 0.382968 -0.061989
C88   C     C_R   0.602785 0.603864 0.992822 -0.069668
C89   C     C_R   0.990880 0.429447 0.166945 0.565817
C90   C     C_R   0.415958 0.416767 0.939657 -0.065901
Cu1   Cu    Cu3+1 0.995180 0.995180 0.424630 1.113420
Cu2   Cu    Cu3+1 0.004820 0.004820 0.575370 1.129583
Cu3   Cu    Cu3+1 0.995180 0.424630 0.995180 1.125405
Cu4   Cu    Cu3+1 0.004820 0.575370 0.004820 1.127835
Cu5   Cu    Cu3+1 0.424630 0.995180 0.995180 1.118845
Cu6   Cu    Cu3+1 0.575370 0.004820 0.004820 1.104075
F1    F     F_    0.396419 0.116679 0.772095 -0.599140
F2    F     F_    0.408386 0.753310 0.110922 -0.604035
F3    F     F_    0.111801 0.524057 0.156414 -0.621775
F4    F     F_    0.132893 0.399478 0.773508 -0.605056
F5    F     F_    0.499892 0.120765 0.167008 -0.624933
F6    F     F_    0.135425 0.773025 0.401048 -0.604475
F7    F     F_    0.114174 0.155600 0.520820 -0.626321
F8    F     F_    0.833017 0.499874 0.879910 -0.627306
F9    F     F_    0.228064 0.604297 0.885742 -0.598156
F10   F     F_    0.246256 0.892193 0.591409 -0.600004
F11   F     F_    0.769733 0.128838 0.400181 -0.614868
F12   F     F_    0.599872 0.230170 0.870030 -0.615192
H1    H     H_    0.333483 0.060809 0.693290 0.142716
H2    H     H_    0.342956 0.678751 0.053204 0.144437
H3    H     H_    0.113928 0.607025 0.250865 0.137622
H4    H     H_    0.116888 0.322204 0.681085 0.141960
H5    H     H_    0.730737 0.028840 0.730603 0.168230
H6    H     H_    0.273835 0.957254 0.272560 0.183345
H7    H     H_    0.019329 0.732249 0.732021 0.167016
H8    H     H_    0.962101 0.275714 0.275958 0.172553
H9    H     H_    0.727226 0.726480 0.043469 0.159849
H10   H     H_    0.269532 0.269017 0.970469 0.174975
H11   H     H_    0.584428 0.127659 0.258663 0.139009
H12   H     H_    0.119796 0.680829 0.323130 0.142618
H13   H     H_    0.116600 0.249568 0.604359 0.137426
H14   H     H_    0.741369 0.415284 0.872719 0.138522
H15   H     H_    0.306160 0.666115 0.943519 0.140619
H16   H     H_    0.319584 0.951346 0.656405 0.139225
H17   H     H_    0.677128 0.106904 0.326375 0.136456
H18   H     H_    0.673798 0.322344 0.893014 0.136368
O1    O     O_R   0.124540 0.978640 0.385460 -0.506240
O2    O     O_R   0.124540 0.385460 0.978640 -0.507978
O3    O     O_R   0.021360 0.875460 0.614540 -0.508583
O4    O     O_R   0.978640 0.124540 0.385460 -0.497952
O5    O     O_R   0.013780 0.867370 0.487190 -0.454316
O6    O     O_R   0.986220 0.132630 0.512810 -0.448756
O7    O     O_R   0.867370 0.487190 0.013780 -0.451267
O8    O     O_R   0.132630 0.512810 0.986220 -0.392654
O9    O     O_R   0.487190 0.013780 0.867370 -0.453454
O10   O     O_R   0.512810 0.986220 0.132630 -0.456995
O11   O     O_R   0.512810 0.132630 0.986220 -0.395372
O12   O     O_R   0.875460 0.021360 0.614540 -0.533872
O13   O     O_R   0.487190 0.867370 0.013780 -0.447668
O14   O     O_R   0.986220 0.512810 0.132630 -0.447782
O15   O     O_R   0.013780 0.487190 0.867370 -0.396533
O16   O     O_R   0.132630 0.986220 0.512810 -0.393340
O17   O     O_R   0.867370 0.013780 0.487190 -0.446314
O18   O     O_R   0.978640 0.385460 0.124540 -0.533210
O19   O     O_R   0.021360 0.614540 0.875460 -0.510189
O20   O     O_R   0.385460 0.124540 0.978640 -0.508250
O21   O     O_R   0.614540 0.875460 0.021360 -0.539790
O22   O     O_R   0.614540 0.021360 0.875460 -0.503269
O23   O     O_R   0.385460 0.978640 0.124540 -0.505247
O24   O     O_R   0.875460 0.614540 0.021360 -0.539455

loop_
_geom_bond_atom_site_label_1
_geom_bond_atom_site_label_2
_ccdc_geom_bond_type
C25   C31   A    
C48   H2    S    
C21   C87   A    
C26   C32   A    
Cu3   Cu4   S    
C65   C79   A    
C22   C29   A    
C45   O22   A    
Cu4   O14   S    
C64   C77   A    
C23   C69   S    
C46   H17   S    
Cu5   Cu6   S    
C3    O16   A    
C13   F11   S    
Cu3   O15   S    
Cu2   O12   S    
C78   O13   A    
C4    O17   A    
C71   C79   A    
C26   C44   A    
C66   C80   A    
Cu6   O10   S    
Cu1   O4    S    
C2    O19   A    
C22   C35   A    
C12   C68   S    
C9    C42   A    
Cu1   O1    S    
C30   C35   A    
C68   C81   A    
C83   H10   S    
C52   C85   A    
Cu2   O6    S    
C37   C40   A    
C1    O3    A    
C54   C87   A    
C3    O1    A    
C58   C71   A    
Cu1   O5    S    
C63   C76   A    
C34   O8    A    
C56   C65   S    
C29   C33   A    
C60   C73   A    
C6    F5    S    
C41   H13   S    
C55   C88   A    
C35   C42   A    
C19   C26   A    
C69   C82   A    
C14   C47   A    
C7    F6    S    
C20   C86   A    
C18   C84   A    
C7    C40   A    
C53   C86   A    
C67   C73   S    
C22   C88   A    
C57   C70   A    
C11   C58   A    
Cu2   O16   S    
C34   C70   S    
C27   C50   A    
C59   C72   A    
C49   H3    S    
Cu4   O19   S    
C14   F12   S    
C8    F7    S    
C19   C31   A    
C5    C38   A    
C36   C41   A    
C18   C25   A    
C16   C62   A    
C15   C48   A    
C74   C82   A    
C77   H5    S    
C50   H4    S    
C56   O10   A    
C24   C33   A    
Cu1   O17   S    
Cu6   O22   S    
C45   O9    A    
C57   C90   A    
C23   O7    A    
C29   C48   A    
C33   C43   A    
C30   C47   A    
C10   C57   A    
C16   C49   A    
C8    C54   A    
Cu1   Cu2   S    
C21   C36   A    
C75   C81   A    
C1    O5    A    
C44   H16   S    
C3    C71   S    
C72   C77   A    
C70   C83   A    
C61   C88   A    
C28   C49   A    
C80   H7    S    
C89   O14   A    
C11   F10   S    
Cu5   O9    S    
C1    C66   S    
C15   C61   A    
C11   C44   A    
Cu5   O13   S    
C8    C41   A    
C38   H1    S    
C53   C66   A    
C55   C69   A    
Cu3   O18   S    
C12   O4    A    
C78   O21   A    
C9    C55   A    
C40   H12   S    
C21   C28   A    
C5    F1    S    
C32   C38   A    
C63   C86   A    
C61   C74   A    
C62   C75   A    
C18   C32   A    
C7    C53   A    
C15   F2    S    
C58   C85   A    
C43   H15   S    
C4    C72   S    
C2    C76   S    
C42   H14   S    
C47   H18   S    
Cu6   O21   S    
C12   O6    A    
C10   C43   A    
C23   O24   A    
Cu6   O11   S    
C51   C64   A    
C76   C80   A    
C19   C85   A    
C24   C90   A    
C17   C50   A    
C67   O20   A    
C16   F3    S    
Cu5   O23   S    
C13   C59   A    
C20   C27   A    
C60   C90   A    
C27   C36   A    
Cu4   O24   S    
C89   O18   A    
C14   C60   A    
C62   C87   A    
C45   C64   S    
Cu3   O7    S    
C59   C84   A    
Cu2   O3    S    
Cu3   O2    S    
C17   C63   A    
C20   C37   A    
C13   C46   A    
C28   C37   A    
C9    F8    S    
C39   H11   S    
C51   C84   A    
C81   H8    S    
Cu4   O8    S    
C31   C39   A    
C67   O11   A    
C17   F4    S    
C24   C30   A    
C75   C89   S    
C4    O12   A    
C54   C68   A    
C34   O2    A    
C74   C78   S    
C79   H6    S    
C2    O15   A    
Cu5   O20   S    
C6    C39   A    
C5    C51   A    
C10   F9    S    
C82   H9    S    
C6    C52   A    
C56   O23   A    
C25   C46   A    
C73   C83   A    
C52   C65   A    
