data_mof_unit_35525.cif
_audit_creation_date              2012-12-11T14:29:25-0500
_audit_creation_method            fapswitch 2.2
_symmetry_space_group_name_H-M    P1
_symmetry_Int_Tables_number       1
_space_group_crystal_system       triclinic
_cell_length_a                    6.935327
_cell_length_b                    14.737078
_cell_length_c                    16.334705
_cell_angle_alpha                 90.348185
_cell_angle_beta                  90.216603
_cell_angle_gamma                 89.782477
_cell_volume                      1669.45764705

loop_
_atom_site_label
_atom_site_type_symbol
_atom_type_description
_atom_site_fract_x
_atom_site_fract_y
_atom_site_fract_z
_atom_type_partial_charge
O1    O     O_R   0.494400 0.416610 0.413880 -0.539840
O2    O     O_R   0.823920 0.406790 0.585520 -0.550335
O3    O     O_R   0.994250 0.583390 0.586120 -0.541112
C1    C     C_R   0.656318 0.386385 0.614569 0.728500
O4    O     O_R   0.824110 0.405730 0.414490 -0.548237
O5    O     O_R   0.994440 0.582310 0.413870 -0.543573
C2    C     C_R   0.654184 0.381354 0.388789 0.688784
O6    O     O_R   0.494210 0.417690 0.586130 -0.538582
O7    O     O_3   0.660810 0.557940 0.500000 -0.369100
V1    V     V_3+5 0.935650 0.489250 0.500000 1.426837
O8    O     O_R   0.324160 0.593210 0.414480 -0.538157
C3    C     C_R   0.155983 0.611156 0.383624 0.713086
O9    O     O_R   0.323970 0.594270 0.585510 -0.528912
C4    C     C_R   0.154405 0.618219 0.612242 0.786765
V2    V     V_3+5 0.435660 0.510750 0.500000 1.446475
O10   O     O_3   0.160630 0.442060 0.500000 -0.377099
C5    C     C_R   0.086148 0.563413 0.775469 -0.294311
C6    C     C_R   0.076102 0.529629 0.854339 0.436820
C7    C     C_R   0.113889 0.586171 0.920754 0.167140
C8    C     C_R   0.151289 0.678993 0.907959 0.216342
C9    C     C_R   0.131354 0.717912 0.828018 -0.020466
C10   C     C_R   0.117909 0.656777 0.760462 -0.039638
C11   C     C_R   0.124387 0.813789 0.813337 -0.105490
C12   C     C_R   0.131150 0.847139 0.730449 -0.112177
C13   C     C_R   0.152341 0.783521 0.663584 0.005482
C14   C     C_R   0.141860 0.687935 0.679285 -0.072988
C15   C     C_R   0.120092 0.942329 0.711007 0.278239
C16   C     C_R   0.146858 0.972859 0.630877 0.205578
C17   C     C_R   0.178613 0.911696 0.567398 0.092654
C18   C     C_R   0.177536 0.817863 0.582315 0.107917
H1    H     H_    0.067390 0.514888 0.726225 0.145662
C19   C     C_2   0.992906 0.715244 0.286284 -0.126145
C20   C     C_2   0.153851 0.669922 0.309896 0.034328
H2    H     H_    0.860936 0.706073 0.320810 0.100553
C21   C     C_2   0.977803 0.775055 0.212967 -0.090129
C22   C     C_2   0.124792 0.825179 0.184416 -0.198790
H3    H     H_    0.836683 0.781079 0.184433 0.137835
H4    H     H_    0.262817 0.824995 0.215632 0.159939
C23   C     C_2   0.769925 0.219307 0.791843 0.045581
C24   C     C_2   0.611581 0.170497 0.809835 -0.025434
H5    H     H_    0.895837 0.213678 0.831294 0.175694
C25   C     C_2   0.793676 0.275178 0.717083 0.269508
C26   C     C_2   0.646167 0.326112 0.686584 -0.313413
H6    H     H_    0.508952 0.326875 0.718215 0.172965
C27   C     C_2   0.765101 0.202459 0.222930 0.337261
C28   C     C_2   0.620049 0.191797 0.167298 0.202166
C29   C     C_2   0.776436 0.282301 0.278439 -0.060411
C30   C     C_2   0.636076 0.303261 0.332061 0.027843
H7    H     H_    0.909447 0.321013 0.278621 0.128437
O11   O     O_R   0.770210 0.079270 0.910680 -0.527071
O12   O     O_R   0.440150 0.091160 0.082270 -0.516953
O13   O     O_R   0.269970 0.914530 0.082860 -0.528743
C31   C     C_R   0.609566 0.114229 0.109506 0.718364
O14   O     O_R   0.440480 0.090100 0.911240 -0.530352
O15   O     O_R   0.270310 0.913460 0.910610 -0.515313
C32   C     C_R   0.608270 0.110630 0.882383 0.738158
O16   O     O_R   0.769870 0.080340 0.082930 -0.533399
O17   O     O_3   0.603660 0.938980 0.996790 -0.374122
V3    V     V_3+5 0.328750 0.007610 0.996740 1.658689
O18   O     O_R   0.940600 0.902510 0.911180 -0.533220
C33   C     C_R   0.110486 0.878483 0.884164 0.879062
O19   O     O_R   0.940270 0.903570 0.082200 -0.548457
C34   C     C_R   0.109057 0.885646 0.112881 0.818529
V4    V     V_3+5 0.828770 0.986010 0.996670 1.602589
O20   O     O_3   0.103730 0.054750 0.996710 -0.348024
N1    N     N_3   0.207460 0.946635 0.486428 -0.661233
H8    H     H_    0.341618 0.924870 0.464833 0.239273
H9    H     H_    0.099110 0.922229 0.447609 0.247747
N2    N     N_3   0.324988 0.672726 0.260723 -0.637088
H10   H     H_    0.437651 0.698080 0.296794 0.219834
H11   H     H_    0.360328 0.606282 0.243517 0.248239
N3    N     N_3   0.449795 0.169271 0.754885 -0.644549
H12   H     H_    0.430707 0.102412 0.734964 0.273731
H13   H     H_    0.327202 0.189534 0.787341 0.299907
N4    N     N_3   0.982951 0.275332 0.681675 -0.605337
H14   H     H_    0.041775 0.340314 0.686685 0.255896
H15   H     H_    0.973242 0.255984 0.620125 0.240899
Cl1   Cl    Cl    0.952956 0.122244 0.234585 -0.647463
Cl2   Cl    Cl    0.444385 0.277791 0.152618 -0.591599
N5    N     N_3   0.468795 0.246307 0.337964 -0.589426
H16   H     H_    0.462109 0.221707 0.397782 0.224394
H17   H     H_    0.346034 0.286206 0.328049 0.280383
Cl3   Cl    Cl    0.032602 0.413271 0.868595 -0.630187
N6    N     N_3   0.119398 0.547628 0.001212 -0.546522
H18   H     H_    0.259131 0.553637 0.024785 0.289062
H19   H     H_    0.024943 0.584256 0.038788 0.262255
Cl4   Cl    Cl    0.262875 0.735822 0.990381 -0.705076
Cl5   Cl    Cl    0.061998 0.030328 0.780791 -0.683752
N7    N     N_3   0.138891 0.068365 0.613843 -0.581291
H20   H     H_    0.269594 0.087741 0.587585 0.252272
H21   H     H_    0.028381 0.080052 0.571423 0.253745
N8    N     N_3   0.200245 0.758132 0.513621 -0.668908
H22   H     H_    0.087903 0.769874 0.472174 0.211979
H23   H     H_    0.332322 0.770794 0.485376 0.229028

loop_
_geom_bond_atom_site_label_1
_geom_bond_atom_site_label_2
_ccdc_geom_bond_type
N1    H9    S    
O15   V3    S    
O11   V4    S    
C21   C22   D    
C12   C15   A    
C1    O6    A    
C29   H7    S    
C27   C28   D    
C25   N4    S    
C17   C18   A    
C16   C17   A    
C21   H3    S    
N6    H19   S    
O5    C3    A    
C28   Cl2   S    
V2    O10   S    
C8    Cl4   S    
C6    C7    A    
N2    H11   S    
O19   V4    S    
O8    V2    S    
N6    H18   S    
C7    C8    A    
C24   C32   S    
C11   C12   A    
C27   Cl1   S    
O1    V2    S    
N7    H21   S    
C22   C34   S    
O7    V1    S    
C20   N2    S    
N1    H8    S    
O9    C4    A    
C15   Cl5   S    
C6    Cl3   S    
C23   C25   S    
O14   V3    S    
C27   C29   S    
O17   V4    S    
O14   C32   A    
C19   C21   S    
C12   C13   A    
C18   N8    S    
N7    H20   S    
C23   C24   D    
O4    C2    A    
C31   O16   A    
N3    H12   S    
O17   V3    S    
O11   C32   A    
C19   C20   D    
O18   C33   A    
O12   C31   A    
C19   H2    S    
O2    C1    A    
N4    H14   S    
O19   C34   A    
O13   V3    S    
C29   C30   D    
N8    H23   S    
C5    C6    A    
C4    C14   S    
N4    H15   S    
C16   N7    S    
O3    C4    A    
N3    H13   S    
O6    V2    S    
O9    V2    S    
C26   H6    S    
C5    H1    S    
O12   V3    S    
C25   C26   D    
C7    N6    S    
O2    V1    S    
O16   V4    S    
C13   C18   A    
C24   N3    S    
O1    C2    A    
N5    H16   S    
O13   C34   A    
O5    V1    S    
O8    C3    A    
C1    C26   S    
C5    C10   A    
O18   V4    S    
C2    C30   S    
C30   N5    S    
C9    C11   A    
C13   C14   A    
O4    V1    S    
O3    V1    S    
V1    O10   S    
V4    O20   S    
O15   C33   A    
C28   C31   S    
C22   H4    S    
N8    H22   S    
N5    H17   S    
O7    V2    S    
N2    H10   S    
C17   N1    S    
C11   C33   S    
C8    C9    A    
C23   H5    S    
C10   C14   A    
C15   C16   A    
C3    C20   S    
C9    C10   A    
V3    O20   S    
