data_mof_unit_13263.cif
_audit_creation_date              2012-12-10T17:55:05-0500
_audit_creation_method            fapswitch 2.2
_symmetry_space_group_name_H-M    P1
_symmetry_Int_Tables_number       1
_space_group_crystal_system       triclinic
_cell_length_a                    8.729404
_cell_length_b                    10.827212
_cell_length_c                    9.58501
_cell_angle_alpha                 90.473502
_cell_angle_beta                  98.520522
_cell_angle_gamma                 91.071807
_cell_volume                      895.716849413

loop_
_atom_site_label
_atom_site_type_symbol
_atom_type_description
_atom_site_fract_x
_atom_site_fract_y
_atom_site_fract_z
_atom_type_partial_charge
C1    C     C_R   0.499834 0.262272 0.499614 0.807525
C2    C     C_R   0.500167 0.737728 0.500386 0.807541
C3    C     C_R   0.203774 0.499856 0.463479 0.888848
C4    C     C_R   0.796226 0.500144 0.536521 0.888866
C5    C     C_2   0.037397 0.499812 0.443795 -0.353298
C6    C     C_2   0.962603 0.500188 0.556205 -0.353282
C7    C     C_R   0.508682 0.063000 0.374438 -0.137299
C8    C     C_R   0.491320 0.937000 0.625562 -0.137310
C9    C     C_R   0.508892 0.935236 0.374878 -0.191438
C10   C     C_R   0.491109 0.064764 0.625122 -0.191436
C11   C     C_R   0.500219 0.871690 0.500457 -0.022293
C12   C     C_R   0.499783 0.128310 0.499543 -0.022293
C13   C     C_R   0.382889 0.441830 0.055301 0.109999
C14   C     C_R   0.617112 0.558169 0.944701 0.110007
C15   C     C_R   0.383486 0.443310 0.907696 -0.116436
C16   C     C_R   0.616514 0.556689 0.092305 -0.116457
Cu1   Cu    Cu3+1 0.500000 0.500020 0.640660 0.979989
Cu2   Cu    Cu3+1 0.500000 0.499980 0.359340 0.979977
H1    H     H_    0.976317 0.499474 0.336354 0.165064
H2    H     H_    0.023682 0.500526 0.663646 0.165069
H3    H     H_    0.515914 0.110305 0.276424 0.178706
H4    H     H_    0.484089 0.889695 0.723576 0.178691
H5    H     H_    0.516162 0.886537 0.276975 0.160614
H6    H     H_    0.483840 0.113463 0.723025 0.160617
H7    H     H_    0.291183 0.396971 0.837480 0.127985
H8    H     H_    0.708817 0.603027 0.162522 0.127984
N1    N     N_R   0.500040 0.500030 0.852080 -0.173229
N2    N     N_R   0.499960 0.499970 0.147920 -0.173238
O1    O     O_R   0.499990 0.319660 0.618740 -0.600662
O2    O     O_R   0.500010 0.680340 0.381260 -0.600663
O3    O     O_R   0.499990 0.319630 0.381170 -0.535896
O4    O     O_R   0.500010 0.680370 0.618830 -0.535884
O5    O     O_R   0.274840 0.500010 0.591370 -0.590096
O6    O     O_R   0.725160 0.499990 0.408630 -0.590101
O7    O     O_R   0.274830 0.499980 0.353800 -0.576462
O8    O     O_R   0.725170 0.500020 0.646200 -0.576420
C17   C     C_2   0.250522 0.376416 0.101966 0.402470
H9    H     H_    0.133572 0.401275 0.057735 0.009985
O9    O     O_2   0.269363 0.288410 0.180574 -0.534087
C18   C     C_2   0.749488 0.623580 0.898045 0.402427
H10   H     H_    0.866435 0.598759 0.942337 0.009971
O10   O     O_2   0.730657 0.711548 0.819379 -0.534053

loop_
_geom_bond_atom_site_label_1
_geom_bond_atom_site_label_2
_ccdc_geom_bond_type
C16   N2    A    
C8    H4    S    
C4    O8    A    
C13   N2    A    
C17   H9    S    
C5    H1    S    
Cu1   O8    S    
C14   N1    A    
C6    H2    S    
Cu2   O7    S    
C15   N1    A    
C13   C15   A    
C3    O7    A    
C2    O2    A    
C1    O1    A    
Cu1   Cu2   S    
Cu2   N2    S    
C17   O9    D    
C9    C11   A    
C7    C12   A    
C1    C12   S    
Cu1   O5    S    
C8    C11   A    
Cu2   O2    S    
C2    C11   S    
C10   C12   A    
C18   O10   D    
C18   H10   S    
C14   C16   A    
Cu2   O6    S    
C16   H8    S    
C5    C6    D    
C4    O6    A    
C15   H7    S    
C4    C6    S    
C3    O5    A    
C14   C18   S    
Cu1   N1    S    
C1    O3    A    
Cu1   O1    S    
C2    O4    A    
C7    C9    A    
Cu1   O4    S    
C9    H5    S    
Cu2   O3    S    
C10   H6    S    
C7    H3    S    
C13   C17   S    
C8    C10   A    
C3    C5    S    
