data_mof_unit_47412.cif
_audit_creation_date              2012-12-10T18:22:28-0500
_audit_creation_method            fapswitch 2.2
_symmetry_space_group_name_H-M    P1
_symmetry_Int_Tables_number       1
_space_group_crystal_system       triclinic
_cell_length_a                    23.478937
_cell_length_b                    10.595129
_cell_length_c                    9.430955
_cell_angle_alpha                 90.255496
_cell_angle_beta                  89.851042
_cell_angle_gamma                 89.937845
_cell_volume                      2346.03401809

loop_
_atom_site_label
_atom_site_type_symbol
_atom_type_description
_atom_site_fract_x
_atom_site_fract_y
_atom_site_fract_z
_atom_type_partial_charge
C1    C     C_R   0.500146 0.259736 0.499496 0.899432
C2    C     C_R   0.499868 0.740237 0.500497 0.902327
C3    C     C_R   0.238426 0.563064 0.408029 -0.172494
C4    C     C_R   0.761907 0.497789 0.374096 -0.174855
C5    C     C_R   0.297639 0.569608 0.409681 -0.225219
C6    C     C_R   0.702546 0.500856 0.372588 -0.230451
C7    C     C_R   0.328858 0.492767 0.501146 -0.081023
C8    C     C_R   0.671644 0.494011 0.500084 -0.074903
C9    C     C_R   0.300352 0.409732 0.592397 -0.273877
C10   C     C_R   0.701085 0.481888 0.628705 -0.300779
C11   C     C_R   0.240762 0.404596 0.595060 0.481278
C12   C     C_R   0.760562 0.477899 0.630670 0.460298
C13   C     C_R   0.209495 0.481157 0.499699 0.233275
C14   C     C_R   0.791042 0.487655 0.502853 0.271620
C15   C     C_3   0.546729 0.040997 0.564930 0.437991
C16   C     C_3   0.453319 0.958881 0.434971 0.433817
C17   C     C_3   0.545930 0.958001 0.431518 0.438046
C18   C     C_3   0.454104 0.041868 0.568406 0.437100
C19   C     C_3   0.499860 0.876718 0.502121 -0.225684
C20   C     C_3   0.500183 0.123207 0.497825 -0.225560
C21   C     C_3   0.500661 0.959962 0.638281 -0.427262
C22   C     C_3   0.499376 0.039932 0.361643 -0.427228
C23   C     C_R   0.391170 0.498195 0.500323 0.827426
C24   C     C_R   0.609000 0.498589 0.499809 0.834332
C25   C     C_3   0.506089 0.614056 0.051141 -0.184148
C26   C     C_3   0.493974 0.386120 0.948915 -0.170684
C27   C     C_3   0.458868 0.569765 0.949153 -0.207671
C28   C     C_3   0.541490 0.430875 0.050591 -0.217847
C29   C     C_3   0.546611 0.544170 0.951218 0.609929
C30   C     C_3   0.453405 0.456401 0.048529 0.623304
C31   C     C_R   0.880662 0.587682 0.556429 0.645421
C32   C     C_R   0.119882 0.374209 0.457751 0.603037
C33   C     C_R   0.879878 0.378852 0.460788 0.551075
C34   C     C_R   0.120104 0.584104 0.550603 0.537472
C35   C     C_R   0.939498 0.369169 0.474568 -0.150639
C36   C     C_R   0.060660 0.581518 0.569546 -0.152320
C37   C     C_R   0.970034 0.475586 0.523668 -0.149771
C38   C     C_R   0.030246 0.474434 0.522007 -0.150863
C39   C     C_R   0.940418 0.584772 0.570000 -0.169096
C40   C     C_R   0.059963 0.367828 0.468878 -0.169632
C41   C     C_R   0.969400 0.256869 0.439890 0.411021
C42   C     C_R   0.030865 0.682836 0.634473 0.420029
C43   C     C_R   0.029180 0.257532 0.431887 0.397024
C44   C     C_R   0.971179 0.686662 0.630155 0.404419
Cu1   Cu    Cu3+1 0.500010 0.499990 0.643150 0.991755
Cu2   Cu    Cu3+1 0.499990 0.500010 0.356850 0.990995
H1    H     H_    0.425936 0.630654 0.900671 0.143300
H2    H     H_    0.576214 0.373871 0.098031 0.128650
H3    H     H_    0.512081 0.709353 0.098140 0.161167
H4    H     H_    0.487704 0.290911 0.901943 0.160526
H5    H     H_    0.214778 0.622655 0.336038 0.164695
H6    H     H_    0.785376 0.504036 0.275432 0.149394
H7    H     H_    0.319148 0.635690 0.340663 0.169480
H8    H     H_    0.680934 0.509063 0.271922 0.155691
H9    H     H_    0.324433 0.348737 0.662101 0.177817
H10   H     H_    0.678187 0.475316 0.728074 0.193555
H11   H     H_    0.501128 0.924042 0.748665 0.175719
H12   H     H_    0.498860 0.075818 0.251250 0.175816
N1    N     N_R   0.852097 0.485383 0.504557 -0.459174
N2    N     N_R   0.148287 0.480383 0.499868 -0.470076
N3    N     N_3   0.500040 0.499970 0.858290 -0.192887
N4    N     N_3   0.499960 0.500030 0.141710 -0.194620
O1    O     O_R   0.500030 0.316850 0.620870 -0.559558
O2    O     O_R   0.499970 0.683150 0.379130 -0.559821
O3    O     O_R   0.500000 0.316860 0.379090 -0.584536
O4    O     O_R   0.500000 0.683140 0.620910 -0.584086
O5    O     O_R   0.417890 0.499960 0.620920 -0.603523
O6    O     O_R   0.582110 0.500040 0.379080 -0.603261
O7    O     O_R   0.417870 0.499970 0.379140 -0.529998
O8    O     O_R   0.582130 0.500030 0.620860 -0.535354
O9    O     O_2   0.850942 0.692036 0.592661 -0.500071
O10   O     O_2   0.149932 0.275607 0.406184 -0.500702
O11   O     O_2   0.849677 0.283889 0.402069 -0.522941
O12   O     O_2   0.149863 0.689475 0.581849 -0.513524
O13   O     O_3   0.941024 0.145963 0.407733 -0.531336
C45   C     C_3   0.924160 0.087643 0.535795 -0.180233
H13   H     H_    0.889941 0.141685 0.590459 0.155252
H14   H     H_    0.960319 0.075096 0.610367 0.130060
H15   H     H_    0.906933 0.992801 0.510467 0.234626
O14   O     O_3   0.059210 0.781479 0.700125 -0.537553
C46   C     C_3   0.075971 0.742446 0.837139 -0.251643
H16   H     H_    0.112618 0.676254 0.832155 0.173733
H17   H     H_    0.040725 0.697000 0.897253 0.111714
H18   H     H_    0.089708 0.826749 0.898177 0.189684
O15   O     O_3   0.595614 0.599058 0.890633 -0.598349
C47   C     C_3   0.638741 0.610073 0.993904 -0.017018
H19   H     H_    0.660195 0.517068 0.006232 0.144078
H20   H     H_    0.621683 0.641648 0.098815 0.158835
C48   C     C_3   0.682298 0.707915 0.945029 -0.301426
H21   H     H_    0.697741 0.683975 0.836823 0.247495
H22   H     H_    0.661596 0.802217 0.941009 0.200116
C49   C     C_3   0.733137 0.714025 0.045261 -0.879601
H23   H     H_    0.718878 0.738591 0.154368 0.257993
H24   H     H_    0.763406 0.787360 0.008249 0.256994
H25   H     H_    0.755592 0.621742 0.046881 0.259887
O16   O     O_3   0.403700 0.402999 0.107809 -0.593881
C50   C     C_3   0.357657 0.414882 0.012364 0.029746
H26   H     H_    0.329170 0.332485 0.027716 0.150380
H27   H     H_    0.371239 0.409699 0.898929 0.151444
C51   C     C_3   0.323686 0.535859 0.044948 -0.363055
H28   H     H_    0.289216 0.513323 0.121510 0.220448
H29   H     H_    0.351648 0.608314 0.094101 0.234337
C52   C     C_3   0.297017 0.592371 0.912410 -0.913297
H30   H     H_    0.330285 0.625190 0.837477 0.259636
H31   H     H_    0.269635 0.673819 0.942215 0.257681
H32   H     H_    0.270705 0.520816 0.858587 0.264172
O17   O     O_3   0.056755 0.152406 0.376956 -0.539615
C53   C     C_3   0.071151 0.068724 0.487650 -0.101884
H33   H     H_    0.038833 0.992767 0.494766 0.186893
H34   H     H_    0.076615 0.115171 0.593236 0.117201
H35   H     H_    0.112264 0.022705 0.460701 0.211707
O18   O     O_3   0.943721 0.795341 0.675682 -0.555887
C54   C     C_3   0.927509 0.782958 0.819370 -0.217478
H36   H     H_    0.960750 0.824036 0.888825 0.162908
H37   H     H_    0.918082 0.683968 0.851862 0.139453
H38   H     H_    0.888088 0.838754 0.837041 0.193021
O19   O     O_3   0.215084 0.317143 0.684112 -0.596775
C55   C     C_3   0.176009 0.375186 0.779026 0.033667
H39   H     H_    0.131953 0.354073 0.743702 0.154733
H40   H     H_    0.180641 0.479776 0.786530 0.129983
C56   C     C_3   0.183567 0.319183 0.926717 -0.332144
H41   H     H_    0.173122 0.216898 0.923621 0.235571
H42   H     H_    0.228567 0.329388 0.960513 0.217757
C57   C     C_3   0.145154 0.385107 0.034855 -0.883333
H43   H     H_    0.156425 0.486680 0.043477 0.242469
H44   H     H_    0.150922 0.340909 0.140085 0.302150
H45   H     H_    0.099751 0.376056 0.003578 0.252789
O20   O     O_3   0.789332 0.473436 0.758188 -0.608858
C58   C     C_3   0.790149 0.347559 0.806342 0.019117
H46   H     H_    0.808833 0.283436 0.724315 0.151261
H47   H     H_    0.746229 0.315562 0.833063 0.144475
C59   C     C_3   0.826835 0.340512 0.939664 -0.328530
H48   H     H_    0.870629 0.373615 0.914573 0.220061
H49   H     H_    0.808592 0.403397 0.022825 0.219690
C60   C     C_3   0.829909 0.206115 0.996698 -0.861825
H50   H     H_    0.786648 0.171893 0.024917 0.251074
H51   H     H_    0.856848 0.204469 0.093289 0.298545
H52   H     H_    0.849012 0.141879 0.916132 0.241180
O21   O     O_3   0.593808 0.902219 0.365577 -0.582127
C61   C     C_3   0.623830 0.994766 0.289213 -0.295428
H53   H     H_    0.635695 0.076476 0.357501 0.193127
H54   H     H_    0.598875 0.026934 0.196098 0.152159
H55   H     H_    0.663866 0.952188 0.248459 0.187210
O22   O     O_3   0.406260 0.097534 0.634595 -0.587965
C62   C     C_3   0.375684 0.004371 0.708636 -0.290075
H56   H     H_    0.400379 0.969721 0.801054 0.152390
H57   H     H_    0.363422 0.924276 0.638426 0.194534
H58   H     H_    0.335835 0.047273 0.750119 0.193048
O23   O     O_3   0.595542 0.095238 0.627219 -0.582848
C63   C     C_3   0.625974 0.001469 0.700579 -0.287468
H59   H     H_    0.636637 0.919605 0.631069 0.198069
H60   H     H_    0.601923 0.969670 0.795572 0.156057
H61   H     H_    0.666691 0.042628 0.738096 0.176283
O24   O     O_3   0.404656 0.904301 0.372347 -0.592633
C64   C     C_3   0.373580 0.998324 0.301125 -0.271324
H62   H     H_    0.397428 0.033026 0.207104 0.161038
H63   H     H_    0.362195 0.078286 0.372671 0.202262
H64   H     H_    0.333238 0.956293 0.262360 0.181301

loop_
_geom_bond_atom_site_label_1
_geom_bond_atom_site_label_2
_ccdc_geom_bond_type
C60   H52   S    
C42   O14   S    
C64   H63   S    
C18   C21   S    
C23   O7    A    
C36   C42   A    
C61   H55   S    
C15   O23   S    
O20   C58   S    
C46   H18   S    
C50   H26   S    
C24   O8    A    
C60   H50   S    
C32   O10   S    
C13   N2    S    
O15   C47   S    
C21   H11   S    
C14   N1    S    
C4    H6    S    
C45   H14   S    
C5    H7    S    
C28   C29   S    
C19   C21   S    
C26   N3    S    
C61   H54   S    
C54   H36   S    
C26   H4    S    
C33   C35   A    
C47   H20   S    
C31   N1    A    
C53   H33   S    
C18   C20   S    
C60   H51   S    
C23   O5    A    
C55   H39   S    
C49   H23   S    
C56   C57   S    
C30   O16   S    
C27   N3    S    
C62   H57   S    
C52   H31   S    
C40   C43   A    
C53   H34   S    
C59   H48   S    
Cu2   O7    S    
C63   H61   S    
Cu1   O5    S    
C1    O3    A    
O17   C53   S    
C45   H15   S    
C9    H9    S    
C48   H22   S    
C10   H10   S    
C29   O15   S    
C3    C13   A    
C58   C59   S    
Cu1   N3    S    
C31   O9    S    
C2    C19   S    
C33   N1    A    
C27   C30   S    
C34   N2    A    
C41   C43   A    
C42   C44   A    
C6    H8    S    
C1    O1    A    
C51   H29   S    
O18   C54   S    
C46   H17   S    
C2    O2    A    
C62   H56   S    
C55   H40   S    
C25   C29   S    
C15   C20   S    
C29   N3    S    
C45   H13   S    
Cu2   O3    S    
C4    C6    A    
C50   H27   S    
C5    C7    A    
C3    H5    S    
C47   H19   S    
O22   C62   S    
C6    C8    A    
C3    C5    A    
Cu1   Cu2   S    
Cu1   O1    S    
C49   H25   S    
C46   H16   S    
Cu2   O2    S    
Cu1   O4    S    
C55   C56   S    
O13   C45   S    
Cu2   O6    S    
C37   C38   A    
C41   O13   S    
O16   C50   S    
C49   H24   S    
C56   H41   S    
C17   O21   S    
C16   C18   S    
C43   O17   S    
C61   H53   S    
C48   C49   S    
C9    C11   A    
O24   C64   S    
C10   C12   A    
C34   O12   S    
C57   H45   S    
C44   O18   S    
C33   O11   S    
Cu2   N4    S    
C26   C30   S    
C32   C40   A    
C30   N4    S    
C16   O24   S    
C63   H60   S    
C32   N2    A    
C17   C19   S    
C11   O19   S    
C52   H30   S    
C62   H58   S    
C57   H44   S    
C58   H46   S    
C27   H1    S    
C7    C9    A    
C28   H2    S    
C1    C20   S    
C16   C22   S    
C50   C51   S    
C35   C37   A    
Cu1   O8    S    
C8    C10   A    
C20   C22   S    
O14   C46   S    
C2    O4    A    
C47   C48   S    
C22   H12   S    
O21   C61   S    
C15   C17   S    
C39   C44   A    
C12   O20   S    
C25   C27   S    
C26   C28   S    
C17   C22   S    
C53   H35   S    
C54   H38   S    
C36   C38   A    
C12   C14   A    
C37   C39   A    
O23   C63   S    
C38   C40   A    
C11   C13   A    
C59   C60   S    
C7    C23   S    
C18   O22   S    
C51   H28   S    
C8    C24   S    
C31   C39   A    
C52   H32   S    
C34   C36   A    
C25   N4    S    
C51   C52   S    
C4    C14   A    
C35   C41   A    
C25   H3    S    
C56   H42   S    
C24   O6    A    
C58   H47   S    
C15   C21   S    
C59   H49   S    
C64   H62   S    
C63   H59   S    
C54   H37   S    
C48   H21   S    
O19   C55   S    
C28   N4    S    
C57   H43   S    
C64   H64   S    
C16   C19   S    
