data_mof_unit_66375.cif
_audit_creation_date              2012-12-10T19:53:13-0500
_audit_creation_method            fapswitch 2.2
_symmetry_space_group_name_H-M    P1
_symmetry_Int_Tables_number       1
_space_group_crystal_system       triclinic
_cell_length_a                    18.273443
_cell_length_b                    18.272987
_cell_length_c                    38.798174
_cell_angle_alpha                 89.948669
_cell_angle_beta                  89.973246
_cell_angle_gamma                 89.955796
_cell_volume                      12955.1028085

loop_
_atom_site_label
_atom_site_type_symbol
_atom_type_description
_atom_site_fract_x
_atom_site_fract_y
_atom_site_fract_z
_atom_type_partial_charge
C1    C     C_R   0.499982 0.141152 0.500048 0.929293
C2    C     C_R   0.000502 0.503005 0.215046 0.359062
C3    C     C_3   0.156236 0.438526 0.402835 -0.268066
C4    C     C_3   0.332245 0.948620 0.602716 -0.235759
C5    C     C_3   0.842629 0.440077 0.597135 -0.266987
C6    C     C_3   0.670077 0.055092 0.604680 -0.212087
C7    C     C_3   0.157462 0.559718 0.597009 -0.268926
C8    C     C_3   0.058915 0.657124 0.903180 -0.266691
C9    C     C_3   0.450148 0.827978 0.895037 -0.212114
C10   C     C_3   0.941207 0.342773 0.903381 -0.268538
C11   C     C_3   0.543857 0.169927 0.896803 -0.232760
C12   C     C_3   0.061548 0.343696 0.097894 -0.269870
C13   C     C_R   0.502214 0.997724 0.784678 0.358230
C14   C     C_3   0.342472 0.940523 0.097134 -0.272776
C15   C     C_3   0.934979 0.658499 0.098717 -0.243576
C16   C     C_3   0.657617 0.059276 0.097004 -0.271798
C17   C     C_R   0.000083 0.499851 0.784709 0.381307
C18   C     C_R   0.000087 0.499811 0.715017 0.387400
C19   C     C_R   0.503063 0.000093 0.715125 0.355975
C20   C     C_R   0.000127 0.502720 0.284701 0.356673
C21   C     C_R   0.500085 0.999847 0.284712 0.381526
C22   C     C_R   0.500015 0.999994 0.432752 0.950585
C23   C     C_R   0.999952 0.500070 0.432731 0.951079
C24   C     C_R   0.499975 0.000048 0.567337 1.001942
C25   C     C_R   0.858847 0.500025 0.499948 0.906791
C26   C     C_R   0.000006 0.499970 0.567246 0.950197
C27   C     C_R   0.000015 0.499994 0.932752 0.949070
C28   C     C_R   0.499926 0.000053 0.932640 0.997480
C29   C     C_R   0.999963 0.500006 0.067267 0.951569
C30   C     C_R   0.500006 0.999970 0.067245 0.951580
C31   C     C_1   0.499963 0.217540 0.500030 -0.186526
C32   C     C_1   0.782463 0.500064 0.499956 -0.204616
C33   C     C_1   0.500035 0.782460 0.499974 -0.187605
C34   C     C_1   0.217537 0.499939 0.500019 -0.205333
C35   C     C_1   0.999935 0.717536 0.000064 -0.204911
C36   C     C_R   0.500018 0.858847 0.500033 0.929071
C37   C     C_1   0.282459 0.000037 0.999993 -0.186937
C38   C     C_1   0.000062 0.282463 0.999987 -0.205079
C39   C     C_1   0.717541 0.999964 0.000022 -0.188076
C40   C     C_1   0.499985 0.282271 0.500023 -0.187648
C41   C     C_1   0.717735 0.500050 0.499973 -0.195422
C42   C     C_1   0.500013 0.717729 0.499953 -0.188314
C43   C     C_1   0.282265 0.499952 0.500019 -0.195198
C44   C     C_1   0.999948 0.782265 0.000046 -0.195460
C45   C     C_1   0.217729 0.000015 0.999997 -0.187849
C46   C     C_1   0.000048 0.217735 0.999970 -0.195244
C47   C     C_R   0.141153 0.499977 0.500011 0.902484
C48   C     C_1   0.782271 0.999986 0.000033 -0.188662
C49   C     C_R   0.548003 0.046534 0.376946 0.423343
C50   C     C_R   0.954461 0.549818 0.377190 0.477578
C51   C     C_R   0.452116 0.953323 0.377016 0.422953
C52   C     C_R   0.045812 0.452154 0.376642 0.421227
C53   C     C_R   0.448657 0.958477 0.623636 0.407224
C54   C     C_R   0.953440 0.451900 0.623038 0.421126
C55   C     C_R   0.552189 0.043383 0.622901 0.462736
C56   C     C_R   0.046676 0.547861 0.622988 0.421427
C57   C     C_R   0.048082 0.546454 0.876945 0.421167
C58   C     C_R   0.999975 0.641152 0.000068 0.905912
C59   C     C_R   0.459759 0.946106 0.876869 0.463982
C60   C     C_R   0.952036 0.453405 0.877015 0.421484
C61   C     C_R   0.540413 0.052964 0.876413 0.406642
C62   C     C_R   0.048484 0.454842 0.123355 0.421302
C63   C     C_R   0.453316 0.952024 0.123035 0.423104
C64   C     C_R   0.951011 0.546509 0.122799 0.478547
C65   C     C_R   0.546802 0.047736 0.122986 0.422874
C66   C     C_R   0.549865 0.044485 0.340781 -0.017637
C67   C     C_R   0.955809 0.552363 0.341151 -0.017390
C68   C     C_R   0.450284 0.955300 0.340850 -0.017784
C69   C     C_R   0.358847 0.000018 0.999970 0.928536
C70   C     C_R   0.043780 0.451440 0.340443 0.006954
C71   C     C_R   0.452391 0.955793 0.659819 0.010770
C72   C     C_R   0.955457 0.450137 0.659196 -0.019610
C73   C     C_R   0.550726 0.046374 0.658989 -0.020864
C74   C     C_R   0.044701 0.549549 0.659147 -0.019224
C75   C     C_R   0.049936 0.544408 0.840780 -0.017937
C76   C     C_R   0.458018 0.946909 0.840749 -0.021325
C77   C     C_R   0.950210 0.455382 0.840849 -0.017558
C78   C     C_R   0.544709 0.048659 0.840287 0.009986
C79   C     C_R   0.050197 0.457905 0.159517 0.007243
C80   C     C_R   0.000024 0.358848 0.000017 0.902811
C81   C     C_R   0.455333 0.950248 0.159194 -0.019520
C82   C     C_R   0.950068 0.546668 0.158864 -0.019106
C83   C     C_R   0.544830 0.049433 0.159144 -0.019588
C84   C     C_R   0.500080 0.999876 0.322649 -0.065392
C85   C     C_R   0.999993 0.502473 0.322586 -0.109926
C86   C     C_R   0.502092 0.000991 0.677436 -0.102697
C87   C     C_R   0.000086 0.499827 0.677226 -0.062874
C88   C     C_R   0.000078 0.499880 0.822647 -0.065712
C89   C     C_R   0.502141 0.997004 0.822439 -0.103286
C90   C     C_R   0.000464 0.503007 0.177293 -0.108369
C91   C     C_R   0.641153 0.999982 0.999978 0.928351
C92   C     C_R   0.500089 0.999824 0.177226 -0.062551
C93   C     C_R   0.358669 0.499988 0.500007 0.933992
C94   C     C_R   0.500009 0.358672 0.500010 0.933280
C95   C     C_R   0.641330 0.500013 0.499992 0.934398
C96   C     C_R   0.499990 0.641328 0.499984 0.933325
C97   C     C_R   0.858672 0.000009 0.000010 0.933356
C98   C     C_R   0.999987 0.858669 0.000014 0.934438
C99   C     C_R   0.141328 0.999991 0.999996 0.933408
C100  C     C_R   0.000012 0.141330 0.999987 0.934098
C101  C     C_R   0.500046 0.999952 0.395043 -0.313328
C102  C     C_R   0.500089 0.999808 0.215019 0.387726
C103  C     C_R   0.000129 0.500563 0.394990 -0.342350
C104  C     C_R   0.500046 0.000809 0.605179 -0.340804
C105  C     C_R   0.000042 0.499906 0.604947 -0.313558
C106  C     C_R   0.000046 0.499952 0.895042 -0.314057
C107  C     C_R   0.499773 0.000004 0.894755 -0.341624
C108  C     C_R   0.999750 0.500262 0.105001 -0.342053
C109  C     C_R   0.500042 0.999906 0.104945 -0.312821
C110  C     C_3   0.558620 0.157227 0.403176 -0.273076
C111  C     C_3   0.841863 0.563690 0.400950 -0.243490
C112  C     C_3   0.441500 0.842671 0.403381 -0.271587
H1    H     H_    0.597743 0.194569 0.416114 0.196782
H2    H     H_    0.192824 0.398280 0.415558 0.196249
H3    H     H_    0.146639 0.483762 0.421434 0.143970
H4    H     H_    0.185343 0.459840 0.379730 0.142478
H5    H     H_    0.304162 0.926065 0.579720 0.191094
H6    H     H_    0.336623 0.008977 0.598878 0.150927
H7    H     H_    0.296951 0.936937 0.625281 0.143929
H8    H     H_    0.805886 0.400824 0.583907 0.198771
H9    H     H_    0.852275 0.486481 0.579147 0.141788
H10   H     H_    0.813718 0.459938 0.620575 0.146233
H11   H     H_    0.705078 0.084758 0.585951 0.181460
H12   H     H_    0.513067 0.146778 0.421520 0.141318
H13   H     H_    0.668354 0.996671 0.596525 0.146764
H14   H     H_    0.696509 0.059655 0.630352 0.165244
H15   H     H_    0.194170 0.598968 0.583708 0.198166
H16   H     H_    0.147785 0.513299 0.579077 0.142515
H17   H     H_    0.186427 0.539876 0.620442 0.146033
H18   H     H_    0.098120 0.694399 0.916106 0.198936
H19   H     H_    0.013364 0.646759 0.921535 0.142007
H20   H     H_    0.037678 0.685862 0.879956 0.143487
H21   H     H_    0.420709 0.792262 0.913547 0.181947
H22   H     H_    0.508280 0.830907 0.903571 0.146490
H23   H     H_    0.537357 0.185931 0.379949 0.143302
H24   H     H_    0.446836 0.801598 0.869316 0.161748
H25   H     H_    0.902038 0.305561 0.916420 0.198303
H26   H     H_    0.986838 0.353179 0.921658 0.142636
H27   H     H_    0.962341 0.313947 0.880177 0.143308
H28   H     H_    0.567781 0.202067 0.918257 0.189126
H29   H     H_    0.484655 0.162157 0.902733 0.154587
H30   H     H_    0.549717 0.203103 0.873051 0.141610
H31   H     H_    0.101381 0.306866 0.085055 0.196444
H32   H     H_    0.015546 0.352686 0.079625 0.144064
H33   H     H_    0.041303 0.315203 0.121388 0.144638
H34   H     H_    0.806364 0.601926 0.415573 0.192677
H35   H     H_    0.305625 0.901388 0.083892 0.196895
H36   H     H_    0.352249 0.986923 0.079159 0.140986
H37   H     H_    0.313608 0.960436 0.120577 0.145914
H38   H     H_    0.896116 0.693048 0.083943 0.192980
H39   H     H_    0.985539 0.652883 0.082920 0.128227
H40   H     H_    0.947406 0.687411 0.123259 0.159769
H41   H     H_    0.694433 0.098417 0.083698 0.196771
H42   H     H_    0.647807 0.012878 0.079075 0.141198
H43   H     H_    0.686530 0.039361 0.120437 0.146178
H44   H     H_    0.590680 0.144222 0.328113 0.199161
H45   H     H_    0.848007 0.513194 0.416756 0.127852
H46   H     H_    0.653808 0.076489 0.330816 0.228540
H47   H     H_    0.876427 0.576470 0.306276 0.181885
H48   H     H_    0.941718 0.642284 0.311110 0.215949
H49   H     H_    0.346347 0.923273 0.330956 0.228346
H50   H     H_    0.409482 0.855540 0.328314 0.199639
H51   H     H_    0.142598 0.408842 0.327473 0.198523
H52   H     H_    0.073604 0.347151 0.329798 0.225723
H53   H     H_    0.351691 0.925125 0.676540 0.187093
H54   H     H_    0.410326 0.854740 0.668785 0.225591
H55   H     H_    0.858060 0.404744 0.672235 0.207446
H56   H     H_    0.813657 0.550829 0.376271 0.161212
H57   H     H_    0.928408 0.344733 0.669001 0.220452
H58   H     H_    0.631100 0.064808 0.694047 0.184794
H59   H     H_    0.569709 0.134285 0.689608 0.214949
H60   H     H_    0.071757 0.654936 0.668889 0.219855
H61   H     H_    0.142109 0.594921 0.672103 0.206621
H62   H     H_    0.090910 0.644083 0.828116 0.200174
H63   H     H_    0.153932 0.576251 0.830817 0.226650
H64   H     H_    0.438895 0.860998 0.808823 0.197521
H65   H     H_    0.375405 0.929103 0.806781 0.199600
H66   H     H_    0.846221 0.423518 0.830957 0.226055
H67   H     H_    0.402408 0.805389 0.416427 0.196706
H68   H     H_    0.909248 0.355685 0.828315 0.199309
H69   H     H_    0.577254 0.148766 0.823388 0.196309
H70   H     H_    0.646573 0.089803 0.832469 0.220379
H71   H     H_    0.095364 0.360752 0.173186 0.203812
H72   H     H_    0.155489 0.430833 0.169576 0.221498
H73   H     H_    0.357824 0.905096 0.172229 0.206718
H74   H     H_    0.428022 0.844911 0.168992 0.222737
H75   H     H_    0.923247 0.631300 0.190249 0.196443
H76   H     H_    0.866859 0.557516 0.193138 0.194588
H77   H     H_    0.572149 0.154753 0.168881 0.222257
H78   H     H_    0.487123 0.853165 0.421652 0.141381
H79   H     H_    0.642352 0.094562 0.172096 0.206856
H80   H     H_    0.462673 0.813881 0.380175 0.143688
N1    N     N_R   0.564046 0.000368 0.266949 -0.153943
N2    N     N_R   0.491205 0.061334 0.767415 -0.158755
N3    N     N_R   0.936125 0.499289 0.766971 -0.155379
N4    N     N_R   0.513902 0.935353 0.766603 -0.191901
N5    N     N_R   0.009266 0.566278 0.232748 -0.191410
N6    N     N_R   0.564067 0.000473 0.232691 -0.159370
N7    N     N_R   0.992289 0.439441 0.232674 -0.153820
N8    N     N_R   0.436110 0.999160 0.232718 -0.159821
N9    N     N_3   0.601048 0.089374 0.322328 -0.420080
N10   N     N_3   0.909206 0.604171 0.324072 -0.407128
N11   N     N_3   0.399113 0.910378 0.322468 -0.419803
N12   N     N_R   0.009184 0.566097 0.267008 -0.194268
N13   N     N_3   0.087545 0.399872 0.321630 -0.416986
N14   N     N_3   0.405736 0.907469 0.679004 -0.428019
N15   N     N_3   0.913438 0.396737 0.677751 -0.424423
N16   N     N_3   0.600148 0.094923 0.676352 -0.419802
N17   N     N_3   0.086737 0.602916 0.677651 -0.424815
N18   N     N_3   0.101192 0.589220 0.822330 -0.420744
N19   N     N_3   0.408606 0.898434 0.823322 -0.415304
N20   N     N_3   0.898966 0.410539 0.822469 -0.421198
N21   N     N_3   0.594526 0.094504 0.821501 -0.428832
N22   N     N_3   0.103415 0.416247 0.178380 -0.419617
N23   N     N_R   0.436127 0.999301 0.266975 -0.154370
N24   N     N_3   0.413181 0.896949 0.177745 -0.423218
N25   N     N_3   0.896411 0.590715 0.176157 -0.404165
N26   N     N_3   0.587000 0.102697 0.177645 -0.423588
N27   N     N_R   0.992008 0.439323 0.266945 -0.146860
N28   N     N_R   0.491482 0.062472 0.733175 -0.191252
N29   N     N_R   0.064064 0.500497 0.732687 -0.160567
N30   N     N_R   0.514113 0.936466 0.732351 -0.151961
N31   N     N_R   0.936108 0.499144 0.732714 -0.160496
N32   N     N_R   0.064043 0.500389 0.766945 -0.155391
O1    O     O_R   0.560480 0.107240 0.500130 -0.604227
O2    O     O_R   0.392760 0.060480 0.000130 -0.632857
O3    O     O_R   0.939520 0.392760 0.000130 -0.616062
O4    O     O_R   0.607240 0.939520 0.000130 -0.631961
O5    O     O_R   0.060480 0.392760 0.999870 -0.618185
O6    O     O_R   0.392760 0.939520 0.999870 -0.604057
O7    O     O_R   0.939520 0.607240 0.999870 -0.617779
O8    O     O_R   0.607240 0.060480 0.999870 -0.605219
O9    O     O_R   0.560480 0.999920 0.449200 -0.589193
O10   O     O_R   0.000080 0.560480 0.449200 -0.587889
O11   O     O_R   0.439520 0.000080 0.449200 -0.589450
O12   O     O_R   0.892760 0.560480 0.500130 -0.617423
O13   O     O_R   0.999920 0.439520 0.449200 -0.586893
O14   O     O_R   0.560480 0.000080 0.550800 -0.610368
O15   O     O_R   0.000080 0.439520 0.550800 -0.589422
O16   O     O_R   0.439520 0.999920 0.550800 -0.611746
O17   O     O_R   0.999920 0.560480 0.550800 -0.589399
O18   O     O_R   0.060480 0.499920 0.949200 -0.589482
O19   O     O_R   0.500080 0.060480 0.949200 -0.609252
O20   O     O_R   0.939520 0.500080 0.949200 -0.589431
O21   O     O_R   0.499920 0.939520 0.949200 -0.608842
O22   O     O_R   0.060480 0.500080 0.050800 -0.586811
O23   O     O_R   0.439520 0.892760 0.500130 -0.606400
O24   O     O_R   0.500080 0.939520 0.050800 -0.589183
O25   O     O_R   0.939520 0.499920 0.050800 -0.587714
O26   O     O_R   0.499920 0.060480 0.050800 -0.589457
O27   O     O_R   0.392500 0.499870 0.471390 -0.624572
O28   O     O_R   0.500130 0.392500 0.471390 -0.627506
O29   O     O_R   0.607500 0.500130 0.471390 -0.624623
O30   O     O_R   0.499870 0.607500 0.471390 -0.627020
O31   O     O_R   0.392500 0.500130 0.528610 -0.621955
O32   O     O_R   0.500130 0.607500 0.528610 -0.615493
O33   O     O_R   0.607500 0.499870 0.528610 -0.621548
O34   O     O_R   0.107240 0.439520 0.500130 -0.618354
O35   O     O_R   0.499870 0.392500 0.528610 -0.614521
O36   O     O_R   0.892500 0.999870 0.971390 -0.616213
O37   O     O_R   0.000130 0.892500 0.971390 -0.621925
O38   O     O_R   0.107500 0.000130 0.971390 -0.614990
O39   O     O_R   0.999870 0.107500 0.971390 -0.622390
O40   O     O_R   0.892500 0.000130 0.028610 -0.626603
O41   O     O_R   0.000130 0.107500 0.028610 -0.624192
O42   O     O_R   0.107500 0.999870 0.028610 -0.627060
O43   O     O_R   0.999870 0.892500 0.028610 -0.624298
O44   O     O_3   0.595795 0.092061 0.394436 -0.585252
O45   O     O_R   0.560480 0.892760 0.499870 -0.631513
O46   O     O_3   0.909916 0.597921 0.395073 -0.564198
O47   O     O_3   0.404320 0.907819 0.394577 -0.585543
O48   O     O_3   0.090383 0.402946 0.393878 -0.585848
O49   O     O_3   0.400660 0.913170 0.606133 -0.597285
O50   O     O_3   0.908419 0.403680 0.605539 -0.587828
O51   O     O_3   0.599979 0.087713 0.604664 -0.578046
O52   O     O_3   0.091687 0.596109 0.605441 -0.588025
O53   O     O_3   0.095964 0.591890 0.894434 -0.587285
O54   O     O_3   0.416095 0.897388 0.894919 -0.576384
O55   O     O_3   0.904153 0.407990 0.894574 -0.587446
O56   O     O_R   0.892760 0.439520 0.499870 -0.616609
O57   O     O_3   0.582852 0.103347 0.894008 -0.596055
O58   O     O_3   0.097279 0.409873 0.106121 -0.586122
O59   O     O_3   0.408158 0.903937 0.105533 -0.585662
O60   O     O_3   0.901927 0.589997 0.104924 -0.563704
O61   O     O_3   0.591946 0.095855 0.105435 -0.585980
O62   O     O_R   0.439520 0.107240 0.499870 -0.632441
O63   O     O_R   0.107240 0.560480 0.499870 -0.616145
O64   O     O_R   0.060480 0.607240 0.000130 -0.616349
Zn1   Zn    Zn3+2 0.580810 0.000000 0.500000 0.995748
Zn2   Zn    Zn3+2 0.500000 0.500000 0.538260 0.974078
Zn3   Zn    Zn3+2 1.000000 0.000000 0.961740 0.971892
Zn4   Zn    Zn3+2 0.000000 0.000000 0.038260 0.954548
Zn5   Zn    Zn3+2 0.000000 0.580810 0.500000 1.014434
Zn6   Zn    Zn3+2 0.419190 0.000000 0.500000 0.990164
Zn7   Zn    Zn3+2 0.000000 0.419190 0.500000 1.012698
Zn8   Zn    Zn3+2 0.080810 0.500000 0.000000 1.013000
Zn9   Zn    Zn3+2 0.500000 0.080810 0.000000 0.991967
Zn10  Zn    Zn3+2 0.919190 0.500000 0.000000 1.014466
Zn11  Zn    Zn3+2 0.500000 0.919190 0.000000 0.996045
Zn12  Zn    Zn3+2 0.500000 0.500000 0.461740 0.952986

loop_
_geom_bond_atom_site_label_1
_geom_bond_atom_site_label_2
_ccdc_geom_bond_type
C16   O61   S    
N3    N31   A    
C27   O18   A    
C52   C103  A    
C37   C69   S    
C91   O4    A    
C71   N14   S    
C17   C88   S    
C29   O22   A    
C20   N12   A    
O28   Zn12  S    
C80   O5    A    
C11   H28   S    
C19   C86   S    
C69   O2    A    
C33   C36   S    
C12   O58   S    
O32   Zn2   S    
C8    O53   S    
C15   O60   S    
C26   O17   A    
O20   Zn10  S    
C75   N18   S    
C58   O64   A    
H76   N25   S    
O38   Zn3   S    
C70   N13   S    
H58   N16   S    
C48   C97   S    
O23   Zn6   S    
C22   C101  S    
C30   O24   A    
C63   C81   A    
C35   C58   S    
C42   C96   S    
C33   C42   T    
O43   Zn4   S    
N29   N32   A    
C51   O47   S    
C3    H4    S    
C102  N6    A    
H48   N10   S    
C23   O13   A    
C65   C83   A    
C81   N24   S    
O15   Zn7   S    
C100  O41   A    
C28   C107  S    
N1    N6    A    
C2    N5    A    
C5    H9    S    
C8    H20   S    
C1    C31   S    
O56   Zn7   S    
C10   H26   S    
C31   C40   T    
O62   Zn6   S    
N5    N12   A    
C65   O61   S    
O40   Zn4   S    
H63   N18   S    
O6    Zn11  S    
H68   N20   S    
C18   N29   A    
O21   Zn11  S    
C1    O62   A    
C79   C90   A    
C12   H31   S    
C58   O7    A    
O13   Zn7   S    
C97   O40   A    
C110  H12   S    
C57   O53   S    
C81   C92   A    
C44   C98   S    
C26   O15   A    
C79   N22   S    
C23   C103  S    
C50   O46   S    
C77   C88   A    
C7    H17   S    
C13   N4    A    
H74   N24   S    
C82   C90   A    
C56   O52   S    
O41   Zn4   S    
C36   O45   A    
C21   N23   A    
C29   C108  S    
C5    H8    S    
C54   C72   A    
C28   O19   A    
C7    H16   S    
C50   C67   A    
C95   O29   A    
C16   H43   S    
C21   C84   S    
C77   N20   S    
C54   O50   S    
C76   C89   A    
C51   C68   A    
C99   O42   A    
C9    H22   S    
O26   Zn9   S    
C25   C32   S    
C53   O49   S    
C57   C106  A    
O36   Zn3   S    
C50   C103  A    
C59   C76   A    
C27   O20   A    
O4    Zn11  S    
C66   N9    S    
C4    H6    S    
C110  H23   S    
C19   N30   A    
C6    H11   S    
C8    H19   S    
C25   O56   A    
C61   C107  A    
H44   N9    S    
O34   Zn7   S    
C26   C105  S    
C39   C91   S    
C15   H40   S    
O29   Zn12  S    
O14   Zn1   S    
O33   Zn2   S    
C64   C108  A    
C72   N15   S    
C99   O38   A    
C78   C89   A    
C73   C86   A    
C60   C77   A    
C67   C85   A    
C56   C74   A    
C49   C66   A    
C74   N17   S    
C63   O59   S    
C2    N7    A    
C68   C84   A    
O10   Zn5   S    
C62   C79   A    
H46   N9    S    
N7    N27   A    
C96   O32   A    
H60   N17   S    
C45   C99   S    
C111  H34   S    
C23   O10   A    
C83   N26   S    
H47   N10   S    
N2    N28   A    
C30   C109  S    
O35   Zn2   S    
C67   N10   S    
C16   H42   S    
C112  H78   S    
C5    H10   S    
H51   N13   S    
C78   N21   S    
C3    O48   S    
O63   Zn5   S    
C94   O28   A    
C24   C104  S    
C61   O57   S    
C12   H33   S    
C63   C109  A    
O5    Zn8   S    
O12   Zn5   S    
O45   Zn1   S    
C35   C44   T    
C102  N8    A    
C112  H80   S    
C71   C86   A    
C14   H35   S    
C64   O60   S    
H72   N22   S    
N8    N23   A    
C100  O39   A    
C98   O43   A    
C32   C41   T    
C22   O9    A    
O16   Zn6   S    
C20   C85   S    
C6    H14   S    
C52   C70   A    
C55   C104  A    
H66   N20   S    
C29   O25   A    
O24   Zn11  S    
O3    Zn10  S    
C112  O47   S    
C15   H39   S    
C18   N31   A    
C11   H29   S    
C110  H1    S    
C64   C82   A    
C53   C104  A    
C112  H67   S    
H79   N26   S    
C76   N19   S    
C10   H25   S    
C73   N16   S    
C7    O52   S    
O1    Zn1   S    
C13   N2    A    
C83   C92   A    
C8    H18   S    
C74   C87   A    
C20   N27   A    
O9    Zn1   S    
C4    H5    S    
C17   N3    A    
C51   C101  A    
C10   H27   S    
C11   O57   S    
C37   C45   T    
C53   C71   A    
C94   O35   A    
O7    Zn10  S    
C72   C87   A    
C60   C106  A    
H77   N26   S    
C60   O55   S    
H75   N25   S    
C49   O44   S    
C1    O1    A    
C95   O33   A    
C46   C100  S    
C65   C109  A    
C96   O30   A    
C54   C105  A    
C13   C89   S    
H62   N18   S    
O2    Zn9   S    
O39   Zn3   S    
H49   N11   S    
H61   N17   S    
C34   C43   T    
C62   O58   S    
C6    H13   S    
C40   C94   S    
C3    H2    S    
C24   O16   A    
H57   N15   S    
C10   O55   S    
H69   N21   S    
C93   O31   A    
H64   N19   S    
O18   Zn8   S    
C34   C47   S    
C92   C102  S    
C14   O59   S    
O31   Zn2   S    
C24   O14   A    
H54   N14   S    
H50   N11   S    
C55   O51   S    
C18   C87   S    
C27   C106  S    
H73   N24   S    
C111  H56   S    
C91   O8    A    
H52   N13   S    
C7    H15   S    
C57   C75   A    
C4    H7    S    
C111  H45   S    
O11   Zn6   S    
C6    O51   S    
C14   H36   S    
C3    H3    S    
C69   O6    A    
C49   C101  A    
C98   O37   A    
H65   N19   S    
C41   C95   S    
C82   N25   S    
C38   C80   S    
H71   N22   S    
O37   Zn3   S    
C14   H37   S    
O22   Zn8   S    
C43   C93   S    
H70   N21   S    
O25   Zn10  S    
C28   O21   A    
O64   Zn8   S    
C80   O3    A    
C110  O44   S    
C9    O54   S    
C11   H30   S    
C59   C107  A    
C56   C105  A    
C38   C46   T    
C61   C78   A    
O30   Zn12  S    
C52   O48   S    
C66   C84   A    
C22   O11   A    
C55   C73   A    
C9    H24   S    
C30   O26   A    
C75   C88   A    
H53   N14   S    
C62   C108  A    
C2    C90   S    
C47   O63   A    
C59   O54   S    
O27   Zn12  S    
C16   H41   S    
C17   N32   A    
C36   O23   A    
C4    O49   S    
O8    Zn9   S    
C12   H32   S    
O42   Zn4   S    
C19   N28   A    
C47   O34   A    
C111  O46   S    
C21   N1    A    
H59   N16   S    
C70   C85   A    
C93   O27   A    
O17   Zn5   S    
C25   O12   A    
O19   Zn9   S    
N4    N30   A    
C5    O50   S    
C15   H38   S    
C97   O36   A    
H55   N15   S    
C39   C48   T    
C68   N11   S    
C9    H21   S    
