data_mof_unit_43223.cif
_audit_creation_date              2012-12-11T17:04:28-0500
_audit_creation_method            fapswitch 2.2
_symmetry_space_group_name_H-M    P1
_symmetry_Int_Tables_number       1
_space_group_crystal_system       triclinic
_cell_length_a                    17.45059
_cell_length_b                    24.443959
_cell_length_c                    14.984524
_cell_angle_alpha                 88.792977
_cell_angle_beta                  125.889417
_cell_angle_gamma                 90.908103
_cell_volume                      5177.13611039

loop_
_atom_site_label
_atom_site_type_symbol
_atom_type_description
_atom_site_fract_x
_atom_site_fract_y
_atom_site_fract_z
_atom_type_partial_charge
Br1   Br    Br    0.517556 0.411782 0.622767 -0.390614
Br2   Br    Br    0.026946 0.383788 0.467325 -0.400352
Br3   Br    Br    0.674808 0.895347 0.746693 -0.454580
Br4   Br    Br    0.526939 0.883789 0.467319 -0.400356
Br5   Br    Br    0.899561 0.589532 0.355991 -0.473712
Br6   Br    Br    0.119837 0.666536 0.674831 -0.417504
Br7   Br    Br    0.399570 0.089540 0.355999 -0.473698
Br8   Br    Br    0.619856 0.166533 0.674847 -0.417522
Br9   Br    Br    0.149895 0.398258 0.374307 -0.411573
Br10  Br    Br    0.936816 0.400169 0.626670 -0.464565
Br11  Br    Br    0.649892 0.898257 0.374307 -0.411602
Br12  Br    Br    0.479396 0.380839 0.353537 -0.404055
Br13  Br    Br    0.436813 0.900170 0.626668 -0.464526
Br14  Br    Br    0.743694 0.327436 0.780605 -0.430959
Br15  Br    Br    0.219338 0.315163 0.224606 -0.404828
Br16  Br    Br    0.243719 0.827420 0.780619 -0.430955
Br17  Br    Br    0.719345 0.815164 0.224606 -0.404852
Br18  Br    Br    0.017544 0.911732 0.622722 -0.390592
Br19  Br    Br    0.979431 0.880882 0.353496 -0.404118
Br20  Br    Br    0.971703 0.775775 0.802268 -0.410905
Br21  Br    Br    0.008198 0.777533 0.175198 -0.459211
Br22  Br    Br    0.471701 0.275776 0.802275 -0.410897
Br23  Br    Br    0.508190 0.277537 0.175185 -0.459242
Br24  Br    Br    0.174812 0.395349 0.746697 -0.454563
C1    C     C_R   0.849091 0.650922 0.903700 -0.127937
C2    C     C_R   0.045755 0.502380 0.721824 0.038374
C3    C     C_R   0.768842 0.047180 0.247959 -0.128437
C4    C     C_R   0.815519 0.369992 0.911699 0.320383
C5    C     C_R   0.166269 0.356363 0.090353 0.289575
C6    C     C_R   0.315523 0.869988 0.911699 0.320351
C7    C     C_R   0.666273 0.856366 0.090353 0.289580
C8    C     C_R   0.937346 0.651339 0.087595 -0.055171
C9    C     C_R   0.058427 0.653528 0.910674 -0.081584
C10   C     C_R   0.437344 0.151339 0.087595 -0.055174
C11   C     C_R   0.558428 0.153528 0.910675 -0.081581
C12   C     C_R   0.875076 0.681526 0.992581 0.105763
C13   C     C_R   0.555315 0.999173 0.363213 0.064909
C14   C     C_R   0.118064 0.684940 0.003339 0.125915
C15   C     C_R   0.375074 0.181525 0.992580 0.105772
C16   C     C_R   0.618066 0.184940 0.003339 0.125914
C17   C     C_R   0.545756 0.002379 0.721825 0.038366
C18   C     C_R   0.684335 0.503029 0.650037 0.077488
C19   C     C_R   0.324292 0.501685 0.274146 0.062822
C20   C     C_R   0.184308 0.003025 0.650100 0.077523
C21   C     C_R   0.824296 0.001687 0.274162 0.062853
C22   C     C_3   0.514724 0.465271 0.523447 0.336287
C23   C     C_3   0.492371 0.453309 0.410574 0.304422
C24   C     C_3   0.014710 0.965250 0.523458 0.336291
C25   C     C_R   0.146929 0.652422 0.093268 -0.149576
C26   C     C_3   0.992383 0.953325 0.410594 0.304469
C27   C     C_3   0.446435 0.513681 0.475717 -0.226085
C28   C     C_3   0.572366 0.492403 0.433550 -0.202860
C29   C     C_3   0.946401 0.013649 0.475746 -0.226078
C30   C     C_3   0.072366 0.992435 0.433622 -0.202874
C31   C     C_3   0.424077 0.501713 0.362108 0.001750
C32   C     C_3   0.593098 0.504128 0.545848 -0.009402
C33   C     C_3   0.924072 0.001717 0.362147 0.001769
C34   C     C_3   0.093073 0.004124 0.545911 -0.009412
C35   C     C_3   0.502144 0.541297 0.383714 -0.127132
C36   C     C_R   0.349090 0.150922 0.903700 -0.127945
C37   C     C_3   0.525581 0.553012 0.498439 -0.158772
C38   C     C_3   0.002127 0.041317 0.383805 -0.127189
C39   C     C_3   0.025537 0.052996 0.498520 -0.158826
C40   C     C_R   0.784838 0.300078 0.112058 0.162068
C41   C     C_R   0.181194 0.274044 0.896266 0.212458
C42   C     C_R   0.284835 0.800078 0.112056 0.162074
C43   C     C_R   0.681206 0.774053 0.896263 0.212472
C44   C     C_R   0.751838 0.329300 0.015175 -0.015181
C45   C     C_R   0.216327 0.302406 0.992180 -0.013939
C46   C     C_R   0.251839 0.829297 0.015172 -0.015182
C47   C     C_R   0.646931 0.152422 0.093269 -0.149564
C48   C     C_R   0.716336 0.802411 0.992180 -0.013952
C49   C     C_R   0.655839 0.324496 0.926653 -0.151999
C50   C     C_R   0.314475 0.306438 0.071523 -0.157174
C51   C     C_R   0.155841 0.824493 0.926648 -0.152008
C52   C     C_R   0.814484 0.806439 0.071529 -0.157167
C53   C     C_R   0.905336 0.377162 0.095433 -0.142248
C54   C     C_R   0.075432 0.359410 0.906353 -0.120021
C55   C     C_R   0.405337 0.877160 0.095433 -0.142237
C56   C     C_R   0.575436 0.859413 0.906353 -0.120019
C57   C     C_R   0.102248 0.780637 0.925216 0.350608
C58   C     C_R   0.818747 0.359712 0.005740 -0.012199
C59   C     C_R   0.874127 0.771727 0.065928 0.346027
C60   C     C_R   0.602248 0.280638 0.925221 0.350603
C61   C     C_R   0.374119 0.271726 0.065921 0.346033
C62   C     C_R   0.147555 0.741815 0.012812 -0.083989
C63   C     C_R   0.832635 0.733122 0.981063 -0.088302
C64   C     C_R   0.647557 0.241814 0.012814 -0.083986
C65   C     C_R   0.332627 0.233119 0.981062 -0.088293
C66   C     C_R   0.233608 0.756740 0.110726 0.170074
C67   C     C_R   0.738364 0.739615 0.890368 0.185598
C68   C     C_R   0.733613 0.256738 0.110727 0.170062
C69   C     C_R   0.152591 0.335186 0.997548 0.000247
C70   C     C_R   0.238354 0.239608 0.890370 0.185595
C71   C     C_3   0.321166 0.723884 0.189097 -0.511609
C72   C     C_3   0.659674 0.698521 0.826979 -0.508320
C73   C     C_3   0.821172 0.223882 0.189093 -0.511601
C74   C     C_3   0.159669 0.198510 0.826993 -0.508333
C75   C     C_3   0.877316 0.271767 0.190406 -0.407332
C76   C     C_3   0.096780 0.237501 0.833453 -0.436399
C77   C     C_3   0.377312 0.771768 0.190408 -0.407341
C78   C     C_3   0.596787 0.737513 0.833439 -0.436400
C79   C     C_R   0.098496 0.553268 0.620932 0.028537
C80   C     C_R   0.318750 0.859708 0.005739 -0.012195
C81   C     C_R   0.091263 0.550481 0.524332 -0.061731
C82   C     C_R   0.598501 0.053267 0.620937 0.028533
C83   C     C_R   0.591267 0.050481 0.524336 -0.061742
C84   C     C_R   0.096697 0.505034 0.671703 -0.077745
C85   C     C_R   0.081112 0.499825 0.475567 -0.057345
C86   C     C_R   0.596698 0.005033 0.671705 -0.077735
C87   C     C_R   0.581111 0.999825 0.475567 -0.057346
C88   C     C_R   0.119221 0.456341 0.644463 0.300978
C89   C     C_R   0.092023 0.451444 0.536673 0.343187
C90   C     C_R   0.619219 0.956341 0.644462 0.300969
C91   C     C_R   0.652599 0.835190 0.997548 0.000253
C92   C     C_R   0.592019 0.951443 0.536671 0.343188
C93   C     C_3   0.031774 0.601553 0.478787 0.112408
C94   C     C_3   0.042242 0.604926 0.585948 0.112188
C95   C     C_3   0.531785 0.101555 0.478796 0.112413
C96   C     C_3   0.542253 0.104927 0.585957 0.112193
C97   C     C_R   0.042255 0.545379 0.300104 -0.100341
C98   C     C_R   0.024278 0.547008 0.758348 -0.184931
C99   C     C_R   0.542254 0.045379 0.300104 -0.100349
C100  C     C_R   0.524280 0.047007 0.758350 -0.184924
C101  C     C_R   0.737357 0.456750 0.700914 -0.039568
C102  C     C_R   0.055318 0.499173 0.363214 0.064909
C103  C     C_R   0.268948 0.455820 0.249767 -0.050099
C104  C     C_R   0.237339 0.956748 0.700951 -0.039653
C105  C     C_R   0.768950 0.955821 0.249774 -0.050116
C106  C     C_R   0.055590 0.454775 0.307044 0.313406
C107  C     C_R   0.003917 0.456308 0.734507 0.346189
C108  C     C_R   0.555589 0.954775 0.307043 0.313405
C109  C     C_R   0.503916 0.956308 0.734506 0.346191
C110  C     C_R   0.735768 0.548052 0.707264 -0.111616
C111  C     C_R   0.268841 0.547179 0.247950 -0.128429
C112  C     C_R   0.235754 0.048050 0.707298 -0.111641
H1    H     H_    0.326684 0.686904 0.151185 0.208835
H2    H     H_    0.073495 0.221517 0.884077 0.215339
H3    H     H_    0.414976 0.762434 0.153100 0.217214
H4    H     H_    0.573495 0.721528 0.884055 0.215338
H5    H     H_    0.931839 0.375164 0.181065 0.164651
H6    H     H_    0.041965 0.348975 0.821913 0.187502
H7    H     H_    0.431840 0.875163 0.181065 0.164650
H8    H     H_    0.541971 0.848979 0.821913 0.187499
H9    H     H_    0.057674 0.587322 0.326249 0.126857
H10   H     H_    0.046498 0.588708 0.762696 0.159381
H11   H     H_    0.557673 0.087322 0.326248 0.126861
H12   H     H_    0.672418 0.659627 0.873583 0.214782
H13   H     H_    0.546502 0.088707 0.762700 0.159378
H14   H     H_    0.722611 0.417121 0.664073 0.191035
H15   H     H_    0.293467 0.414597 0.271280 0.189736
H16   H     H_    0.222581 0.917118 0.664109 0.191060
H17   H     H_    0.793473 0.914598 0.271294 0.189742
H18   H     H_    0.393571 0.522221 0.492365 0.176567
H19   H     H_    0.626757 0.483703 0.419518 0.190404
H20   H     H_    0.893522 0.022163 0.492373 0.176588
H21   H     H_    0.126771 0.983760 0.419608 0.190401
H22   H     H_    0.809818 0.664187 0.818417 0.132663
H23   H     H_    0.826688 0.186902 0.151176 0.208838
H24   H     H_    0.181024 0.665791 0.176954 0.127934
H25   H     H_    0.309815 0.164187 0.818416 0.132667
H26   H     H_    0.681027 0.165791 0.176954 0.127930
H27   H     H_    0.494802 0.572139 0.323736 0.154447
H28   H     H_    0.540403 0.593808 0.536721 0.144653
H29   H     H_    0.994784 0.072176 0.323858 0.154454
H30   H     H_    0.040338 0.093778 0.536830 0.144676
H31   H     H_    0.625048 0.351600 0.855665 0.219620
H32   H     H_    0.343830 0.334752 0.138600 0.208865
H33   H     H_    0.125053 0.851596 0.855658 0.219608
H34   H     H_    0.172420 0.159617 0.873602 0.214781
H35   H     H_    0.843839 0.834750 0.138612 0.208882
H36   H     H_    0.921076 0.292036 0.271706 0.242072
H37   H     H_    0.039952 0.255426 0.752079 0.233498
H38   H     H_    0.421069 0.792039 0.271707 0.242075
H39   H     H_    0.539964 0.755441 0.752065 0.233509
H40   H     H_    0.066909 0.635756 0.465449 0.158304
H41   H     H_    0.974009 0.600800 0.575667 0.149491
H42   H     H_    0.566923 0.135757 0.465461 0.158302
H43   H     H_    0.474019 0.100804 0.575676 0.149492
H44   H     H_    0.719698 0.590549 0.681980 0.108055
H45   H     H_    0.332982 0.716619 0.269798 0.213826
H46   H     H_    0.291739 0.589413 0.264604 0.113145
H47   H     H_    0.219675 0.090547 0.682012 0.108063
H48   H     H_    0.791738 0.089414 0.264620 0.113142
H49   H     H_    0.975805 0.664160 0.172124 0.152096
H50   H     H_    0.015894 0.667279 0.825889 0.164447
H51   H     H_    0.475803 0.164160 0.172123 0.152099
H52   H     H_    0.515895 0.167279 0.825889 0.164446
H53   H     H_    0.638373 0.693504 0.741636 0.212523
H54   H     H_    0.832991 0.216615 0.269796 0.213818
H55   H     H_    0.138364 0.193491 0.741648 0.212515
H56   H     H_    0.914978 0.262435 0.153093 0.217213
N1    N     N_R   0.892620 0.603790 0.941770 -0.050202
N2    N     N_R   0.973690 0.529110 0.793240 -0.062573
N3    N     N_R   0.526310 0.029110 0.206760 -0.071284
N4    N     N_R   0.473690 0.029110 0.793240 -0.062570
N5    N     N_R   0.818570 0.472310 0.793020 -0.061031
N6    N     N_R   0.181430 0.472310 0.206980 -0.041646
N7    N     N_R   0.318570 0.972310 0.793020 -0.061029
N8    N     N_R   0.681430 0.972310 0.206980 -0.041650
N9    N     N_R   0.026930 0.472300 0.207330 -0.084814
N10   N     N_R   0.973070 0.472300 0.792670 -0.079744
N11   N     N_R   0.526930 0.972300 0.207330 -0.084814
N12   N     N_R   0.107380 0.603790 0.058230 -0.048580
N13   N     N_R   0.473070 0.972300 0.792670 -0.079739
N14   N     N_R   0.817960 0.529130 0.792460 -0.052172
N15   N     N_R   0.182040 0.529130 0.207540 -0.053046
N16   N     N_R   0.317960 0.029130 0.792460 -0.052170
N17   N     N_R   0.682040 0.029130 0.207540 -0.053048
N18   N     N_R   0.894850 0.397640 0.943830 -0.080320
N19   N     N_R   0.105150 0.397640 0.056170 -0.080035
N20   N     N_R   0.394850 0.897640 0.943830 -0.080316
N21   N     N_R   0.605150 0.897640 0.056170 -0.080030
N22   N     N_R   0.950040 0.603780 0.055950 -0.051742
N23   N     N_R   0.392620 0.103790 0.941770 -0.050205
N24   N     N_R   0.049960 0.603780 0.944050 -0.055353
N25   N     N_R   0.450040 0.103780 0.055950 -0.051744
N26   N     N_R   0.549960 0.103780 0.944050 -0.055354
N27   N     N_R   0.607380 0.103790 0.058230 -0.048579
N28   N     N_R   0.952270 0.397640 0.058010 -0.055233
N29   N     N_R   0.047730 0.397640 0.941990 -0.071465
N30   N     N_R   0.452270 0.897640 0.058010 -0.055232
N31   N     N_R   0.547730 0.897640 0.941990 -0.071463
N32   N     N_R   0.026310 0.529110 0.206760 -0.071283
Ni1   Ni    Ni4+2 0.934160 0.565860 0.869070 0.229171
Ni2   Ni    Ni4+2 0.065840 0.565860 0.130930 0.220379
Ni3   Ni    Ni4+2 0.434160 0.065860 0.869070 0.229178
Ni4   Ni    Ni4+2 0.565840 0.065860 0.130930 0.220375
Ni5   Ni    Ni4+2 0.067260 0.435560 0.132230 0.303011
Ni6   Ni    Ni4+2 0.932740 0.435560 0.867770 0.279020
Ni7   Ni    Ni4+2 0.567260 0.935560 0.132230 0.303009
Ni8   Ni    Ni4+2 0.432740 0.935560 0.867770 0.279036

loop_
_geom_bond_atom_site_label_1
_geom_bond_atom_site_label_2
_ccdc_geom_bond_type
C20   C112  A    
N12   Ni2   S    
C59   C63   A    
C100  H13   S    
C11   N26   A    
C27   H18   S    
C21   C105  A    
C47   H26   S    
C63   C67   A    
C37   H28   S    
C20   C104  A    
C31   C35   S    
C27   C37   S    
C49   H31   S    
C99   N3    A    
Br11  C108  S    
C17   C109  A    
C77   H38   S    
N6    Ni5   S    
N18   N28   A    
C33   C38   S    
C42   C66   A    
C14   C25   A    
N20   N30   A    
N5    Ni6   S    
C28   H19   S    
C48   C91   S    
C21   C33   S    
C26   C30   S    
N3    Ni4   S    
C14   C62   S    
C40   C44   A    
N2    Ni1   S    
C23   C31   S    
C16   C47   A    
C36   N23   A    
C45   C69   S    
N23   N25   A    
N16   Ni3   S    
C6    N20   A    
C75   H56   S    
N20   Ni8   S    
Br2   C89   S    
C46   C80   S    
Br1   C22   S    
C110  N14   A    
N3    N11   A    
C72   C78   S    
C70   C74   S    
C54   C69   A    
C4    N18   A    
N2    N10   A    
C3    N17   A    
C47   N27   A    
C1    H22   S    
C43   C48   A    
C83   C95   S    
N4    N13   A    
C107  N10   A    
Br10  C107  S    
C18   C101  A    
C103  H15   S    
C67   C72   S    
C13   C99   A    
C28   C32   S    
C104  H16   S    
C40   C75   S    
C55   H7    S    
C64   C68   A    
C20   C34   S    
C11   H52   S    
C56   H8    S    
Br24  C88   S    
N29   Ni6   S    
C51   H33   S    
C82   C96   S    
C25   H24   S    
C5    N19   A    
C79   C84   A    
C95   H42   S    
N27   Ni4   S    
C86   C90   A    
C49   C60   A    
C27   C31   S    
C57   C62   A    
N21   Ni7   S    
C48   C52   A    
N10   Ni6   S    
C18   C32   S    
C3    C21   A    
C24   C26   S    
N4    Ni3   S    
C101  N5    A    
Br20  C57   S    
C3    H48   S    
C110  H44   S    
C42   C77   S    
C81   C93   S    
N5    N14   A    
C10   H51   S    
C83   C87   A    
C98   N2    A    
Br12  C23   S    
C52   C59   A    
C7    C91   A    
C88   C89   A    
C73   C75   S    
C9    N24   A    
C68   C73   S    
Br15  C5    S    
C39   H30   S    
C12   C63   S    
C77   H3    S    
C24   C29   S    
C72   H12   S    
C35   C37   S    
C71   H1    S    
C5    C69   A    
C4    C58   A    
C10   C15   A    
Br21  C59   S    
C66   C71   S    
C62   C66   A    
C19   C103  A    
C112  N16   A    
C61   C65   A    
C51   C57   A    
C75   H36   S    
C30   C38   S    
C44   C49   A    
Br9   C106  S    
N32   Ni2   S    
C22   C27   S    
C84   C88   A    
Br5   C93   S    
C25   N12   A    
Br22  C60   S    
C72   H53   S    
C52   H35   S    
N7    Ni8   S    
C38   C39   S    
C28   C35   S    
Br7   C95   S    
C104  N7    A    
N15   Ni2   S    
C10   N25   A    
C56   C91   A    
C100  N4    A    
N14   Ni1   S    
C43   C67   A    
C36   H25   S    
N18   Ni6   S    
C45   C50   A    
C79   C81   A    
C78   H4    S    
C19   C111  A    
C9    H50   S    
C106  N9    A    
C76   H2    S    
C8    H49   S    
C93   H40   S    
C19   C31   S    
C73   H54   S    
N8    Ni7   S    
C99   H11   S    
N30   Ni7   S    
N11   Ni7   S    
C17   C86   S    
N17   Ni4   S    
Br23  C61   S    
Br17  C7    S    
C97   H9    S    
C55   C80   A    
C79   C94   S    
C40   C68   A    
Br16  C6    S    
C2    C84   S    
C103  N6    A    
C73   H23   S    
N26   Ni3   S    
C46   C51   A    
C1    N1    A    
N31   Ni8   S    
Br8   C96   S    
C55   N30   A    
C111  N15   A    
C82   C86   A    
C34   C39   S    
N28   Ni5   S    
C81   C85   A    
C22   C23   S    
C41   C70   A    
C108  N11   A    
C29   C33   S    
N19   Ni5   S    
N1    N22   A    
N6    N15   A    
C26   C33   S    
Br13  C109  S    
Br4   C92   S    
C71   H45   S    
C60   C64   A    
C41   C76   S    
C74   H55   S    
N13   Ni8   S    
Br3   C90   S    
Br18  C24   S    
C65   C70   A    
C90   C92   A    
C95   C96   S    
C8    C12   A    
C53   N28   A    
C24   C34   S    
C23   C28   S    
C7    N21   A    
N24   Ni1   S    
C85   C89   A    
N12   N24   A    
C22   C32   S    
C74   C76   S    
N8    N17   A    
C111  H46   S    
C13   C108  A    
C18   C110  A    
C87   C92   A    
C44   C58   S    
C16   C64   S    
C54   H6    S    
C11   C16   A    
C78   H39   S    
C96   H43   S    
C8    N22   A    
C97   C102  A    
C1    C12   A    
C93   C94   S    
C30   H21   S    
C105  H17   S    
C29   C39   S    
Br19  C26   S    
N26   N27   A    
C42   C46   A    
C17   C100  A    
C53   C58   A    
C41   C45   A    
C15   C36   A    
C112  H47   S    
N9    Ni5   S    
N7    N16   A    
C97   N32   A    
Br6   C94   S    
N23   Ni3   S    
C98   H10   S    
C50   C61   A    
C50   H32   S    
N22   Ni2   S    
C53   H5    S    
C13   C87   S    
C105  N8    A    
C35   H27   S    
C101  H14   S    
C54   N29   A    
N1    Ni1   S    
C74   H34   S    
C94   H41   S    
C71   C77   S    
C85   C102  S    
C38   H29   S    
C30   C34   S    
C29   H20   S    
C82   C83   A    
C6    C80   A    
C76   H37   S    
C102  C106  A    
C32   C37   S    
C9    C14   A    
C2    C98   A    
N9    N32   A    
Br14  C4    S    
N25   Ni4   S    
C109  N13   A    
C15   C65   S    
C2    C107  A    
N21   N31   A    
C43   C78   S    
C56   N31   A    
N19   N29   A    
