data_mof_unit_44617.cif
_audit_creation_date              2012-12-11T14:41:59-0500
_audit_creation_method            fapswitch 2.2
_symmetry_space_group_name_H-M    P1
_symmetry_Int_Tables_number       1
_space_group_crystal_system       triclinic
_cell_length_a                    19.098624
_cell_length_b                    10.829885
_cell_length_c                    18.824841
_cell_angle_alpha                 90.047387
_cell_angle_beta                  90.178961
_cell_angle_gamma                 89.916145
_cell_volume                      3893.62848006

loop_
_atom_site_label
_atom_site_type_symbol
_atom_type_description
_atom_site_fract_x
_atom_site_fract_y
_atom_site_fract_z
_atom_type_partial_charge
C1    C     C_R   0.726006 0.957434 0.854599 0.527794
C2    C     C_R   0.273991 0.957321 0.145408 0.527193
C3    C     C_R   0.226006 0.457434 0.854599 0.527794
C4    C     C_R   0.773991 0.457321 0.145408 0.527193
C5    C     C_R   0.692705 0.436887 0.040329 0.229151
C6    C     C_R   0.307257 0.437338 0.959785 0.229476
C7    C     C_R   0.192705 0.936887 0.040329 0.229151
C8    C     C_R   0.807257 0.937338 0.959785 0.229476
C9    C     C_R   0.760134 0.427701 0.071310 0.020638
C10   C     C_R   0.239907 0.427762 0.928686 0.020199
C11   C     C_R   0.260134 0.927701 0.071310 0.020638
C12   C     C_R   0.739907 0.927762 0.928686 0.020199
C13   C     C_R   0.819182 0.412592 0.027793 -0.156276
C14   C     C_R   0.180873 0.412038 0.972109 -0.156308
C15   C     C_R   0.319182 0.912592 0.027793 -0.156276
C16   C     C_R   0.680873 0.912038 0.972109 -0.156308
C17   C     C_R   0.812414 0.406645 0.955181 -0.135842
C18   C     C_R   0.187564 0.405990 0.044718 -0.136025
C19   C     C_R   0.312414 0.906645 0.955181 -0.135842
C20   C     C_R   0.687564 0.905990 0.044718 -0.136025
C21   C     C_R   0.746135 0.411912 0.924264 -0.019844
C22   C     C_R   0.253773 0.411698 0.075745 -0.020078
C23   C     C_R   0.246135 0.911912 0.924264 -0.019844
C24   C     C_R   0.753773 0.911698 0.075745 -0.020078
C25   C     C_R   0.562225 0.279709 0.519025 0.236261
C26   C     C_R   0.545764 0.274739 0.446312 0.227012
C27   C     C_R   0.062225 0.779709 0.519025 0.236261
C28   C     C_R   0.045764 0.774739 0.446312 0.227012
C29   C     C_R   0.514881 0.167051 0.418224 0.029086
C30   C     C_R   0.552170 0.173646 0.560939 0.027269
C31   C     C_R   0.014881 0.667051 0.418224 0.029086
C32   C     C_R   0.052170 0.673646 0.560939 0.027269
C33   C     C_R   0.511083 0.059488 0.458978 -0.204339
C34   C     C_R   0.530120 0.062554 0.529868 -0.201625
C35   C     C_R   0.011083 0.559488 0.458978 -0.204339
C36   C     C_R   0.030121 0.562554 0.529868 -0.201625
C37   C     C_R   0.773463 0.297045 0.526584 -0.120566
C38   C     C_R   0.187685 0.380798 0.458904 -0.141543
C39   C     C_R   0.273464 0.797045 0.526584 -0.120567
C40   C     C_R   0.687685 0.880799 0.458904 -0.141543
C41   C     C_R   0.777445 0.315254 0.454209 -0.129861
C42   C     C_R   0.182936 0.386078 0.531506 -0.139099
C43   C     C_R   0.277446 0.815255 0.454209 -0.129861
C44   C     C_R   0.682936 0.886078 0.531506 -0.139099
C45   C     C_R   0.559084 0.182021 0.858430 0.557484
C46   C     C_R   0.440957 0.182000 0.141573 0.555689
C47   C     C_R   0.059084 0.682021 0.858430 0.557484
C48   C     C_R   0.940957 0.682000 0.141573 0.555689
C49   C     C_R   0.755037 0.427011 0.425672 0.055897
C50   C     C_R   0.240028 0.426301 0.572589 0.027128
C51   C     C_R   0.255037 0.927010 0.425671 0.055897
C52   C     C_R   0.740028 0.926301 0.572589 0.027127
C53   C     C_R   0.727792 0.520232 0.470030 -0.120434
C54   C     C_R   0.303068 0.457907 0.539619 -0.150301
C55   C     C_R   0.227791 0.020231 0.470030 -0.120433
C56   C     C_R   0.803068 0.957907 0.539619 -0.150301
C57   C     C_R   0.724529 0.502268 0.543049 -0.120375
C58   C     C_R   0.308821 0.447681 0.466175 -0.143399
C59   C     C_R   0.224528 0.002268 0.543049 -0.120373
C60   C     C_R   0.808821 0.947681 0.466175 -0.143399
C61   C     C_R   0.747465 0.390406 0.571296 0.064033
C62   C     C_R   0.251186 0.407068 0.425740 0.026276
C63   C     C_R   0.247465 0.890406 0.571296 0.064033
C64   C     C_R   0.751186 0.907068 0.425740 0.026276
C65   C     C_R   0.737845 0.364741 0.852669 0.538406
C66   C     C_R   0.262136 0.364592 0.147326 0.537585
C67   C     C_R   0.237844 0.864741 0.852669 0.538406
C68   C     C_R   0.762136 0.864592 0.147326 0.537585
C69   C     C_R   0.726625 0.956934 0.646391 0.537226
C70   C     C_R   0.272735 0.957207 0.353184 0.555819
C71   C     C_R   0.226625 0.456934 0.646391 0.537226
C72   C     C_R   0.772735 0.457207 0.353184 0.555819
C73   C     C_R   0.564451 0.180694 0.637307 0.603564
C74   C     C_R   0.473367 0.175916 0.353394 0.589340
C75   C     C_R   0.064451 0.680694 0.637307 0.603564
C76   C     C_R   0.973367 0.675916 0.353394 0.589339
C77   C     C_R   0.739034 0.360410 0.645594 0.546408
C78   C     C_R   0.260956 0.362520 0.353809 0.541910
C79   C     C_R   0.239034 0.860410 0.645594 0.546408
C80   C     C_R   0.760956 0.862520 0.353809 0.541910
C81   C     C_2   0.536466 0.177611 0.932032 -0.093131
C82   C     C_2   0.463555 0.177476 0.067972 -0.092145
C83   C     C_2   0.036466 0.677611 0.932032 -0.093131
C84   C     C_2   0.963554 0.677476 0.067972 -0.092145
C85   C     C_2   0.487842 0.074507 0.036917 -0.165750
C86   C     C_2   0.512475 0.074559 0.963039 -0.165497
C87   C     C_2   0.987842 0.574507 0.036917 -0.165750
C88   C     C_2   0.012475 0.574559 0.963039 -0.165497
C89   C     C_R   0.686678 0.431313 0.966641 -0.072923
C90   C     C_R   0.313208 0.431624 0.033476 -0.072886
C91   C     C_R   0.186678 0.931313 0.966641 -0.072923
C92   C     C_R   0.813208 0.931624 0.033476 -0.072886
Cr1   Cr    Cr6+3 0.769270 0.163730 0.750710 1.032835
Cr2   Cr    Cr6+3 0.230730 0.163730 0.249290 1.048881
Cr3   Cr    Cr6+3 0.269270 0.663730 0.750710 1.032835
Cr4   Cr    Cr6+3 0.730730 0.663730 0.249290 1.048881
Cr5   Cr    Cr6+3 0.612620 0.009790 0.748780 1.016968
Cr6   Cr    Cr6+3 0.387380 0.009790 0.251220 1.020338
Cr7   Cr    Cr6+3 0.112620 0.509790 0.748780 1.016968
Cr8   Cr    Cr6+3 0.887380 0.509790 0.251220 1.020338
Cr9   Cr    Cr6+3 0.614160 0.322500 0.747710 1.056014
Cr10  Cr    Cr6+3 0.385840 0.322500 0.252290 1.041826
Cr11  Cr    Cr6+3 0.114160 0.822500 0.747710 1.056013
Cr12  Cr    Cr6+3 0.885840 0.822500 0.252290 1.041825
H1    H     H_    0.488980 0.987485 0.065484 0.145496
H2    H     H_    0.511564 0.987512 0.934416 0.145907
H3    H     H_    0.988980 0.487485 0.065484 0.145496
H4    H     H_    0.011564 0.487512 0.934416 0.145907
H5    H     H_    0.799505 0.243614 0.420804 0.124299
H6    H     H_    0.133173 0.361878 0.555010 0.136375
H7    H     H_    0.299507 0.743614 0.420804 0.124299
H8    H     H_    0.633173 0.861878 0.555010 0.136376
H9    H     H_    0.711861 0.608729 0.448647 0.139069
H10   H     H_    0.347213 0.491248 0.570346 0.132844
H11   H     H_    0.211860 0.108727 0.448647 0.139069
H12   H     H_    0.847213 0.991248 0.570346 0.132844
H13   H     H_    0.703721 0.574184 0.577042 0.125881
H14   H     H_    0.358823 0.466869 0.441565 0.134468
H15   H     H_    0.203720 0.074183 0.577041 0.125881
H16   H     H_    0.858823 0.966869 0.441565 0.134468
H17   H     H_    0.871515 0.407489 0.049702 0.145629
H18   H     H_    0.128590 0.406508 0.950136 0.145624
H19   H     H_    0.371515 0.907489 0.049702 0.145629
H20   H     H_    0.628590 0.906508 0.950136 0.145624
H21   H     H_    0.858892 0.391529 0.923408 0.151681
H22   H     H_    0.141095 0.390470 0.076388 0.151167
H23   H     H_    0.358892 0.891529 0.923408 0.151681
H24   H     H_    0.641095 0.890470 0.076388 0.151167
H25   H     H_    0.488374 0.975573 0.437711 0.147869
H26   H     H_    0.523229 0.979738 0.561230 0.148311
H27   H     H_    0.988374 0.475573 0.437711 0.147869
H28   H     H_    0.023229 0.479738 0.561230 0.148311
H29   H     H_    0.790299 0.209123 0.547763 0.137269
H30   H     H_    0.142470 0.349001 0.429190 0.136596
H31   H     H_    0.290300 0.709124 0.547763 0.137269
H32   H     H_    0.642470 0.849001 0.429190 0.136596
O1    O     O_R   0.784320 0.290430 0.830510 -0.497269
O2    O     O_R   0.215680 0.290430 0.169490 -0.499480
O3    O     O_R   0.284320 0.790430 0.830510 -0.497269
O4    O     O_R   0.715680 0.790430 0.169490 -0.499480
O5    O     O_R   0.554640 0.080370 0.673500 -0.515471
O6    O     O_R   0.445360 0.080370 0.326500 -0.512878
O7    O     O_R   0.054640 0.580370 0.673500 -0.515471
O8    O     O_R   0.945360 0.580370 0.326500 -0.512877
O9    O     O_R   0.543920 0.282180 0.666790 -0.447794
O10   O     O_R   0.456080 0.282180 0.333210 -0.470117
O11   O     O_R   0.043920 0.782180 0.666790 -0.447794
O12   O     O_R   0.956080 0.782180 0.333210 -0.470118
O13   O     O_R   0.679040 0.374160 0.674430 -0.476484
O14   O     O_R   0.320960 0.374160 0.325570 -0.507682
O15   O     O_R   0.179040 0.874160 0.674430 -0.476484
O16   O     O_R   0.820960 0.874160 0.325570 -0.507682
O17   O     O_3   0.665350 0.165340 0.749070 -0.299253
O18   O     O_3   0.334650 0.165340 0.250930 -0.276005
O19   O     O_3   0.165350 0.665340 0.749070 -0.299253
O20   O     O_3   0.834650 0.665340 0.250930 -0.276005
O21   O     O_R   0.762640 0.040960 0.825200 -0.482061
O22   O     O_R   0.237360 0.040960 0.174800 -0.482462
O23   O     O_R   0.262640 0.540960 0.825200 -0.482061
O24   O     O_R   0.737360 0.540960 0.174800 -0.482462
O25   O     O_R   0.667400 0.923970 0.829950 -0.527784
O26   O     O_R   0.332600 0.923970 0.170050 -0.530005
O27   O     O_R   0.167400 0.423970 0.829950 -0.527784
O28   O     O_R   0.832600 0.423970 0.170050 -0.530005
O29   O     O_R   0.553960 0.081340 0.821780 -0.490488
O30   O     O_R   0.446040 0.081340 0.178220 -0.498227
O31   O     O_R   0.053960 0.581340 0.821780 -0.490488
O32   O     O_R   0.946040 0.581340 0.178220 -0.498227
O33   O     O_R   0.543180 0.283240 0.826740 -0.494880
O34   O     O_R   0.456820 0.283240 0.173260 -0.492010
O35   O     O_R   0.043180 0.783240 0.826740 -0.494880
O36   O     O_R   0.956820 0.783240 0.173260 -0.492010
O37   O     O_R   0.678360 0.375140 0.822710 -0.527482
O38   O     O_R   0.321640 0.375140 0.177290 -0.525277
O39   O     O_R   0.178360 0.875140 0.822710 -0.527482
O40   O     O_R   0.821640 0.875140 0.177290 -0.525277
O41   O     O_R   0.785050 0.289380 0.670560 -0.527782
O42   O     O_R   0.214950 0.289380 0.329440 -0.524821
O43   O     O_R   0.285050 0.789380 0.670560 -0.527782
O44   O     O_R   0.714950 0.789380 0.329440 -0.524820
O45   O     O_R   0.763320 0.039990 0.676930 -0.505600
O46   O     O_R   0.236680 0.039990 0.323070 -0.490971
O47   O     O_R   0.263320 0.539990 0.676930 -0.505600
O48   O     O_R   0.736680 0.539990 0.323070 -0.490971
O49   O     O_R   0.668130 0.922920 0.670000 -0.531748
O50   O     O_R   0.331870 0.922920 0.330000 -0.522601
O51   O     O_R   0.168130 0.422920 0.670000 -0.531748
O52   O     O_R   0.831870 0.422920 0.330000 -0.522601
H33   H     H_    0.458988 0.263302 0.038710 0.129601
H34   H     H_    0.540803 0.263492 0.961335 0.129553
H35   H     H_    0.958988 0.763302 0.038710 0.129601
H36   H     H_    0.040803 0.763492 0.961335 0.129553
H37   H     H_    0.634817 0.432689 0.943164 0.154942
H38   H     H_    0.365032 0.433340 0.057024 0.155424
H39   H     H_    0.134817 0.932689 0.943164 0.154942
H40   H     H_    0.865032 0.933340 0.057024 0.155424
O53   O     O_3   0.631931 0.447030 0.079400 -0.687434
H41   H     H_    0.640941 0.416943 0.128221 0.340696
O54   O     O_3   0.368045 0.447978 0.920822 -0.688215
H42   H     H_    0.359253 0.417649 0.871992 0.338332
O55   O     O_3   0.131931 0.947030 0.079400 -0.687433
H43   H     H_    0.140941 0.916943 0.128221 0.340695
O56   O     O_3   0.868045 0.947978 0.920822 -0.688215
H44   H     H_    0.859253 0.917649 0.871992 0.338332
O57   O     O_3   0.586193 0.386344 0.551287 -0.689603
H45   H     H_    0.588131 0.455017 0.516968 0.329621
O58   O     O_3   0.557393 0.374662 0.402603 -0.685909
H46   H     H_    0.528860 0.443848 0.421427 0.311680
O59   O     O_3   0.086193 0.886344 0.551287 -0.689603
H47   H     H_    0.088129 0.955018 0.516968 0.329620
O60   O     O_3   0.057394 0.874662 0.402603 -0.685909
H48   H     H_    0.028859 0.943847 0.421427 0.311680

loop_
_geom_bond_atom_site_label_1
_geom_bond_atom_site_label_2
_ccdc_geom_bond_type
C58   C62   A    
C3    O23   A    
O56   H44   S    
Cr6   O18   S    
Cr10  O34   S    
C18   H22   S    
C14   H18   S    
C55   C59   A    
O55   H43   S    
C14   C18   A    
Cr9   O37   S    
C26   O58   S    
C84   C87   D    
C58   H14   S    
C87   C88   S    
C17   H21   S    
C2    O26   A    
C32   C75   S    
Cr7   O51   S    
C13   H17   S    
C68   O40   A    
Cr11  O11   S    
Cr12  O40   S    
C73   O5    A    
O57   H45   S    
C28   O60   S    
C15   C19   A    
C40   H32   S    
Cr9   O9    S    
C50   C54   A    
C15   H19   S    
C37   C41   A    
Cr3   O23   S    
C80   O44   A    
C57   H13   S    
Cr8   O52   S    
C74   O10   A    
C38   C42   A    
C36   H28   S    
C6    O54   S    
C88   H4    S    
C49   C53   A    
C29   C33   A    
C27   O59   S    
C47   O31   A    
C84   H35   S    
Cr2   O42   S    
C23   C67   S    
C57   C61   A    
C9    C13   A    
C72   O52   A    
C52   C69   S    
C46   C82   S    
Cr1   O45   S    
C70   O46   A    
C22   C66   S    
C35   C36   A    
C61   C77   S    
C49   C72   S    
Cr7   O19   S    
C4    O28   A    
Cr9   O33   S    
C8    C92   A    
C51   C70   S    
Cr5   O17   S    
C8    C12   A    
C67   O3    A    
Cr10  O18   S    
C51   C55   A    
C81   C86   D    
C16   C20   A    
Cr12  O36   S    
C65   O1    A    
Cr8   O20   S    
C83   C88   D    
C74   O6    A    
C7    C91   A    
O54   H42   S    
Cr2   O22   S    
C48   O36   A    
Cr6   O6    S    
Cr11  O35   S    
C64   C80   S    
C86   H2    S    
C1    C12   S    
C11   C15   A    
Cr4   O48   S    
C85   H1    S    
C2    C11   S    
C24   C92   A    
C41   C49   A    
Cr6   O26   S    
C53   H9    S    
C7    C11   A    
Cr7   O31   S    
C28   C31   A    
C22   C90   A    
C30   C34   A    
C52   C56   A    
O58   H46   S    
C12   C16   A    
C83   H36   S    
Cr1   O1    S    
C72   O48   A    
O59   H47   S    
C10   C14   A    
C67   O39   A    
C30   C73   S    
C53   C57   A    
C19   C23   A    
C25   C30   A    
C34   H26   S    
C63   C79   S    
C29   C74   S    
C75   O11   A    
C25   C26   A    
C85   C86   S    
C24   C68   S    
Cr1   O17   S    
C77   O41   A    
C48   C84   S    
C73   O9    A    
Cr2   O46   S    
Cr5   O49   S    
C50   C71   S    
C5    C9    A    
C65   O37   A    
C71   O47   A    
C91   H39   S    
C37   C61   A    
O60   H48   S    
C66   O2    A    
Cr9   O17   S    
Cr2   O18   S    
C89   H37   S    
Cr11  O39   S    
C33   C34   A    
C56   H12   S    
C87   H3    S    
C1    O21   A    
Cr8   O28   S    
Cr4   O44   S    
Cr1   O21   S    
C39   H31   S    
Cr5   O5    S    
Cr8   O32   S    
Cr6   O30   S    
C75   O7    A    
Cr10  O14   S    
Cr7   O27   S    
C76   O8    A    
Cr3   O43   S    
Cr4   O24   S    
C42   C50   A    
Cr5   O25   S    
C82   H33   S    
Cr8   O8    S    
Cr2   O2    S    
C5    O53   S    
C23   C91   A    
Cr12  O20   S    
C77   O13   A    
C69   O49   A    
C78   O14   A    
C79   O15   A    
C54   C58   A    
C33   H25   S    
C90   H38   S    
C80   O16   A    
C59   H15   S    
C46   O30   A    
C21   C65   S    
C27   C32   A    
C78   O42   A    
C59   C63   A    
C62   C78   S    
C8    O56   S    
C45   C81   S    
C21   C89   A    
C71   O51   A    
C92   H40   S    
C45   O33   A    
C44   C52   A    
Cr4   O4    S    
C47   O35   A    
C32   C36   A    
C20   H24   S    
Cr11  O15   S    
Cr10  O38   S    
C82   C85   D    
C39   C63   A    
C44   H8    S    
Cr3   O3    S    
C40   C64   A    
C13   C17   A    
C60   C64   A    
C3    O27   A    
Cr12  O16   S    
C18   C22   A    
C42   H6    S    
C35   H27   S    
Cr12  O12   S    
Cr6   O50   S    
C3    C10   S    
C6    C90   A    
Cr10  O10   S    
C4    O24   A    
Cr3   O47   S    
C31   C76   S    
Cr4   O20   S    
C55   H11   S    
C43   C51   A    
Cr5   O29   S    
C54   H10   S    
C31   C35   A    
Cr9   O13   S    
C25   O57   S    
C60   H16   S    
Cr3   O19   S    
C38   H30   S    
C16   H20   S    
O53   H41   S    
C37   H29   S    
C17   C21   A    
C81   H34   S    
C68   O4    A    
C6    C10   A    
C70   O50   A    
Cr7   O7    S    
C1    O25   A    
C47   C83   S    
C43   H7    S    
C46   O34   A    
C40   C44   A    
C79   O43   A    
C56   C60   A    
C2    O22   A    
C76   O12   A    
C26   C29   A    
C7    O55   S    
C39   C43   A    
C27   C28   A    
C66   O38   A    
C41   H5    S    
C19   H23   S    
Cr1   O41   S    
C4    C9    S    
C45   O29   A    
C48   O32   A    
C20   C24   A    
C5    C89   A    
Cr11  O19   S    
C69   O45   A    
C38   C62   A    
