data_mof_unit_51931.cif
_audit_creation_date              2013-03-05T16:52:29-0500
_audit_creation_method            fapswitch 2.2
_symmetry_space_group_name_H-M    P1
_symmetry_Int_Tables_number       1
_space_group_crystal_system       triclinic
_cell_length_a                    15.834014
_cell_length_b                    15.064535
_cell_length_c                    27.680914
_cell_angle_alpha                 89.992264
_cell_angle_beta                  89.429538
_cell_angle_gamma                 90.291365
_cell_volume                      6602.37263608

loop_
_atom_site_label
_atom_site_type_symbol
_atom_site_description
_atom_site_fract_x
_atom_site_fract_y
_atom_site_fract_z
_atom_type_partial_charge
O1    O     O_R   0.378020 0.573650 0.500020 -0.609023
O2    O     O_R   0.621980 0.426350 0.499980 -0.606119
O3    O     O_R   0.621980 0.573650 0.499980 -0.609140
O4    O     O_R   0.378020 0.426350 0.500020 -0.607643
C1    C     C_R   0.338898 0.499707 0.500104 0.907241
C2    C     C_R   0.661025 0.500217 0.499872 0.903161
O5    O     O_R   0.500010 0.573660 0.428760 -0.618525
O6    O     O_R   0.499990 0.426340 0.571240 -0.618018
O7    O     O_R   0.499990 0.573660 0.571240 -0.619684
O8    O     O_R   0.500010 0.426340 0.428760 -0.619576
C3    C     C_R   0.500495 0.500001 0.405710 0.872318
C4    C     C_R   0.499706 0.499958 0.594284 0.872645
Zn1   Zn    Zn3+2 0.500000 0.598370 0.500000 0.966586
Zn2   Zn    Zn3+2 0.500000 0.401630 0.500000 0.969437
C5    C     C_R   0.434784 0.519891 0.177768 0.533039
C6    C     C_R   0.571886 0.512045 0.822117 0.532313
O9    O     O_2   0.364809 0.540725 0.203536 -0.563543
O10   O     O_2   0.643097 0.527544 0.796176 -0.566396
N1    N     N_R   0.507989 0.500038 0.200966 -0.358088
N2    N     N_R   0.497215 0.497396 0.799098 -0.357417
C7    C     C_R   0.580256 0.478633 0.176342 0.529688
C8    C     C_R   0.423797 0.480970 0.823961 0.529876
C9    C     C_R   0.504147 0.419542 0.277360 -0.107072
C10   C     C_R   0.487985 0.418629 0.722321 -0.105761
C11   C     C_R   0.501371 0.419370 0.327532 -0.219832
C12   C     C_R   0.489069 0.419152 0.672155 -0.225731
C13   C     C_R   0.507536 0.580631 0.327598 -0.225186
C14   C     C_R   0.506409 0.579564 0.672687 -0.220217
C15   C     C_R   0.509989 0.580587 0.277418 -0.109314
C16   C     C_R   0.505371 0.578814 0.722889 -0.108268
C17   C     C_R   0.508247 0.500077 0.252381 0.321538
C18   C     C_R   0.496260 0.498380 0.747653 0.317653
C19   C     C_R   0.505754 0.495819 0.101201 -0.064046
C20   C     C_R   0.499848 0.493626 0.898897 -0.064232
C21   C     C_R   0.432126 0.517941 0.127364 -0.084698
C22   C     C_R   0.574711 0.510388 0.872531 -0.083689
C23   C     C_R   0.358422 0.539885 0.102750 -0.248961
C24   C     C_R   0.649887 0.527797 0.896949 -0.249304
C25   C     C_R   0.580666 0.476318 0.125729 -0.045962
C26   C     C_R   0.423612 0.478844 0.874567 -0.045879
C27   C     C_R   0.502855 0.500003 0.352963 -0.039535
C28   C     C_R   0.498489 0.499624 0.647026 -0.040458
H1    H     H_    0.509405 0.643507 0.346487 0.166142
H2    H     H_    0.513824 0.642392 0.654047 0.157219
H3    H     H_    0.512989 0.642878 0.257928 0.130116
H4    H     H_    0.511896 0.640491 0.742626 0.134018
H5    H     H_    0.302656 0.561915 0.122233 0.204331
H6    H     H_    0.706970 0.545758 0.877281 0.204166
C29   C     C_R   0.424560 0.485598 0.975989 -0.014655
C30   C     C_R   0.580479 0.481281 0.024219 -0.014605
C31   C     C_R   0.579401 0.498331 0.973897 -0.041764
C32   C     C_R   0.426830 0.503994 0.026128 -0.041847
C33   C     C_R   0.501254 0.492177 0.949607 -0.067947
C34   C     C_R   0.504378 0.493449 0.050505 -0.067742
C35   C     C_R   0.349467 0.459411 0.952044 0.523044
C36   C     C_R   0.653653 0.451022 0.048448 0.522878
C37   C     C_R   0.349712 0.459614 0.900909 -0.334179
C38   C     C_R   0.653191 0.452010 0.099591 -0.333953
O11   O     O_2   0.351371 0.467208 0.799694 -0.568020
O12   O     O_2   0.651238 0.459842 0.200855 -0.568515
C39   C     C_R   0.356081 0.536799 0.052515 0.545258
C40   C     C_R   0.652168 0.525750 0.947209 0.545569
H7    H     H_    0.482335 0.356797 0.653098 0.168119
H8    H     H_    0.497859 0.356359 0.346317 0.156925
H9    H     H_    0.481256 0.356374 0.741582 0.135575
H10   H     H_    0.502346 0.357318 0.257802 0.134499
H11   H     H_    0.293304 0.444841 0.880884 0.193640
H12   H     H_    0.708335 0.433835 0.119796 0.193652
C41   C     C_R   0.957277 0.578476 0.487399 0.348986
C42   C     C_R   0.042352 0.417962 0.505122 0.350247
C43   C     C_R   0.044859 0.578808 0.491222 0.352800
C44   C     C_R   0.954361 0.419765 0.506734 0.323196
C45   C     C_R   0.912796 0.499520 0.496892 -0.234337
C46   C     C_R   0.086803 0.498069 0.498639 -0.240954
C47   C     C_1   0.823899 0.500537 0.497787 0.102097
C48   C     C_1   0.175808 0.497832 0.499377 0.094907
C49   C     C_1   0.250603 0.498733 0.499811 -0.198500
C50   C     C_1   0.749182 0.500667 0.498814 -0.196159
C51   C     C_R   0.459549 0.952712 0.462485 0.061409
C52   C     C_R   0.543751 0.047662 0.536810 0.065155
C53   C     C_R   0.541135 0.952617 0.537567 0.067204
C54   C     C_R   0.463286 0.047648 0.461362 0.064742
C55   C     C_R   0.499765 0.905246 0.500130 -0.036621
C56   C     C_R   0.502917 0.094951 0.499365 -0.038106
C57   C     C_1   0.499728 0.807009 0.500018 0.043923
C58   C     C_1   0.501515 0.193065 0.499796 0.050383
N3    N     N_1   0.500000 0.270550 0.500000 -0.095773
N4    N     N_1   0.500000 0.729450 0.500000 -0.096994
C59   C     C_3   0.429833 0.100033 0.418465 -0.411483
C60   C     C_3   0.342093 0.138772 0.429040 -0.344303
C61   C     C_3   0.315548 0.201830 0.388835 -0.872030
H13   H     H_    0.362236 0.256700 0.384744 0.266148
H14   H     H_    0.310404 0.165440 0.354085 0.263679
H15   H     H_    0.253380 0.231319 0.397889 0.247144
H16   H     H_    0.294961 0.084161 0.432313 0.212112
H17   H     H_    0.342126 0.176034 0.463657 0.229601
H18   H     H_    0.474983 0.154443 0.409384 0.203272
H19   H     H_    0.427695 0.059724 0.385038 0.200796
C62   C     C_3   0.581247 0.900325 0.578495 -0.422855
C63   C     C_3   0.670753 0.870509 0.564543 -0.337259
C64   C     C_3   0.710279 0.815802 0.604739 -0.849455
H20   H     H_    0.714689 0.855750 0.638356 0.256591
H21   H     H_    0.671834 0.755243 0.611966 0.264416
H22   H     H_    0.774865 0.795261 0.593616 0.256352
H23   H     H_    0.668864 0.829535 0.531183 0.232397
H24   H     H_    0.711330 0.929460 0.557170 0.215096
H25   H     H_    0.582565 0.938793 0.612594 0.201769
H26   H     H_    0.541745 0.841370 0.587637 0.202595
C65   C     C_3   0.592165 0.099925 0.574880 -0.417745
C66   C     C_3   0.533453 0.129133 0.616266 -0.336375
C67   C     C_3   0.581784 0.181007 0.654527 -0.880269
H27   H     H_    0.631987 0.139076 0.670306 0.263180
H28   H     H_    0.610826 0.241567 0.638407 0.270703
H29   H     H_    0.537742 0.201354 0.683912 0.247828
H30   H     H_    0.482481 0.171925 0.601969 0.227944
H31   H     H_    0.503528 0.070052 0.633468 0.217627
H32   H     H_    0.645938 0.061578 0.589220 0.200549
H33   H     H_    0.622732 0.159258 0.558279 0.204811
C68   C     C_3   0.410810 0.901023 0.424410 -0.409082
C69   C     C_3   0.469508 0.869666 0.383469 -0.348613
C70   C     C_3   0.420026 0.821619 0.344242 -0.864518
H34   H     H_    0.387518 0.762258 0.359519 0.270075
H35   H     H_    0.372454 0.866683 0.328333 0.263556
H36   H     H_    0.463969 0.799806 0.315125 0.244246
H37   H     H_    0.503051 0.927342 0.367039 0.217482
H38   H     H_    0.517698 0.823719 0.398019 0.226427
H39   H     H_    0.378664 0.842730 0.441138 0.204939
H40   H     H_    0.358277 0.940823 0.409678 0.201383
O13   O     O_3   0.282961 0.426652 0.980891 -0.611959
C71   C     C_3   0.207532 0.403318 0.956970 0.120821
H41   H     H_    0.169898 0.361874 0.982558 0.167177
H42   H     H_    0.218494 0.359388 0.925329 0.117738
C72   C     C_3   0.154721 0.485709 0.945391 -0.358276
H43   H     H_    0.139890 0.521605 0.979486 0.257246
H44   H     H_    0.190530 0.531714 0.921392 0.213005
C73   C     C_3   0.072172 0.460101 0.920968 -0.939530
H45   H     H_    0.085306 0.425141 0.886391 0.272186
H46   H     H_    0.035291 0.520864 0.913202 0.272153
H47   H     H_    0.033780 0.416319 0.944991 0.263811
O14   O     O_3   0.717914 0.413483 0.019938 -0.611913
C74   C     C_3   0.792176 0.387498 0.044024 0.122151
H48   H     H_    0.827737 0.343920 0.018732 0.166997
H49   H     H_    0.779070 0.344750 0.075943 0.117872
C75   C     C_3   0.849028 0.467726 0.055074 -0.359788
H50   H     H_    0.865970 0.501966 0.020729 0.257454
H51   H     H_    0.815435 0.515942 0.078591 0.213051
C76   C     C_3   0.929971 0.439087 0.079963 -0.941311
H52   H     H_    0.914798 0.405784 0.114812 0.272327
H53   H     H_    0.969867 0.498311 0.087291 0.273537
H54   H     H_    0.966246 0.392904 0.056448 0.262050
O15   O     O_3   0.284839 0.569558 0.030169 -0.622604
C77   C     C_3   0.302546 0.653527 0.009272 0.050990
H55   H     H_    0.259735 0.661776 0.978057 0.166415
H56   H     H_    0.368144 0.659845 0.994527 0.119812
C78   C     C_3   0.284847 0.727836 0.045708 -0.364448
H57   H     H_    0.219072 0.721297 0.059713 0.236436
H58   H     H_    0.328784 0.722221 0.076588 0.217625
C79   C     C_3   0.296231 0.819107 0.022582 -0.937233
H59   H     H_    0.362032 0.827496 0.008976 0.263077
H60   H     H_    0.283236 0.871436 0.049866 0.268301
H61   H     H_    0.251708 0.827298 0.992160 0.263765
O16   O     O_3   0.725473 0.554571 0.969270 -0.622926
C80   C     C_3   0.713539 0.640221 0.989232 0.050108
H62   H     H_    0.756459 0.646613 0.020554 0.165946
H63   H     H_    0.648381 0.651476 0.003612 0.119818
C81   C     C_3   0.736928 0.711901 0.952120 -0.363517
H64   H     H_    0.802217 0.700409 0.938467 0.236117
H65   H     H_    0.693034 0.708270 0.921114 0.217561
C82   C     C_3   0.731887 0.804485 0.974263 -0.938120
H66   H     H_    0.666712 0.817809 0.987504 0.263148
H67   H     H_    0.748900 0.854873 0.946502 0.268126
H68   H     H_    0.776563 0.810627 0.004784 0.263705
O17   O     O_3   0.089441 0.656963 0.483391 -0.625682
C83   C     C_3   0.114561 0.694062 0.528049 0.112387
H69   H     H_    0.176254 0.727891 0.521875 0.164160
H70   H     H_    0.125117 0.643755 0.556983 0.119540
C84   C     C_3   0.050167 0.762919 0.545377 -0.320420
H71   H     H_    0.037962 0.811090 0.515856 0.238197
H72   H     H_    0.989833 0.729131 0.555055 0.243777
C85   C     C_3   0.081850 0.813093 0.589574 -0.981424
H73   H     H_    0.093645 0.766208 0.619719 0.270218
H74   H     H_    0.033491 0.861760 0.601483 0.272176
H75   H     H_    0.141141 0.849556 0.580658 0.266524
O18   O     O_3   0.908865 0.342014 0.513469 -0.628821
C86   C     C_3   0.893116 0.329988 0.563302 0.127683
H76   H     H_    0.859368 0.388264 0.578947 0.132260
H77   H     H_    0.953530 0.320044 0.582848 0.167591
C87   C     C_3   0.837543 0.247565 0.570093 -0.336531
H78   H     H_    0.777875 0.255987 0.549770 0.230287
H79   H     H_    0.871083 0.188622 0.555405 0.223804
C88   C     C_3   0.816154 0.231544 0.623248 -0.970938
H80   H     H_    0.874826 0.223001 0.644388 0.271463
H81   H     H_    0.777296 0.170283 0.626790 0.266977
H82   H     H_    0.779636 0.288230 0.638165 0.272240
O19   O     O_3   0.915237 0.657368 0.479091 -0.628684
C89   C     C_3   0.889008 0.661534 0.430384 0.105984
H83   H     H_    0.828797 0.699057 0.429722 0.162137
H84   H     H_    0.875300 0.595261 0.414075 0.121718
C90   C     C_3   0.954759 0.711232 0.399579 -0.318980
H85   H     H_    0.969364 0.776276 0.416621 0.237036
H86   H     H_    0.013778 0.671828 0.397471 0.245822
C91   C     C_3   0.922955 0.726915 0.348442 -0.968595
H87   H     H_    0.909011 0.662587 0.330512 0.272241
H88   H     H_    0.972157 0.762495 0.326996 0.273466
H89   H     H_    0.864884 0.767979 0.349337 0.264561
O20   O     O_3   0.084289 0.339547 0.514797 -0.620508
C92   C     C_3   0.110174 0.298571 0.471079 0.108747
H90   H     H_    0.169310 0.261893 0.478617 0.166539
H91   H     H_    0.125824 0.346724 0.441606 0.116339
C93   C     C_3   0.043032 0.232196 0.454052 -0.313219
H92   H     H_    0.023110 0.189094 0.484760 0.243498
H93   H     H_    0.987031 0.268815 0.440984 0.245887
C94   C     C_3   0.076120 0.173903 0.413050 -0.995675
H94   H     H_    0.096158 0.215534 0.381817 0.270907
H95   H     H_    0.025323 0.128043 0.401123 0.275004
H96   H     H_    0.130340 0.133694 0.425485 0.268970

loop_
_geom_bond_atom_site_label_1
_geom_bond_atom_site_label_2
_geom_bond_distance
_ccdc_geom_bond_type
C79   H60   1.110348 S    
C64   H20   1.110848 S    
C52   C53   1.432332 A    
C13   C15   1.389196 A    
C82   H67   1.110348 S    
C82   H66   1.110946 S    
C71   H42   1.110627 S    
C67   H27   1.110691 S    
C76   H52   1.110854 S    
C52   C56   1.420462 A    
O3    C2    1.270005 A    
N1    C17   1.423261 S    
C10   C18   1.397395 A    
C86   H76   1.115378 S    
C65   H32   1.108096 S    
C60   H16   1.111021 S    
C40   O16   1.384816 S    
C94   H94   1.110783 S    
C69   C70   1.525835 S    
O5    C3    1.280092 A    
C62   H26   1.111388 S    
C94   H96   1.110660 S    
C63   H23   1.111361 S    
C19   C25   1.404917 A    
C54   C59   1.526376 S    
C91   H88   1.110460 S    
C87   C88   1.525471 S    
C20   C26   1.404926 A    
C9    H10   1.082936 S    
C80   H63   1.115917 S    
C56   C58   1.478372 S    
Zn2   N3    1.974661 S    
O16   C80   1.416489 S    
C32   C39   1.422009 A    
C75   C76   1.525312 S    
C36   O14   1.402833 S    
C69   H38   1.111293 S    
C86   H77   1.114446 S    
C78   H58   1.110969 S    
C90   C91   1.525910 S    
C41   O19   1.385448 S    
O18   C86   1.410838 S    
C87   H79   1.111941 S    
C14   C28   1.403908 A    
C41   C43   1.391831 A    
O7    Zn1   2.006761 S    
C66   C67   1.525870 S    
C70   H36   1.110392 S    
C4    C28   1.459884 S    
C79   H61   1.110865 S    
C83   H69   1.111185 S    
C80   H62   1.110828 S    
C32   C34   1.416584 A    
C84   H72   1.110603 S    
C91   H89   1.110909 S    
C51   C68   1.524154 S    
C52   C65   1.525850 S    
C42   C46   1.404526 A    
C92   C93   1.533465 S    
O15   C77   1.416439 S    
C41   C45   1.402703 A    
C43   C46   1.404804 A    
C23   H5    1.083614 S    
C24   H6    1.083615 S    
O3    Zn1   1.968858 S    
C85   H75   1.110915 S    
C6    N2    1.365668 A    
C68   H40   1.108804 S    
C29   C32   1.416108 A    
C90   H85   1.111797 S    
C64   H21   1.111181 S    
C43   O17   1.385623 S    
C78   C79   1.525692 S    
C81   H65   1.110957 S    
C45   C47   1.407727 S    
C81   H64   1.111567 S    
O2    C2    1.270219 A    
C31   C40   1.421975 A    
C37   H11   1.078158 S    
C89   C90   1.531588 S    
C5    C21   1.396599 A    
C53   C55   1.421707 A    
C85   H74   1.110513 S    
C65   H33   1.111486 S    
C94   H95   1.110364 S    
C91   H87   1.111002 S    
C92   H90   1.111179 S    
C16   C18   1.398181 A    
C80   C81   1.531840 S    
C48   C49   1.184498 T    
C44   O18   1.383584 S    
C7    O12   1.349868 S    
C75   H51   1.109707 S    
O8    Zn2   2.006766 S    
C74   C75   1.535944 S    
C11   C27   1.404226 A    
C61   H13   1.111167 S    
O20   C92   1.416468 S    
C89   H83   1.111148 S    
C86   C87   1.528692 S    
C53   C62   1.525338 S    
C35   O13   1.402824 S    
O17   C83   1.416494 S    
C25   C38   1.401464 A    
C14   H2    1.083224 S    
C30   C36   1.421548 A    
C88   H80   1.110880 S    
C59   H18   1.111995 S    
C87   H78   1.112198 S    
C31   C33   1.416759 A    
C11   H8    1.083168 S    
C73   H47   1.111092 S    
C5    N1    1.365176 A    
C12   H7    1.082715 S    
C88   H81   1.110341 S    
N1    C7    1.366100 A    
O7    C4    1.280373 A    
C61   H14   1.110719 S    
C13   C27   1.404141 A    
C62   C63   1.534628 S    
C7    C25   1.401407 A    
C77   C78   1.531906 S    
O5    Zn1   2.006865 S    
O6    C4    1.279474 A    
C84   C85   1.525885 S    
C8    C26   1.401153 A    
C76   H54   1.111030 S    
C30   C31   1.416710 A    
C67   H28   1.111043 S    
C30   C34   1.414152 A    
O14   C74   1.414442 S    
C39   O15   1.384962 S    
C83   C84   1.531941 S    
C70   H34   1.110998 S    
C46   C48   1.409671 S    
C10   H9    1.082985 S    
C20   C33   1.404257 A    
C72   C73   1.525397 S    
C38   H12   1.078086 S    
C55   C57   1.479896 S    
C77   H56   1.115830 S    
C93   H92   1.111796 S    
C64   H22   1.110555 S    
C54   C56   1.420217 A    
C35   C37   1.415430 A    
C72   H43   1.111448 S    
C82   H68   1.110867 S    
O1    C1    1.271804 A    
C71   C72   1.535685 S    
O1    Zn1   1.965142 S    
C1    C49   1.398179 S    
C66   H31   1.111081 S    
C8    O11   1.349922 S    
C85   H73   1.111003 S    
C12   C28   1.404125 A    
C73   H46   1.110417 S    
C90   H86   1.110691 S    
O13   C71   1.414228 S    
N2    C18   1.424357 S    
C57   N4    1.168426 T    
C21   C23   1.398252 A    
C19   C34   1.404178 A    
C5    O9    1.350102 S    
O6    Zn2   2.006860 S    
C26   C37   1.401557 A    
C76   H53   1.110423 S    
C58   N3    1.167653 T    
C63   H24   1.111153 S    
C16   H4    1.082926 S    
C10   C12   1.388586 A    
N2    C8    1.366533 A    
C44   C45   1.400858 A    
C51   C54   1.431416 A    
C23   C39   1.392196 A    
C68   C69   1.534583 S    
C60   H17   1.110609 S    
C42   O20   1.385476 S    
C93   C94   1.525413 S    
C62   H25   1.107972 S    
C93   H93   1.110293 S    
C59   H19   1.107540 S    
C75   H50   1.111414 S    
C74   H49   1.110537 S    
C71   H41   1.110972 S    
C88   H82   1.111039 S    
C14   C16   1.389631 A    
C15   C17   1.397254 A    
C29   C35   1.421167 A    
C65   C66   1.534071 S    
C6    C22   1.396885 A    
C61   H15   1.108467 S    
C51   C55   1.421359 A    
C60   C61   1.526640 S    
C79   H59   1.110947 S    
C29   C33   1.413833 A    
Zn1   N4    1.974661 S    
C22   C24   1.398370 A    
C63   C64   1.525721 S    
C19   C21   1.407790 A    
C36   C38   1.415709 A    
C3    C27   1.460191 S    
C67   H29   1.110337 S    
C20   C22   1.407558 A    
C9    C11   1.389058 A    
C69   H37   1.110974 S    
O4    Zn2   1.968861 S    
O2    Zn2   1.965139 S    
C47   C50   1.183148 T    
C83   H70   1.116936 S    
C70   H35   1.110821 S    
C89   H84   1.116925 S    
C2    C50   1.395866 S    
O8    C3    1.279905 A    
O19   C89   1.416190 S    
C13   H1    1.082406 S    
O4    C1    1.269599 A    
C77   H55   1.110878 S    
C81   C82   1.525690 S    
C6    O10   1.350077 S    
C84   H71   1.111794 S    
C15   H3    1.082954 S    
C78   H57   1.111551 S    
C92   H91   1.116784 S    
C72   H44   1.109717 S    
C73   H45   1.110849 S    
C42   C44   1.393927 A    
C59   C60   1.535104 S    
C74   H48   1.110944 S    
C66   H30   1.111373 S    
C9    C17   1.397250 A    
C24   C40   1.392431 A    
C68   H39   1.111444 S    
