data_mof_unit_66501.cif
_audit_creation_date              2012-12-10T18:41:47-0500
_audit_creation_method            fapswitch 2.2
_symmetry_space_group_name_H-M    P1
_symmetry_Int_Tables_number       1
_space_group_crystal_system       triclinic
_cell_length_a                    15.143241
_cell_length_b                    13.825338
_cell_length_c                    16.003397
_cell_angle_alpha                 90.000023
_cell_angle_beta                  90.004147
_cell_angle_gamma                 89.999977
_cell_volume                      3350.47799244

loop_
_atom_site_label
_atom_site_type_symbol
_atom_type_description
_atom_site_fract_x
_atom_site_fract_y
_atom_site_fract_z
_atom_type_partial_charge
C1    C     C_R   0.329814 0.500000 0.500012 0.795732
C2    C     C_R   0.670186 0.500000 0.499988 0.795733
C3    C     C_R   0.048557 0.499999 0.500003 0.087901
C4    C     C_R   0.951443 0.499999 0.499998 0.087901
C5    C     C_R   0.442773 0.107339 0.552549 0.312134
C6    C     C_R   0.442771 0.892661 0.447446 0.312133
C7    C     C_R   0.557227 0.107340 0.447450 0.312134
C8    C     C_R   0.557229 0.892661 0.552554 0.312132
C9    C     C_R   0.444021 0.209289 0.551392 0.028007
C10   C     C_R   0.444020 0.790711 0.448603 0.028010
C11   C     C_R   0.555978 0.209289 0.448608 0.028007
C12   C     C_R   0.555981 0.790711 0.551397 0.028005
C13   C     C_R   0.500000 0.054547 0.500000 0.021701
C14   C     C_R   0.500000 0.945453 0.500000 0.021700
C15   C     C_R   0.499974 0.500000 0.341178 0.818078
C16   C     C_R   0.500026 0.500000 0.658822 0.818078
C17   C     C_R   0.500017 0.588288 0.956176 0.312601
C18   C     C_R   0.500004 0.411712 0.043824 0.312601
C19   C     C_R   0.499982 0.588288 0.043824 0.312602
C20   C     C_R   0.499997 0.411712 0.956175 0.312602
C21   C     C_R   0.500014 0.500000 0.912577 -0.198785
C22   C     C_R   0.499986 0.500000 0.087423 -0.198784
C23   C     C_1   0.500023 0.500000 0.822834 0.183678
C24   C     C_1   0.499976 0.500000 0.177166 0.183678
C25   C     C_1   0.499972 0.500000 0.252163 -0.091345
C26   C     C_1   0.500027 0.500000 0.747837 -0.091344
C27   C     C_R   0.095219 0.582738 0.525249 -0.131505
C28   C     C_R   0.904782 0.417255 0.525227 -0.131508
C29   C     C_R   0.904781 0.582743 0.474763 -0.131506
C30   C     C_R   0.095218 0.417260 0.474763 -0.131507
C31   C     C_R   0.187007 0.582970 0.524648 -0.146915
C32   C     C_R   0.812995 0.417023 0.524615 -0.146915
C33   C     C_R   0.812993 0.582975 0.475364 -0.146914
C34   C     C_R   0.187006 0.417028 0.475374 -0.146916
C35   C     C_R   0.233384 0.499999 0.500012 -0.048136
C36   C     C_R   0.766616 0.499999 0.499988 -0.048139
Cu1   Cu    Cu3+1 0.500000 0.596430 0.500000 0.997847
Cu2   Cu    Cu3+1 0.500000 0.403570 0.500000 0.997846
H1    H     H_    0.060835 0.646882 0.546428 0.152476
H2    H     H_    0.939167 0.353108 0.546402 0.152477
H3    H     H_    0.939166 0.646890 0.453592 0.152476
H4    H     H_    0.060833 0.353117 0.453579 0.152477
H5    H     H_    0.221634 0.647544 0.544566 0.174102
H6    H     H_    0.778369 0.352446 0.544522 0.174102
H7    H     H_    0.778367 0.647552 0.455455 0.174103
H8    H     H_    0.221631 0.352455 0.455458 0.174100
H9    H     H_    0.399949 0.249229 0.591895 0.177181
H10   H     H_    0.399946 0.750770 0.408097 0.177183
H11   H     H_    0.600050 0.249230 0.408105 0.177181
H12   H     H_    0.600054 0.750771 0.591904 0.177182
N1    N     N_R   0.500000 0.258690 0.500000 -0.232592
N2    N     N_R   0.500000 0.741310 0.500000 -0.232594
O1    O     O_R   0.371460 0.581430 0.500010 -0.584208
O2    O     O_R   0.628540 0.418570 0.499990 -0.584219
O3    O     O_R   0.628540 0.581430 0.499990 -0.584209
O4    O     O_R   0.371460 0.418570 0.500010 -0.584218
O5    O     O_R   0.499980 0.581410 0.380310 -0.563186
O6    O     O_R   0.500020 0.418590 0.619690 -0.563178
O7    O     O_R   0.500020 0.581410 0.619690 -0.563188
O8    O     O_R   0.499980 0.418590 0.380310 -0.563179
Cl1   Cl    Cl    0.499927 0.699137 0.099004 -0.415906
Cl2   Cl    Cl    0.499959 0.300863 0.900996 -0.415905
Cl3   Cl    Cl    0.500071 0.699137 0.900996 -0.415906
Cl4   Cl    Cl    0.500044 0.300863 0.099003 -0.415906
Cl5   Cl    Cl    0.369121 0.048094 0.620430 -0.481815
Cl6   Cl    Cl    0.369114 0.951905 0.379561 -0.481816
Cl7   Cl    Cl    0.630878 0.048095 0.379570 -0.481822
Cl8   Cl    Cl    0.630884 0.951906 0.620441 -0.481816

loop_
_geom_bond_atom_site_label_1
_geom_bond_atom_site_label_2
_ccdc_geom_bond_type
C6    C10   A    
C3    C30   A    
C12   H12   S    
C17   C21   A    
C5    C9    A    
Cu1   Cu2   S    
C34   H8    S    
C6    C14   A    
C33   H7    S    
C15   O8    A    
Cu2   O8    S    
C5    C13   A    
C4    C29   A    
C9    N1    A    
C7    C13   A    
C8    C12   A    
Cu1   O1    S    
C19   C22   A    
C3    C27   A    
C32   H6    S    
C10   N2    A    
C16   O6    A    
C13   C14   S    
C17   Cl3   S    
C20   Cl2   S    
C15   O5    A    
C18   Cl4   S    
Cu1   O7    S    
C31   H5    S    
C19   Cl1   S    
C11   H11   S    
C16   C26   S    
C32   C36   A    
C28   C32   A    
C12   N2    A    
C1    O4    A    
C7    Cl7   S    
C8    Cl8   S    
C31   C35   A    
C2    O3    A    
C21   C23   S    
C10   H10   S    
C22   C24   S    
C15   C25   S    
C9    H9    S    
C11   N1    A    
C28   H2    S    
C27   C31   A    
C3    C4    S    
Cu1   O3    S    
C29   C33   A    
C6    Cl6   S    
C33   C36   A    
Cu2   O4    S    
C24   C25   T    
C1    C35   S    
C18   C20   A    
C5    Cl5   S    
C34   C35   A    
C2    O2    A    
C23   C26   T    
C2    C36   S    
Cu1   N2    S    
C30   C34   A    
C29   H3    S    
C30   H4    S    
C7    C11   A    
C1    O1    A    
Cu2   N1    S    
C8    C14   A    
C17   C19   A    
C20   C21   A    
C18   C22   A    
C4    C28   A    
Cu2   O6    S    
Cu1   O5    S    
C27   H1    S    
C16   O7    A    
Cu2   O2    S    
