data_mof_unit_38464.cif
_audit_creation_date              2012-12-10T17:13:33-0500
_audit_creation_method            fapswitch 2.2
_symmetry_space_group_name_H-M    P1
_symmetry_Int_Tables_number       1
_space_group_crystal_system       triclinic
_cell_length_a                    10.854809
_cell_length_b                    12.992988
_cell_length_c                    11.80793
_cell_angle_alpha                 99.603317
_cell_angle_beta                  93.168891
_cell_angle_gamma                 92.291678
_cell_volume                      1637.45028006

loop_
_atom_site_label
_atom_site_type_symbol
_atom_type_description
_atom_site_fract_x
_atom_site_fract_y
_atom_site_fract_z
_atom_type_partial_charge
C1    C     C_R   0.502213 0.299677 0.478922 0.883204
C2    C     C_3   0.878605 0.500780 0.496166 -0.261776
C3    C     C_3   0.922996 0.574491 0.411071 0.573466
C4    C     C_3   0.932923 0.389012 0.467516 0.219786
C5    C     C_R   0.512968 0.814375 0.534283 -0.095281
C6    C     C_R   0.507540 0.186421 0.467584 -0.117003
C7    C     C_R   0.458632 0.015722 0.355564 -0.102544
C8    C     C_R   0.459749 0.123224 0.365814 -0.155719
C9    C     C_R   0.558760 0.140953 0.558635 0.399476
C10   C     C_R   0.537261 0.032978 0.556994 -0.052663
C11   C     C_R   0.494632 0.970252 0.450518 0.046858
C12   C     C_R   0.261715 0.510414 0.501469 0.917499
C13   C     C_R   0.487201 0.862256 0.439374 -0.102994
C14   C     C_R   0.544554 0.875357 0.641955 -0.154889
C15   C     C_R   0.554776 0.984162 0.655718 0.425355
C16   C     C_R   0.389948 0.388806 0.024503 0.318154
C17   C     C_R   0.398894 0.404135 0.146085 0.469070
C18   C     C_R   0.543995 0.546653 0.154219 0.511930
C19   C     C_R   0.538112 0.534901 0.031959 -0.176119
C20   C     C_R   0.458098 0.457067 0.964660 -0.213553
C21   C     C_R   0.449881 0.453341 0.841676 0.601691
C22   C     C_R   0.604532 0.590550 0.856480 0.509905
C23   C     C_R   0.504441 0.700657 0.521316 0.924252
C24   C     C_R   0.611552 0.600027 0.975912 -0.162958
C25   C     C_R   0.739941 0.496618 0.498697 0.927178
C26   C     C_3   0.078913 0.542217 0.626650 0.128116
C27   C     C_3   0.936362 0.548681 0.619499 -0.524120
C28   C     C_3   0.066494 0.595922 0.429013 0.171661
C29   C     C_3   0.072034 0.402593 0.449881 -0.451369
C30   C     C_3   0.124188 0.514834 0.501220 -0.256026
Cu1   Cu    Cu3+1 0.509350 0.507730 0.615930 1.127080
Cu2   Cu    Cu3+1 0.490650 0.492270 0.384070 1.137598
H1    H     H_    0.460333 0.815678 0.356224 0.194858
H2    H     H_    0.559175 0.838057 0.716588 0.243634
H3    H     H_    0.424449 0.968091 0.274799 0.177537
H4    H     H_    0.424504 0.156674 0.293361 0.225946
H5    H     H_    0.100604 0.475905 0.671988 0.178128
H6    H     H_    0.676744 0.658720 0.023520 0.247075
H7    H     H_    0.899274 0.506468 0.685976 0.236060
H8    H     H_    0.908766 0.630464 0.641074 0.295820
H9    H     H_    0.082737 0.673452 0.484268 0.186651
H10   H     H_    0.089756 0.387219 0.357212 0.308277
H11   H     H_    0.121628 0.343247 0.490498 0.195821
H12   H     H_    0.924591 0.352647 0.545980 0.158404
N1    N     N_R   0.523430 0.519360 0.790130 -0.246743
N2    N     N_R   0.476570 0.480640 0.209880 -0.275834
O1    O     O_R   0.506640 0.354460 0.582000 -0.531787
O2    O     O_R   0.490840 0.341410 0.386200 -0.544662
O3    O     O_R   0.325590 0.506510 0.597900 -0.529318
O4    O     O_R   0.309790 0.493450 0.402100 -0.514355
O5    O     O_R   0.509160 0.658590 0.613800 -0.548901
O6    O     O_R   0.493360 0.645540 0.418000 -0.542782
O7    O     O_R   0.690210 0.506550 0.597900 -0.570144
O8    O     O_R   0.674410 0.493490 0.402100 -0.485318
S1    S     S_3+6 0.154141 0.657834 0.716902 0.077172
O9    O     O_2   0.230804 0.720634 0.648142 -0.257358
O10   O     O_2   0.061623 0.727492 0.776501 -0.183433
O11   O     O_3   0.248098 0.619502 0.818275 -0.477359
H13   H     H_    0.192672 0.584148 0.865302 0.366342
S2    S     S_3+6 0.862046 0.289225 0.353653 0.071038
O12   O     O_2   0.885664 0.184771 0.387148 -0.223928
O13   O     O_2   0.725406 0.297747 0.337401 -0.279477
O14   O     O_3   0.924799 0.292958 0.227109 -0.419984
H14   H     H_    0.885675 0.232057 0.173712 0.406973
S3    S     S_3+6 0.135766 0.619057 0.298191 0.094054
O15   O     O_2   0.148047 0.518225 0.217346 -0.215073
O16   O     O_2   0.055923 0.688647 0.239121 -0.156242
O17   O     O_3   0.274365 0.681315 0.329717 -0.542677
H15   H     H_    0.309166 0.682386 0.254070 0.366204
Cl1   Cl    Cl    0.874813 0.517278 0.264363 -0.330843
S4    S     S_3+6 0.566609 0.051869 0.799850 0.109420
O18   O     O_2   0.700272 0.078826 0.837184 -0.184872
O19   O     O_2   0.496210 0.149883 0.809664 -0.191345
O20   O     O_3   0.507668 0.975237 0.887281 -0.487902
H16   H     H_    0.517648 0.017934 0.965280 0.392952
Cl2   Cl    Cl    0.676639 0.213494 0.652296 -0.456267
Cl3   Cl    Cl    0.338712 0.370444 0.752671 -0.480434
Cl4   Cl    Cl    0.702737 0.674435 0.796276 -0.534731
Cl5   Cl    Cl    0.297907 0.277425 0.956061 -0.342352
Cl6   Cl    Cl    0.303093 0.323668 0.214787 -0.481194
Cl7   Cl    Cl    0.633682 0.652373 0.234391 -0.483337
Cl8   Cl    Cl    0.852506 0.698955 0.439080 -0.478975

loop_
_geom_bond_atom_site_label_1
_geom_bond_atom_site_label_2
_ccdc_geom_bond_type
S1    O9    D    
C29   H10   S    
C19   C20   A    
C26   S1    S    
C6    C9    A    
C12   O3    A    
C7    C8    A    
C7    C11   A    
C26   C27   S    
S2    O14   S    
C3    C28   S    
C25   O7    A    
C10   C15   A    
C28   H9    S    
C18   Cl7   S    
S2    O13   D    
C18   C19   A    
C8    H4    S    
Cu2   O6    S    
O17   H15   S    
C27   H7    S    
C16   C17   A    
S3    O16   D    
C24   H6    S    
C2    C27   S    
C9    Cl2   S    
C9    C10   A    
C5    C13   A    
C4    C29   S    
Cu1   O1    S    
C29   H11   S    
Cu2   O2    S    
Cu2   N2    S    
Cu1   O3    S    
C18   N2    A    
Cu2   O8    S    
C21   N1    A    
O20   H16   S    
C1    C6    S    
C3    Cl1   S    
C25   O8    A    
C22   Cl4   S    
S4    O19   D    
C1    O1    A    
C6    C8    A    
C4    H12   S    
O11   H13   S    
C28   S3    S    
C17   Cl6   S    
S2    O12   D    
C2    C4    S    
C13   H1    S    
C29   C30   S    
C23   O5    A    
Cu1   Cu2   S    
C5    C23   S    
C27   H8    S    
C16   C20   A    
S3    O17   S    
C4    S2    S    
C3    Cl8   S    
C26   H5    S    
Cu1   O7    S    
Cu2   O4    S    
C5    C14   A    
C26   C30   S    
S1    O10   D    
C22   C24   A    
C12   C30   S    
C7    H3    S    
Cu1   O5    S    
C14   H2    S    
S4    O20   S    
C12   O4    A    
C17   N2    A    
C1    O2    A    
C15   S4    S    
C16   Cl5   S    
C28   C30   S    
C2    C3    S    
S4    O18   D    
C11   C13   A    
C23   O6    A    
C19   C24   A    
C2    C25   S    
C10   C11   A    
O14   H14   S    
C22   N1    A    
C20   C21   A    
S3    O15   D    
Cu1   N1    S    
S1    O11   S    
C21   Cl3   S    
C14   C15   A    
