data_mof_unit_38115.cif
_audit_creation_date              2012-12-10T16:37:25-0500
_audit_creation_method            fapswitch 2.2
_symmetry_space_group_name_H-M    P1
_symmetry_Int_Tables_number       1
_space_group_crystal_system       triclinic
_cell_length_a                    16.647224
_cell_length_b                    16.811518
_cell_length_c                    16.642128
_cell_angle_alpha                 65.654211
_cell_angle_beta                  65.759163
_cell_angle_gamma                 65.761364
_cell_volume                      3702.43414955

loop_
_atom_site_label
_atom_site_type_symbol
_atom_type_description
_atom_site_fract_x
_atom_site_fract_y
_atom_site_fract_z
_atom_type_partial_charge
C1    C     C_R   0.399559 0.048148 0.664900 -0.239291
C2    C     C_R   0.400707 0.665970 0.043723 -0.233165
C3    C     C_3   0.372558 0.763042 0.136884 -0.736701
C4    C     C_3   0.828376 0.611827 0.256644 -0.768814
C5    C     C_3   0.171612 0.388168 0.743364 -0.768803
C6    C     C_R   0.903640 0.599445 0.364834 -0.226087
C7    C     C_R   0.096342 0.400554 0.635178 -0.226100
C8    C     C_R   0.979895 0.176716 0.429617 0.962721
C9    C     C_R   0.020112 0.823282 0.570380 0.962697
C10   C     C_R   0.179876 0.438693 0.960043 0.933968
C11   C     C_R   0.820124 0.561307 0.039958 0.933970
C12   C     C_R   0.439289 0.958837 0.180050 0.942078
C13   C     C_R   0.560712 0.041163 0.819950 0.942077
C14   C     C_R   0.561471 0.820038 0.039705 0.942567
C15   C     C_R   0.600441 0.951851 0.335100 -0.239291
C16   C     C_R   0.438529 0.179962 0.960295 0.942568
C17   C     C_R   0.042522 0.560177 0.820360 0.918362
C18   C     C_R   0.957478 0.439822 0.179641 0.918359
C19   C     C_R   0.820041 0.041298 0.560585 0.952708
C20   C     C_R   0.179959 0.958702 0.439414 0.952708
C21   C     C_R   0.438564 0.079352 0.702328 0.209306
C22   C     C_R   0.561437 0.920647 0.297672 0.209305
C23   C     C_R   0.921340 0.731635 0.530034 0.220534
C24   C     C_R   0.078661 0.268363 0.469972 0.220500
C25   C     C_R   0.701621 0.440819 0.080522 0.203978
C26   C     C_R   0.910181 0.687543 0.481778 -0.222747
C27   C     C_R   0.298380 0.559181 0.919478 0.203976
C28   C     C_R   0.296830 0.922130 0.561268 0.193928
C29   C     C_R   0.703170 0.077869 0.438731 0.193921
C30   C     C_R   0.560633 0.296534 0.924663 0.198825
C31   C     C_R   0.439367 0.703466 0.075337 0.198825
C32   C     C_R   0.892760 0.555504 0.315931 0.192696
C33   C     C_R   0.107230 0.444495 0.684076 0.192697
C34   C     C_R   0.539549 0.029658 0.539458 0.041780
C35   C     C_R   0.460451 0.970341 0.460542 0.041779
C36   C     C_R   0.010360 0.544302 0.550000 0.041841
C37   C     C_R   0.089819 0.312456 0.518228 -0.222745
C38   C     C_R   0.989638 0.455699 0.450002 0.041837
C39   C     C_R   0.539652 0.540276 0.028719 0.042472
C40   C     C_R   0.460348 0.459724 0.971281 0.042473
C41   C     C_R   0.586916 0.016267 0.451368 0.023779
C42   C     C_R   0.413084 0.983733 0.548632 0.023771
C43   C     C_R   0.050049 0.448869 0.566347 0.025582
C44   C     C_R   0.949943 0.551131 0.433660 0.025581
C45   C     C_R   0.451675 0.586793 0.014980 0.024042
C46   C     C_R   0.548325 0.413207 0.985020 0.024043
C47   C     C_R   0.549090 0.982427 0.413700 0.022366
C48   C     C_R   0.664451 0.401365 0.049602 -0.232711
C49   C     C_R   0.450910 0.017572 0.586300 0.022365
C50   C     C_R   0.413832 0.548207 0.981967 0.023928
C51   C     C_R   0.586168 0.451793 0.018033 0.023927
C52   C     C_R   0.041864 0.404805 0.513955 0.021908
C53   C     C_R   0.958131 0.595196 0.486048 0.021899
C54   C     C_R   0.535119 0.067359 0.669571 -0.006878
C55   C     C_R   0.464881 0.932640 0.330429 -0.006876
C56   C     C_R   0.988147 0.685277 0.578814 -0.016198
C57   C     C_R   0.011858 0.314723 0.421184 -0.016199
C58   C     C_R   0.669548 0.536725 0.066504 -0.007505
C59   C     C_R   0.335549 0.598635 0.950398 -0.232711
C60   C     C_R   0.330452 0.463275 0.933496 -0.007504
C61   C     C_R   0.330020 0.933308 0.464837 -0.011988
C62   C     C_R   0.669980 0.066692 0.535163 -0.011988
C63   C     C_R   0.464184 0.329077 0.935917 -0.006688
C64   C     C_R   0.535816 0.670923 0.064083 -0.006688
C65   C     C_R   0.933103 0.460314 0.331511 0.004709
C66   C     C_R   0.066897 0.539686 0.668490 0.004709
C67   C     C_R   0.587079 0.069533 0.719021 -0.273838
C68   C     C_R   0.412921 0.930467 0.280979 -0.273838
C69   C     C_R   0.022686 0.728612 0.610468 -0.255326
C70   C     C_R   0.333892 0.954059 0.599898 -0.246207
C71   C     C_R   0.977320 0.271386 0.389530 -0.255329
C72   C     C_R   0.719284 0.588151 0.068104 -0.266950
C73   C     C_R   0.280716 0.411849 0.931896 -0.266949
C74   C     C_R   0.280741 0.930765 0.412964 -0.260270
C75   C     C_R   0.719259 0.069235 0.587036 -0.260274
C76   C     C_R   0.412095 0.280159 0.933236 -0.266425
C77   C     C_R   0.587905 0.719841 0.066764 -0.266425
C78   C     C_R   0.931293 0.411056 0.280334 -0.254377
C79   C     C_R   0.068708 0.588943 0.719666 -0.254379
C80   C     C_R   0.674191 0.079987 0.674019 0.524018
C81   C     C_R   0.666108 0.045941 0.400102 -0.246211
C82   C     C_R   0.325809 0.920013 0.325981 0.524014
C83   C     C_R   0.066228 0.678525 0.678567 0.526376
C84   C     C_R   0.933777 0.321474 0.321432 0.526375
C85   C     C_R   0.674816 0.674855 0.077696 0.520303
C86   C     C_R   0.325184 0.325144 0.922304 0.520303
C87   C     C_R   0.581568 0.054501 0.581427 -0.005338
C88   C     C_R   0.418432 0.945499 0.418573 -0.005340
C89   C     C_R   0.022497 0.589477 0.598376 -0.008560
C90   C     C_R   0.977505 0.410523 0.401623 -0.008555
C91   C     C_R   0.581766 0.582796 0.052784 -0.004271
C92   C     C_R   0.599293 0.334030 0.956277 -0.233166
C93   C     C_R   0.418234 0.417204 0.947216 -0.004271
C94   C     C_3   0.372271 0.139695 0.763172 -0.759285
C95   C     C_3   0.627729 0.860304 0.236828 -0.759287
C96   C     C_3   0.850104 0.821441 0.538862 -0.829400
C97   C     C_3   0.149881 0.178545 0.461169 -0.829380
C98   C     C_3   0.760870 0.376086 0.143450 -0.746261
C99   C     C_3   0.239130 0.623914 0.856550 -0.746259
C100  C     C_3   0.236346 0.861398 0.627997 -0.736056
C101  C     C_3   0.763654 0.138602 0.372003 -0.736052
C102  C     C_3   0.627442 0.236958 0.863116 -0.736703
F1    F     F_    0.718632 0.092932 0.718448 -0.648979
F2    F     F_    0.281368 0.907068 0.281552 -0.648979
F3    F     F_    0.096662 0.718336 0.712720 -0.662781
F4    F     F_    0.903342 0.281663 0.287279 -0.662779
F5    F     F_    0.719522 0.718768 0.090490 -0.659657
F6    F     F_    0.280478 0.281232 0.909510 -0.659657
H1    H     H_    0.326439 0.055793 0.693251 0.142273
H2    H     H_    0.327790 0.694438 0.050428 0.146808
H3    H     H_    0.874401 0.672507 0.347121 0.141496
H4    H     H_    0.125562 0.327493 0.652904 0.141499
H5    H     H_    0.320433 0.193276 0.728535 0.207458
H6    H     H_    0.335226 0.099176 0.829724 0.248598
H7    H     H_    0.407176 0.175514 0.775607 0.241443
H8    H     H_    0.679567 0.806723 0.271465 0.207459
H9    H     H_    0.592824 0.824486 0.224393 0.241443
H10   H     H_    0.664774 0.900823 0.170276 0.248599
H11   H     H_    0.780122 0.814871 0.559237 0.221215
H12   H     H_    0.673561 0.944206 0.306749 0.142274
H13   H     H_    0.850449 0.842884 0.593318 0.224269
H14   H     H_    0.860600 0.874511 0.471306 0.260154
H15   H     H_    0.219871 0.185068 0.440882 0.221212
H16   H     H_    0.139311 0.125474 0.528720 0.260206
H17   H     H_    0.149581 0.157133 0.406664 0.224255
H18   H     H_    0.724100 0.327273 0.199310 0.211016
H19   H     H_    0.826868 0.336750 0.104725 0.248226
H20   H     H_    0.774362 0.411827 0.177596 0.239069
H21   H     H_    0.275900 0.672726 0.800690 0.211017
H22   H     H_    0.225637 0.588173 0.822404 0.239070
H23   H     H_    0.858559 0.726164 0.445825 0.143341
H24   H     H_    0.173132 0.663250 0.895276 0.248226
H25   H     H_    0.271607 0.807736 0.679283 0.207525
H26   H     H_    0.170035 0.901544 0.665487 0.243273
H27   H     H_    0.223600 0.825573 0.593366 0.255202
H28   H     H_    0.728393 0.192264 0.320717 0.207524
H29   H     H_    0.776400 0.174427 0.406634 0.255202
H30   H     H_    0.829965 0.098456 0.334513 0.243274
H31   H     H_    0.678866 0.271831 0.808718 0.221666
H32   H     H_    0.664883 0.171119 0.903735 0.244732
H33   H     H_    0.592799 0.224517 0.826774 0.240025
H34   H     H_    0.141415 0.273826 0.554208 0.143337
H35   H     H_    0.321134 0.728169 0.191281 0.221666
H36   H     H_    0.407201 0.775483 0.173226 0.240025
H37   H     H_    0.335117 0.828881 0.096264 0.244731
H38   H     H_    0.859727 0.661758 0.195448 0.258676
H39   H     H_    0.809887 0.569981 0.233856 0.226959
H40   H     H_    0.762668 0.649471 0.297238 0.218171
H41   H     H_    0.140257 0.338242 0.804562 0.258672
H42   H     H_    0.237317 0.350519 0.702772 0.218171
H43   H     H_    0.190108 0.430013 0.766149 0.226960
H44   H     H_    0.692494 0.328703 0.058606 0.144297
H45   H     H_    0.307506 0.671297 0.941394 0.144297
H46   H     H_    0.304999 0.947249 0.672883 0.146181
H47   H     H_    0.695001 0.052751 0.327117 0.146181
H48   H     H_    0.672210 0.305562 0.949571 0.146808
O1    O     O_R   0.982940 0.138950 0.510160 -0.632162
O2    O     O_R   0.982940 0.510160 0.138950 -0.627844
O3    O     O_R   0.861050 0.017060 0.489840 -0.660712
O4    O     O_R   0.138950 0.982940 0.510160 -0.660736
O5    O     O_R   0.867700 0.025880 0.612340 -0.548342
O6    O     O_R   0.132300 0.974120 0.387660 -0.548345
O7    O     O_R   0.025880 0.612340 0.867700 -0.563248
O8    O     O_R   0.974120 0.387660 0.132300 -0.563248
O9    O     O_R   0.612340 0.867700 0.025880 -0.555608
O10   O     O_R   0.387660 0.132300 0.974120 -0.555609
O11   O     O_R   0.387660 0.974120 0.132300 -0.555717
O12   O     O_R   0.017060 0.861050 0.489840 -0.632131
O13   O     O_R   0.612340 0.025880 0.867700 -0.555717
O14   O     O_R   0.132300 0.387660 0.974120 -0.552601
O15   O     O_R   0.867700 0.612340 0.025880 -0.552599
O16   O     O_R   0.974120 0.132300 0.387660 -0.569497
O17   O     O_R   0.025880 0.867700 0.612340 -0.569501
O18   O     O_R   0.138950 0.510160 0.982940 -0.636842
O19   O     O_R   0.861050 0.489840 0.017060 -0.636842
O20   O     O_R   0.510160 0.982940 0.138950 -0.638339
O21   O     O_R   0.489840 0.017060 0.861050 -0.638340
O22   O     O_R   0.489840 0.861050 0.017060 -0.640891
O23   O     O_R   0.510160 0.138950 0.982940 -0.640890
O24   O     O_R   0.017060 0.489840 0.861050 -0.627846
Zn1   Zn    Zn3+2 0.004880 0.004880 0.583590 0.992691
Zn2   Zn    Zn3+2 0.995120 0.995120 0.416410 0.992722
Zn3   Zn    Zn3+2 0.004880 0.583590 0.004880 0.996296
Zn4   Zn    Zn3+2 0.995120 0.416410 0.995120 0.996291
Zn5   Zn    Zn3+2 0.583590 0.004880 0.004880 0.988734
Zn6   Zn    Zn3+2 0.416410 0.995120 0.995120 0.988733

loop_
_geom_bond_atom_site_label_1
_geom_bond_atom_site_label_2
_ccdc_geom_bond_type
C36   C89   A    
C10   O18   A    
C6    C32   A    
C1    C21   A    
C64   C77   A    
C96   H11   S    
C39   C51   A    
C17   C79   S    
C40   C93   A    
C35   C47   A    
C12   O11   A    
C72   C85   A    
C59   H45   S    
O20   Zn5   S    
C95   H9    S    
C101  H30   S    
C11   O15   A    
C66   C79   A    
C12   C68   S    
C27   C99   S    
C96   H13   S    
O8    Zn4   S    
C50   C59   A    
O15   Zn3   S    
C9    C69   S    
O6    Zn2   S    
C97   H16   S    
C27   C60   A    
C13   C67   S    
C54   C87   A    
C10   C73   S    
C13   O21   A    
C43   C52   A    
C23   C26   A    
C46   C92   A    
C63   C76   A    
C4    H40   S    
C60   C73   A    
C42   C70   A    
C5    H41   S    
C23   C96   S    
C19   O5    A    
C14   C77   S    
C55   C88   A    
C7    H4    S    
C35   C42   A    
C36   C53   A    
C17   O7    A    
C1    H1    S    
C18   O8    A    
C44   C53   A    
C15   C22   A    
C2    H2    S    
C16   O10   A    
C24   C57   A    
C8    C71   S    
C5    C33   S    
C67   C80   A    
C84   F4    S    
C69   C83   A    
C9    O17   A    
C102  H33   S    
C7    C43   A    
C58   C91   A    
C100  H27   S    
C39   C45   A    
C60   C93   A    
C28   C100  S    
C98   H20   S    
C20   O6    A    
C95   H10   S    
C6    C44   A    
C30   C63   A    
C7    C33   A    
C34   C41   A    
O1    Zn1   S    
C74   C82   A    
C8    O1    A    
C39   C91   A    
C94   H5    S    
C100  H26   S    
C33   C66   A    
C55   C68   A    
C66   C89   A    
C48   C51   A    
C2    C45   A    
C94   H6    S    
C65   C90   A    
C86   F6    S    
C37   H34   S    
C99   H21   S    
C80   F1    S    
O7    Zn3   S    
C24   C97   S    
C23   C56   A    
C3    H35   S    
C97   H17   S    
C57   C90   A    
C37   C52   A    
C101  H29   S    
C11   C72   S    
C54   C67   A    
C4    H39   S    
C46   C51   A    
O9    Zn5   S    
O21   Zn6   S    
C83   F3    S    
C2    C31   A    
C70   H46   S    
C40   C46   A    
C38   C44   A    
C18   O2    A    
C61   C88   A    
O16   Zn2   S    
O10   Zn6   S    
C35   C88   A    
C95   H8    S    
C18   C78   S    
C41   C81   A    
C30   C102  S    
C24   C37   A    
C41   C47   A    
C20   C74   S    
C92   H48   S    
C102  H32   S    
C57   C71   A    
C14   O9    A    
C3    C31   S    
C25   C48   A    
C4    C32   S    
C8    O16   A    
C29   C101  S    
C99   H24   S    
C17   O24   A    
C30   C92   A    
C98   H19   S    
C29   C81   A    
C3    H37   S    
O12   Zn2   S    
C48   H44   S    
C21   C94   S    
C62   C75   A    
C25   C58   A    
C12   O20   A    
C26   C53   A    
C76   C86   A    
O4    Zn1   S    
C100  H25   S    
C14   O22   A    
C71   C84   A    
C75   C80   A    
C101  H28   S    
C38   C90   A    
C29   C62   A    
C56   C89   A    
C34   C49   A    
C65   C78   A    
C99   H22   S    
O14   Zn4   S    
C16   C76   S    
C11   O19   A    
C31   C64   A    
C9    O12   A    
C28   C70   A    
C3    H36   S    
C36   C43   A    
C81   H47   S    
O18   Zn3   S    
C94   H7    S    
C16   O23   A    
C22   C55   A    
O23   Zn5   S    
C61   C74   A    
C10   O14   A    
C62   C87   A    
C63   C93   A    
C15   H12   S    
C5    H43   S    
C96   H14   S    
C19   O3    A    
O13   Zn5   S    
C19   C75   S    
C68   C82   A    
C97   H15   S    
C102  H31   S    
C27   C59   A    
C28   C61   A    
C79   C83   A    
O11   Zn6   S    
C58   C72   A    
C21   C54   A    
C45   C50   A    
C40   C50   A    
C13   O13   A    
C6    H3    S    
C34   C87   A    
O17   Zn1   S    
O3    Zn2   S    
O5    Zn1   S    
C73   C86   A    
C5    H42   S    
C42   C49   A    
C77   C85   A    
O22   Zn6   S    
C22   C95   S    
C78   C84   A    
C25   C98   S    
C98   H18   S    
C38   C52   A    
C56   C69   A    
C20   O4    A    
C82   F2    S    
C4    H38   S    
C32   C65   A    
C15   C47   A    
C64   C91   A    
C85   F5    S    
C1    C49   A    
C26   H23   S    
O24   Zn4   S    
O2    Zn3   S    
O19   Zn4   S    
