data_mof_unit_36100.cif
_audit_creation_date              2013-03-05T16:45:08-0500
_audit_creation_method            fapswitch 2.2
_symmetry_space_group_name_H-M    P1
_symmetry_Int_Tables_number       1
_space_group_crystal_system       triclinic
_cell_length_a                    14.659453
_cell_length_b                    16.042993
_cell_length_c                    10.026926
_cell_angle_alpha                 89.919458
_cell_angle_beta                  90.439473
_cell_angle_gamma                 90.00257
_cell_volume                      2358.07581672

loop_
_atom_site_label
_atom_site_type_symbol
_atom_site_description
_atom_site_fract_x
_atom_site_fract_y
_atom_site_fract_z
_atom_type_partial_charge
O1    O     O_R   0.408400 0.908380 0.614690 -0.607356
O2    O     O_R   0.408400 0.091620 0.614690 -0.590512
O3    O     O_R   0.908400 0.408380 0.614690 -0.605927
O4    O     O_R   0.908400 0.591620 0.614690 -0.591209
O5    O     O_R   0.408370 0.908370 0.385350 -0.610526
O6    O     O_R   0.408370 0.091630 0.385350 -0.614272
O7    O     O_R   0.908370 0.408370 0.385350 -0.603513
O8    O     O_R   0.908370 0.591630 0.385350 -0.615330
C1    C     C_R   0.382587 0.878632 0.499844 0.963827
C2    C     C_R   0.382220 0.121922 0.498607 0.954082
C3    C     C_R   0.882044 0.378906 0.499834 0.958021
C4    C     C_R   0.882662 0.622164 0.498524 0.953177
Zn1   Zn    Zn3+2 0.500010 0.000000 0.653130 1.091956
Zn2   Zn    Zn3+2 0.000010 0.500000 0.653130 1.091493
Zn3   Zn    Zn3+2 0.499980 0.000000 0.346870 1.084671
Zn4   Zn    Zn3+2 0.999980 0.500000 0.346870 1.087948
O9    O     O_R   0.591610 0.091610 0.614650 -0.572188
O10   O     O_R   0.591610 0.908390 0.614650 -0.574837
O11   O     O_R   0.091610 0.591610 0.614650 -0.570741
O12   O     O_R   0.091610 0.408390 0.614650 -0.574299
O13   O     O_R   0.591590 0.091600 0.385310 -0.611559
O14   O     O_R   0.591590 0.908400 0.385310 -0.575941
O15   O     O_R   0.091590 0.591600 0.385310 -0.607813
O16   O     O_R   0.091590 0.408400 0.385310 -0.580525
C5    C     C_R   0.624758 0.115229 0.499546 0.961800
C6    C     C_R   0.625016 0.885293 0.499291 0.976294
C7    C     C_R   0.123884 0.616191 0.499166 0.953474
C8    C     C_R   0.125545 0.385940 0.499520 0.967171
C9    C     C_R   0.301986 0.238290 0.607382 -0.031978
C10   C     C_R   0.270350 0.790349 0.610901 -0.030686
C11   C     C_R   0.804227 0.740075 0.605817 -0.031985
C12   C     C_R   0.769204 0.290561 0.611116 -0.028806
C13   C     C_R   0.326940 0.197198 0.492302 -0.198280
C14   C     C_R   0.322528 0.807877 0.498659 -0.222337
C15   C     C_R   0.827837 0.697583 0.491519 -0.196083
C16   C     C_R   0.821244 0.308455 0.498671 -0.226878
C17   C     C_R   0.301022 0.235944 0.370102 0.210848
C18   C     C_R   0.316731 0.755559 0.385651 0.215511
C19   C     C_R   0.800339 0.734699 0.368774 0.208227
C20   C     C_R   0.817124 0.254830 0.387143 0.226611
C21   C     C_R   0.735003 0.798948 0.369147 0.260065
C22   C     C_R   0.752248 0.190600 0.383551 0.236477
C23   C     C_R   0.238722 0.302666 0.370881 0.258187
C24   C     C_R   0.247525 0.695173 0.379549 0.248058
C25   C     C_R   0.704452 0.832009 0.492700 -0.210066
C26   C     C_R   0.698935 0.174782 0.497636 -0.174810
C27   C     C_R   0.205552 0.333333 0.494189 -0.210654
C28   C     C_R   0.196657 0.677129 0.495553 -0.180144
C29   C     C_R   0.755365 0.811676 0.605179 -0.028140
C30   C     C_R   0.716475 0.219501 0.612364 -0.053863
C31   C     C_R   0.253060 0.309836 0.608085 -0.029782
C32   C     C_R   0.216822 0.719929 0.611223 -0.048131
C33   C     C_3   0.749963 0.813469 0.754605 0.050012
C34   C     C_3   0.754975 0.189799 0.743298 0.059264
C35   C     C_3   0.244128 0.308951 0.757034 0.051118
C36   C     C_3   0.255481 0.688570 0.740847 0.060630
C37   C     C_3   0.294664 0.224944 0.753250 0.367126
C38   C     C_3   0.300549 0.773447 0.752968 0.371063
C39   C     C_3   0.798527 0.728477 0.752207 0.364394
C40   C     C_3   0.798975 0.275199 0.753895 0.373894
H1    H     H_    0.679006 0.813937 0.793114 0.185968
H2    H     H_    0.701780 0.177710 0.818921 0.188059
H3    H     H_    0.172205 0.307235 0.791558 0.186179
H4    H     H_    0.202416 0.676617 0.816594 0.192970
C41   C     C_R   0.428288 0.967584 0.070754 0.252641
C42   C     C_R   0.927618 0.468916 0.070617 0.271191
N1    N     N_R   0.499140 1.000000 0.142800 -0.154667
N2    N     N_R   0.999140 0.500000 0.142800 -0.157895
C43   C     C_R   0.574953 0.019688 0.075049 -0.029420
C44   C     C_R   0.075771 0.516785 0.075243 -0.010193
H5    H     H_    0.634560 0.035187 0.132932 0.243261
H6    H     H_    0.136198 0.529093 0.133321 0.244016
C45   C     C_R   0.577740 0.016246 0.932897 0.305373
C46   C     C_R   0.078024 0.514997 0.933009 0.307319
N3    N     N_R   0.499160 0.000000 0.857150 -0.163157
N4    N     N_R   0.999160 0.500000 0.857150 -0.165283
C47   C     C_R   0.426434 0.972247 0.929274 0.165993
C48   C     C_R   0.925936 0.473353 0.929201 0.160758
C49   C     C_3   0.335089 0.011662 0.934606 -0.343047
C50   C     C_3   0.835117 0.513865 0.934419 -0.346742
C51   C     C_3   0.332951 0.995512 0.083072 -0.382397
C52   C     C_3   0.832669 0.497770 0.082938 -0.378561
H7    H     H_    0.342565 0.078225 0.913372 0.245829
H8    H     H_    0.282140 0.979411 0.876335 0.282565
H9    H     H_    0.843483 0.580356 0.913070 0.247459
H10   H     H_    0.781768 0.482059 0.876260 0.283216
H11   H     H_    0.327028 0.051437 0.145742 0.257388
H12   H     H_    0.287004 0.943724 0.112327 0.257897
H13   H     H_    0.827439 0.553545 0.145919 0.254751
H14   H     H_    0.786050 0.446408 0.111867 0.261566
N5    N     N_R   0.336690 0.209628 0.245043 0.229772
O17   O     O_R   0.422882 0.220325 0.219963 -0.284240
O18   O     O_R   0.280535 0.191806 0.148352 -0.286503
N6    N     N_R   0.389090 0.754515 0.289489 0.251973
O19   O     O_R   0.473284 0.748131 0.330299 -0.295463
O20   O     O_R   0.371581 0.749585 0.162594 -0.209053
N7    N     N_R   0.838478 0.710116 0.244125 0.228895
O21   O     O_R   0.925141 0.721221 0.223105 -0.273713
O22   O     O_R   0.784515 0.694150 0.144046 -0.289042
N8    N     N_R   0.888779 0.255368 0.290701 0.264024
O23   O     O_R   0.970896 0.233423 0.326146 -0.283704
O24   O     O_R   0.875091 0.287561 0.173463 -0.253624
N9    N     N_R   0.704494 0.832336 0.243938 0.255175
O25   O     O_R   0.743299 0.898483 0.195785 -0.256185
O26   O     O_R   0.637400 0.797548 0.179050 -0.240062
N10   N     N_R   0.750964 0.134841 0.272686 0.227306
O27   O     O_R   0.775025 0.057595 0.290228 -0.283884
O28   O     O_R   0.741042 0.163925 0.152384 -0.268848
N11   N     N_R   0.215800 0.342398 0.247107 0.256171
O29   O     O_R   0.253418 0.413262 0.217338 -0.273445
O30   O     O_R   0.151176 0.312567 0.171304 -0.250798
N12   N     N_R   0.236510 0.647250 0.260871 0.226968
O31   O     O_R   0.290809 0.584670 0.239682 -0.237629
O32   O     O_R   0.189264 0.678249 0.162313 -0.295025
N13   N     N_R   0.808363 0.877993 0.813649 0.287170
O33   O     O_R   0.811734 0.885590 0.942534 -0.175659
O34   O     O_R   0.866783 0.918964 0.741575 -0.200116
N14   N     N_R   0.823193 0.122463 0.731334 0.285604
O35   O     O_R   0.877435 0.106023 0.831347 -0.139640
O36   O     O_R   0.834297 0.081620 0.620581 -0.284326
N15   N     N_R   0.299270 0.373370 0.822431 0.286254
O37   O     O_R   0.295494 0.381006 0.951226 -0.187283
O38   O     O_R   0.361393 0.414359 0.757272 -0.197279
N16   N     N_R   0.322713 0.620631 0.726190 0.285268
O39   O     O_R   0.377842 0.602932 0.824606 -0.138279
O40   O     O_R   0.331128 0.579573 0.615083 -0.298057
N17   N     N_R   0.384147 0.223147 0.821086 0.204650
O41   O     O_R   0.388907 0.226547 0.950054 -0.250501
O42   O     O_R   0.459411 0.230713 0.753930 -0.330800
N18   N     N_R   0.400262 0.771826 0.776348 0.227035
O43   O     O_R   0.433586 0.789248 0.893564 -0.268918
O44   O     O_R   0.455361 0.742528 0.686468 -0.325879
N19   N     N_R   0.888664 0.725517 0.818077 0.206518
O45   O     O_R   0.894876 0.727733 0.947060 -0.248324
O46   O     O_R   0.963263 0.732665 0.749258 -0.329322
N20   N     N_R   0.898518 0.274377 0.778635 0.224385
O47   O     O_R   0.930507 0.289682 0.897372 -0.264058
O48   O     O_R   0.954388 0.245410 0.689497 -0.330499
N21   N     N_R   0.233815 0.155863 0.788524 0.165269
O49   O     O_R   0.189759 0.157868 0.900655 -0.246711
O50   O     O_R   0.214594 0.097427 0.702800 -0.351786
N22   N     N_R   0.250941 0.825520 0.848764 0.168190
O51   O     O_R   0.181219 0.869574 0.808592 -0.305371
O52   O     O_R   0.258023 0.809095 0.975262 -0.284665
N23   N     N_R   0.736477 0.660875 0.790322 0.166057
O53   O     O_R   0.692565 0.665220 0.902373 -0.244677
O54   O     O_R   0.715666 0.601762 0.706577 -0.351818
N24   N     N_R   0.748460 0.327612 0.848151 0.167919
O55   O     O_R   0.680671 0.373277 0.805597 -0.309628
O56   O     O_R   0.752666 0.310398 0.974654 -0.284033
N25   N     N_R   0.666139 0.025930 0.875127 0.187936
O57   O     O_R   0.683556 0.998063 0.757508 -0.349118
O58   O     O_R   0.735143 0.044470 0.951750 -0.263936
N26   N     N_R   0.165992 0.526467 0.875017 0.190902
O59   O     O_R   0.184073 0.498132 0.757862 -0.345482
O60   O     O_R   0.234287 0.548149 0.951028 -0.265325

loop_
_geom_bond_atom_site_label_1
_geom_bond_atom_site_label_2
_geom_bond_distance
_ccdc_geom_bond_type
C7    C28   1.447609 S    
C42   N2    1.364236 A    
C35   N15   1.464640 S    
C8    C27   1.446360 S    
C15   C19   1.422030 A    
O10   C6    1.313390 A    
C40   N24   1.470254 S    
N12   O32   1.300689 A    
N23   O53   1.301113 A    
C33   C39   1.538529 S    
C19   C21   1.407121 A    
C34   C40   1.517804 S    
O7    C3    1.302057 A    
C37   N21   1.467204 S    
O5    C1    1.301355 A    
C30   C34   1.502045 S    
C52   H13   1.098942 S    
C46   N4    1.400009 A    
Zn1   O10   2.030206 S    
C10   C32   1.375506 A    
C36   N16   1.477748 S    
C3    C16   1.439371 S    
N4    C48   1.366715 A    
N11   O30   1.301598 A    
C49   H8    1.097920 S    
C48   C50   1.482873 S    
C19   N7    1.429104 S    
N5    O18   1.299188 A    
N10   O27   1.299844 A    
N13   O33   1.298785 A    
C9    C13   1.381491 A    
C46   N26   1.430435 S    
C22   C26   1.413029 A    
C11   C39   1.482325 S    
C43   H5    1.074631 S    
O2    Zn1   2.025638 S    
N14   O35   1.301751 A    
C50   H10   1.098119 S    
C6    C25   1.446562 S    
N23   O54   1.302243 A    
O6    Zn3   2.030534 S    
C33   H1    1.112343 S    
Zn3   O14   2.025406 S    
Zn1   N3    2.045828 S    
C41   N1    1.364044 A    
C35   H3    1.112569 S    
C44   C46   1.427138 A    
N25   O57   1.289199 A    
C36   H4    1.107888 S    
C43   C45   1.427391 A    
Zn4   N2    2.046138 S    
O15   C7    1.294611 A    
O4    C4    1.315628 A    
N15   O38   1.302504 A    
O11   C7    1.314269 A    
C40   N20   1.478358 S    
N26   O60   1.301232 A    
C20   C22   1.402523 A    
O8    Zn4   2.030534 S    
C45   N25   1.431863 S    
C45   N3    1.399595 A    
C11   C29   1.353733 A    
N12   O31   1.299988 A    
N7    O22   1.298811 A    
C18   C24   1.403803 A    
N7    O21   1.301601 A    
C47   C49   1.482253 S    
C42   C48   1.419685 A    
C41   C47   1.420530 A    
C10   C14   1.393936 A    
C32   C36   1.500155 S    
Zn2   O12   2.030206 S    
C16   C20   1.412787 A    
O1    C1    1.300725 A    
N24   O55   1.303453 A    
N20   O48   1.303097 A    
N5    O17   1.301503 A    
C49   C51   1.511235 S    
C17   N5    1.426747 S    
C27   C31   1.384906 A    
O12   C8    1.311417 A    
N13   O34   1.302258 A    
C39   N19   1.473435 S    
C13   C17   1.422262 A    
C21   N9    1.432708 S    
N1    C43   1.344382 A    
Zn2   N4    2.045828 S    
C17   C23   1.407182 A    
N18   O44   1.303042 A    
N17   O42   1.302556 A    
C37   N17   1.473260 S    
C50   H9    1.094756 S    
C42   C52   1.473026 S    
C22   N10   1.427849 S    
C38   N22   1.470516 S    
C41   C51   1.473802 S    
C25   C29   1.386179 A    
O8    C4    1.295320 A    
Zn3   N1    2.046138 S    
C18   N6    1.439056 S    
N8    O24   1.297532 A    
N15   O37   1.298980 A    
N9    O26   1.301290 A    
C4    C15   1.453910 S    
N6    O20   1.298589 A    
N3    C47   1.367010 A    
C12   C30   1.377422 A    
N26   O59   1.289619 A    
C51   H11   1.099921 S    
O3    Zn2   2.026337 S    
C24   N12   1.425773 S    
C50   C52   1.511751 S    
O7    Zn4   2.029662 S    
C9    C37   1.482598 S    
Zn4   O15   2.026104 S    
C34   N14   1.477745 S    
C1    C14   1.436512 S    
C11   C15   1.380669 A    
O1    Zn1   2.026338 S    
C12   C40   1.513342 S    
N17   O41   1.295719 A    
O2    C2    1.315287 A    
C12   C16   1.395669 A    
N22   O52   1.298486 A    
N16   O40   1.301691 A    
C9    C31   1.353567 A    
O13   C5    1.297991 A    
C14   C18   1.413101 A    
Zn2   O11   2.029332 S    
O16   C8    1.295810 A    
N24   O56   1.298777 A    
N20   O47   1.299958 A    
C20   N8    1.433234 S    
N21   O49   1.301354 A    
C34   H2    1.108749 S    
C26   C30   1.379105 A    
C52   H14   1.110176 S    
Zn1   O9    2.029332 S    
O9    C5    1.311145 A    
C35   C37   1.538608 S    
N18   O43   1.300089 A    
N11   O29   1.298929 A    
C49   H7    1.094260 S    
N21   O50   1.302165 A    
N19   O45   1.296344 A    
Zn3   O13   2.026104 S    
N10   O28   1.299870 A    
C38   N18   1.478865 S    
C29   C33   1.501295 S    
C10   C38   1.512601 S    
N8    O23   1.300956 A    
C36   C38   1.518079 S    
C2    C13   1.455408 S    
C31   C35   1.500282 S    
N25   O58   1.300259 A    
O4    Zn2   2.025638 S    
N6    O19   1.301324 A    
N14   O36   1.301500 A    
O5    Zn3   2.029662 S    
C51   H12   1.110093 S    
O3    C3    1.301483 A    
O6    C2    1.296540 A    
C24   C28   1.416027 A    
C28   C32   1.378769 A    
Zn4   O16   2.025406 S    
O14   C6    1.293806 A    
N9    O25   1.298294 A    
N19   O46   1.302521 A    
N2    C44   1.343295 A    
C21   C25   1.423750 A    
N22   O51   1.303596 A    
C44   H6    1.074808 S    
C23   N11   1.432086 S    
C23   C27   1.420608 A    
C5    C26   1.447689 S    
C33   N13   1.465889 S    
N16   O39   1.301745 A    
C39   N23   1.467568 S    
