data_mof_unit_21968.cif
_audit_creation_date              2012-12-10T20:31:09-0500
_audit_creation_method            fapswitch 2.2
_symmetry_space_group_name_H-M    P1
_symmetry_Int_Tables_number       1
_space_group_crystal_system       triclinic
_cell_length_a                    14.970139
_cell_length_b                    10.659204
_cell_length_c                    9.870673
_cell_angle_alpha                 89.857349
_cell_angle_beta                  90.010423
_cell_angle_gamma                 89.99481
_cell_volume                      1575.05606174

loop_
_atom_site_label
_atom_site_type_symbol
_atom_type_description
_atom_site_fract_x
_atom_site_fract_y
_atom_site_fract_z
_atom_type_partial_charge
C1    C     C_R   0.503021 0.259813 0.500082 0.875304
C2    C     C_R   0.906318 0.549762 0.612896 0.128635
C3    C     C_R   0.954389 0.380031 0.290633 -0.226495
C4    C     C_R   0.047240 0.379778 0.292005 -0.195952
C5    C     C_R   0.093246 0.439417 0.397252 0.126657
C6    C     C_R   0.046350 0.497924 0.503708 -0.004831
C7    C     C_R   0.092254 0.561789 0.607934 -0.013205
C8    C     C_R   0.044734 0.611480 0.718067 -0.220179
C9    C     C_R   0.952147 0.605528 0.720404 -0.230401
C10   C     C_R   0.185554 0.440418 0.398691 -0.365412
C11   C     C_R   0.230885 0.506012 0.499659 -0.165534
C12   C     C_R   0.326765 0.502548 0.499943 0.948607
C13   C     C_R   0.184912 0.575151 0.598518 0.459257
C14   C     C_R   0.525280 0.063558 0.622186 0.108102
C15   C     C_R   0.519198 0.128439 0.500020 -0.103634
C16   C     C_R   0.532980 0.064919 0.377440 -0.228471
C17   C     C_R   0.534417 0.935246 0.377514 -0.214917
C18   C     C_R   0.522339 0.870835 0.500237 -0.151659
C19   C     C_R   0.527929 0.935360 0.622639 0.149280
C20   C     C_3   0.471275 0.927265 0.748046 -0.047935
C21   C     C_3   0.467678 0.069814 0.745674 -0.523796
C22   C     C_R   0.425073 0.532012 0.071638 0.175349
C23   C     C_R   0.505581 0.739710 0.499940 0.872212
C24   C     C_R   0.576464 0.477951 0.071869 -0.134169
C25   C     C_R   0.576556 0.478660 0.928100 -0.145083
C26   C     C_R   0.424301 0.528169 0.929351 0.137162
C27   C     C_3   0.335913 0.460951 0.929321 -0.066389
C28   C     C_3   0.336206 0.470710 0.083216 -0.519043
C29   C     C_R   0.673207 0.499056 0.500135 0.891910
C30   C     C_R   0.813988 0.549365 0.611100 -0.274107
C31   C     C_R   0.768844 0.496558 0.501418 -0.064829
C32   C     C_R   0.814760 0.440162 0.394585 -0.268584
C33   C     C_R   0.907289 0.437536 0.396042 0.119437
C34   C     C_R   0.953352 0.494477 0.504577 0.090883
H1    H     H_    0.777211 0.592716 0.693371 0.153373
H2    H     H_    0.537694 0.886604 0.281379 0.174688
H3    H     H_    0.404894 0.884358 0.728450 0.147996
H4    H     H_    0.399763 0.106017 0.722493 0.178157
H5    H     H_    0.501628 0.116949 0.831712 0.211912
H6    H     H_    0.637775 0.458045 0.125618 0.148326
H7    H     H_    0.637994 0.459742 0.874413 0.155926
H8    H     H_    0.282267 0.517769 0.881682 0.216787
H9    H     H_    0.284723 0.536454 0.122362 0.189680
H10   H     H_    0.778459 0.397521 0.311426 0.148187
H11   H     H_    0.339757 0.379641 0.138281 0.215963
H12   H     H_    0.919470 0.335418 0.207498 0.145117
H13   H     H_    0.083051 0.334602 0.210087 0.143940
H14   H     H_    0.222267 0.389927 0.321414 0.171639
H15   H     H_    0.078911 0.655798 0.802008 0.170941
H16   H     H_    0.916363 0.646328 0.804974 0.146131
H17   H     H_    0.535708 0.113984 0.281270 0.172313
N1    N     N_R   0.499390 0.499140 0.142800 -0.101320
N2    N     N_R   0.499390 0.499180 0.857150 -0.119255
O1    O     O_R   0.500010 0.316790 0.614690 -0.631691
O2    O     O_R   0.500000 0.316760 0.385350 -0.625455
O3    O     O_R   0.367850 0.499990 0.614680 -0.599182
O4    O     O_R   0.367840 0.499950 0.385340 -0.630064
O5    O     O_R   0.500000 0.683240 0.614650 -0.616729
O6    O     O_R   0.499990 0.683210 0.385310 -0.616133
O7    O     O_R   0.632160 0.500050 0.614660 -0.632339
O8    O     O_R   0.632150 0.500010 0.385320 -0.631925
Zn1   Zn    Zn3+2 0.500010 0.500020 0.653130 0.938859
Zn2   Zn    Zn3+2 0.499990 0.499980 0.346870 0.936748
C35   C     C_3   0.517603 0.869938 0.873880 -0.332761
C36   C     C_3   0.617317 0.899698 0.888022 -0.848772
H18   H     H_    0.655441 0.859331 0.802017 0.257421
H19   H     H_    0.628934 0.002378 0.892467 0.253302
H20   H     H_    0.642957 0.857117 0.983183 0.237611
H21   H     H_    0.482177 0.902570 0.966254 0.193206
H22   H     H_    0.510012 0.766528 0.869966 0.221519
C37   C     C_3   0.339836 0.324484 0.879033 -0.322650
C38   C     C_3   0.248629 0.261310 0.890041 -0.921917
H23   H     H_    0.225876 0.258993 0.997106 0.264450
H24   H     H_    0.198715 0.312765 0.827776 0.268197
H25   H     H_    0.253234 0.163442 0.852405 0.243793
H26   H     H_    0.360448 0.322755 0.771595 0.246670
H27   H     H_    0.389792 0.269589 0.937889 0.202429
O9    O     O_3   0.231762 0.654139 0.684722 -0.644344
C39   C     C_3   0.215614 0.781525 0.650031 0.064994
H28   H     H_    0.242102 0.840483 0.733427 0.158460
H29   H     H_    0.143359 0.804351 0.641707 0.146112
C40   C     C_3   0.262929 0.819888 0.519212 -0.888632
H30   H     H_    0.230039 0.776048 0.430312 0.244024
H31   H     H_    0.260309 0.923424 0.507104 0.219867
H32   H     H_    0.333480 0.789987 0.522766 0.256264

loop_
_geom_bond_atom_site_label_1
_geom_bond_atom_site_label_2
_ccdc_geom_bond_type
C24   N1    A    
C23   O5    A    
O5    Zn1   S    
C19   C20   S    
C16   H17   S    
C7    C8    A    
C23   O6    A    
C26   C27   S    
C30   H1    S    
C14   C21   S    
C25   N2    A    
C5    C6    A    
C16   C17   A    
C3    C33   A    
C15   C16   A    
O7    Zn1   S    
C18   C19   A    
O8    Zn2   S    
C21   H4    S    
C8    C9    A    
C36   H19   S    
O2    Zn2   S    
O4    Zn2   S    
C1    C15   S    
C17   H2    S    
C35   H22   S    
C2    C34   A    
C22   C28   S    
C38   H25   S    
C33   C34   A    
C29   O8    A    
C28   H11   S    
C18   C23   S    
C24   C25   A    
C38   H24   S    
C25   H7    S    
C39   H29   S    
O9    C39   S    
C4    C5    A    
O1    Zn1   S    
C6    C34   A    
C20   C35   S    
C1    O1    A    
N2    Zn1   S    
C31   C32   A    
C21   H5    S    
C29   O7    A    
C36   H20   S    
C17   C18   A    
C32   H10   S    
C35   H21   S    
C12   O3    A    
C12   O4    A    
C36   H18   S    
C40   H31   S    
C10   H14   S    
O3    Zn1   S    
C3    C4    A    
C26   N2    A    
C37   H26   S    
C37   H27   S    
C27   C37   S    
C22   N1    A    
C13   O9    S    
C3    H12   S    
C14   C19   A    
C9    H16   S    
C38   H23   S    
N1    Zn2   S    
C39   C40   S    
C11   C12   S    
C6    C7    A    
C40   H32   S    
C28   H9    S    
O6    Zn2   S    
C2    C30   A    
C35   C36   S    
C1    O2    A    
C5    C10   A    
C29   C31   S    
C32   C33   A    
C20   H3    S    
C11   C13   A    
C27   H8    S    
C30   C31   A    
C24   H6    S    
C10   C11   A    
C39   H28   S    
C7    C13   A    
C37   C38   S    
C20   C21   S    
C40   H30   S    
C22   C26   A    
C27   C28   S    
C14   C15   A    
C2    C9    A    
C8    H15   S    
C4    H13   S    
