data_mof_unit_44336.cif
_audit_creation_date              2012-12-10T18:57:48-0500
_audit_creation_method            fapswitch 2.2
_symmetry_space_group_name_H-M    P1
_symmetry_Int_Tables_number       1
_space_group_crystal_system       triclinic
_cell_length_a                    10.686999
_cell_length_b                    9.874722
_cell_length_c                    8.931938
_cell_angle_alpha                 90.003781
_cell_angle_beta                  91.91608
_cell_angle_gamma                 89.996674
_cell_volume                      942.070599906

loop_
_atom_site_label
_atom_site_type_symbol
_atom_type_description
_atom_site_fract_x
_atom_site_fract_y
_atom_site_fract_z
_atom_type_partial_charge
C1    C     C_R   0.260633 0.500540 0.516842 0.944234
C2    C     C_R   0.739358 0.500527 0.483119 0.944199
C3    C     C_R   0.499512 0.499964 0.218638 0.931861
C4    C     C_R   0.500489 0.499968 0.781362 0.931883
C5    C     C_1   0.499854 0.499822 0.065337 -0.194789
C6    C     C_1   0.500151 0.499830 0.934663 -0.194832
C7    C     C_R   0.061196 0.380082 0.526541 0.202167
C8    C     C_R   0.937473 0.627726 0.477445 0.222855
C9    C     C_R   0.938810 0.380058 0.473359 0.202192
C10   C     C_R   0.062486 0.627749 0.522346 0.222863
C11   C     C_R   0.873239 0.503027 0.466980 -0.287405
C12   C     C_R   0.126743 0.503058 0.532895 -0.287392
C13   C     C_R   0.571748 0.072776 0.603729 0.195443
C14   C     C_R   0.428455 0.927445 0.396236 0.207727
C15   C     C_R   0.428251 0.072779 0.396271 0.195334
C16   C     C_R   0.571551 0.927442 0.603758 0.207686
N1    N     N_R   0.500000 0.857200 0.500000 -0.113766
N2    N     N_R   0.500000 0.142800 0.500000 -0.115322
O1    O     O_R   0.316770 0.614620 0.499990 -0.577664
O2    O     O_R   0.683230 0.385380 0.500010 -0.571595
O3    O     O_R   0.683230 0.614620 0.500010 -0.577682
O4    O     O_R   0.316770 0.385380 0.499990 -0.571554
O5    O     O_R   0.500010 0.614640 0.285340 -0.596379
O6    O     O_R   0.499990 0.385360 0.714660 -0.610020
O7    O     O_R   0.499990 0.614640 0.714660 -0.596392
O8    O     O_R   0.500010 0.385360 0.285340 -0.609982
Zn1   Zn    Zn3+2 0.500000 0.653120 0.500000 1.024556
Zn2   Zn    Zn3+2 0.500000 0.346880 0.500000 1.023126
Br1   Br    Br    0.125858 0.217157 0.620719 -0.448736
Br2   Br    Br    0.864428 0.797900 0.409081 -0.434029
Br3   Br    Br    0.874142 0.217041 0.379364 -0.448639
Br4   Br    Br    0.135488 0.797992 0.590547 -0.434087
N3    N     N_2   0.636800 0.147520 0.718027 -0.277568
H1    H     H_    0.590812 0.157058 0.817069 0.225134
C17   C     C_3   0.771729 0.136491 0.732532 -0.614857
H2    H     H_    0.799285 0.086911 0.840173 0.222560
H3    H     H_    0.813135 0.239438 0.732343 0.261260
H4    H     H_    0.810778 0.077212 0.639667 0.285277
N4    N     N_2   0.354672 0.852713 0.289924 -0.242348
H5    H     H_    0.259470 0.865727 0.295989 0.259883
C18   C     C_3   0.398710 0.852732 0.138823 -0.744683
H6    H     H_    0.370688 0.946616 0.078855 0.220375
H7    H     H_    0.356641 0.765786 0.076569 0.253411
H8    H     H_    0.502198 0.842584 0.140130 0.258526
N5    N     N_2   0.363207 0.147521 0.281960 -0.277492
H9    H     H_    0.409172 0.156905 0.182890 0.225067
C19   C     C_3   0.228272 0.136486 0.267475 -0.614732
H10   H     H_    0.200757 0.086602 0.159973 0.222543
H11   H     H_    0.186844 0.239483 0.267344 0.261107
H12   H     H_    0.189205 0.077441 0.360528 0.285383
N6    N     N_2   0.645312 0.852700 0.710082 -0.242385
H13   H     H_    0.740517 0.865630 0.704001 0.259842
C20   C     C_3   0.601282 0.852781 0.861183 -0.744467
H14   H     H_    0.629384 0.946668 0.921152 0.220473
H15   H     H_    0.643301 0.765777 0.923440 0.253380
H16   H     H_    0.497771 0.842701 0.859858 0.258453

loop_
_geom_bond_atom_site_label_1
_geom_bond_atom_site_label_2
_ccdc_geom_bond_type
C15   N2    A    
N6    C20   S    
C13   N3    S    
C7    Br1   S    
O5    Zn1   S    
O7    Zn1   S    
C3    O8    A    
O1    Zn1   S    
C18   H6    S    
C18   H7    S    
O8    Zn2   S    
C17   H2    S    
C16   N6    S    
C8    Br2   S    
C20   H16   S    
C2    O3    A    
C20   H15   S    
N3    H1    S    
O3    Zn1   S    
C1    O4    A    
N4    C18   S    
O4    Zn2   S    
N5    H9    S    
C9    C11   A    
C14   N1    A    
C5    C6    T    
C1    C12   S    
C10   C12   A    
C13   N2    A    
C8    C11   A    
C2    C11   S    
C19   H11   S    
N3    C17   S    
C4    O7    A    
C19   H12   S    
N5    C19   S    
C7    C12   A    
C4    O6    A    
C18   H8    S    
C1    O1    A    
C15   N5    S    
C2    O2    A    
N6    H13   S    
N1    Zn1   S    
C19   H10   S    
C10   Br4   S    
C17   H4    S    
N2    Zn2   S    
C4    C6    S    
C13   C16   A    
N4    H5    S    
C7    C9    A    
C9    Br3   S    
C14   C15   A    
O2    Zn2   S    
C17   H3    S    
C14   N4    S    
C20   H14   S    
C3    O5    A    
C8    C10   A    
O6    Zn2   S    
C16   N1    A    
C3    C5    S    
