data_mof_unit_35497.cif
_audit_creation_date              2012-12-10T17:05:24-0500
_audit_creation_method            fapswitch 2.2
_symmetry_space_group_name_H-M    P1
_symmetry_Int_Tables_number       1
_space_group_crystal_system       triclinic
_cell_length_a                    10.093152
_cell_length_b                    10.622786
_cell_length_c                    15.389892
_cell_angle_alpha                 88.53118
_cell_angle_beta                  67.067417
_cell_angle_gamma                 87.011041
_cell_volume                      1517.55691931

loop_
_atom_site_label
_atom_site_type_symbol
_atom_type_description
_atom_site_fract_x
_atom_site_fract_y
_atom_site_fract_z
_atom_type_partial_charge
C1    C     C_R   0.490693 0.736531 0.509706 0.932413
C2    C     C_R   0.696566 0.365148 0.045712 0.055027
C3    C     C_R   0.577463 0.450725 0.090742 0.052029
C4    C     C_R   0.408400 0.503487 0.676666 0.828515
C5    C     C_R   0.786998 0.328377 0.093268 -0.165411
C6    C     C_R   0.759511 0.374172 0.183173 0.029644
C7    C     C_R   0.572079 0.516633 0.170477 -0.057744
C8    C     C_2   0.511075 0.066939 0.577490 -0.001522
C9    C     C_2   0.518975 0.129046 0.497728 -0.205167
C10   C     C_2   0.532255 0.929884 0.577062 -0.050439
C11   C     C_2   0.462870 0.866711 0.534626 -0.438910
C12   C     C_R   0.395163 0.466329 0.921992 0.087258
C13   C     C_2   0.068642 0.402264 0.515556 -0.134198
C14   C     C_2   0.909827 0.410198 0.535384 -0.062506
C15   C     C_R   0.504801 0.262557 0.498292 0.880560
C16   C     C_R   0.591174 0.495899 0.323819 0.859512
C17   C     C_R   0.347317 0.508336 0.780514 -0.132120
C18   C     C_R   0.649802 0.468427 0.222609 -0.119649
C19   C     C_R   0.162556 0.567018 0.934457 -0.040672
C20   C     C_R   0.207844 0.559733 0.835021 -0.101741
C21   C     C_R   0.436370 0.461424 0.824626 -0.224105
C22   C     C_1   0.471849 0.131313 0.666846 0.232262
C23   C     C_R   0.258576 0.523522 0.977595 0.099808
C24   C     C_1   0.573400 0.071859 0.404920 0.185943
C25   C     C_2   0.623030 0.868521 0.624042 0.480996
C26   C     C_2   0.079643 0.620648 0.524727 0.572256
C27   C     C_2   0.819948 0.312704 0.598194 0.509497
C28   C     C_1   0.500172 0.640645 0.194350 0.210124
C29   C     C_1   0.843443 0.320581 0.233772 0.207223
C30   C     C_2   0.847175 0.234394 0.901240 0.454941
C31   C     C_2   0.021038 0.631623 0.989994 0.444730
C32   C     C_2   0.112442 0.611107 0.788062 0.392384
C33   C     C_R   0.493748 0.426287 0.963705 0.043733
C34   C     C_R   0.467269 0.466687 0.055463 0.070176
C35   C     C_R   0.327745 0.513864 0.111948 -0.215459
C36   C     C_R   0.225469 0.541398 0.074037 -0.178736
C37   C     C_R   0.617532 0.347694 0.916641 -0.177120
C38   C     C_R   0.718001 0.315379 0.956604 -0.022358
H1    H     H_    0.123390 0.582316 0.121144 0.202318
H2    H     H_    0.976990 0.633186 0.584197 0.042630
H3    H     H_    0.704383 0.319916 0.623452 0.112248
H4    H     H_    0.944965 0.234870 0.914435 0.062907
H5    H     H_    0.987898 0.717901 0.963225 0.097836
H6    H     H_    0.155606 0.669652 0.725373 0.085281
H7    H     H_    0.873077 0.257413 0.064711 0.119055
H8    H     H_    0.380562 0.915399 0.515250 0.203079
H9    H     H_    0.118336 0.310012 0.518141 0.215479
H10   H     H_    0.922812 0.552686 0.446330 0.185256
H11   H     H_    0.543359 0.427616 0.780244 0.156574
H12   H     H_    0.294453 0.527210 0.187015 0.167579
H13   H     H_    0.635000 0.305290 0.849888 0.193236
H14   H     H_    0.613958 0.769656 0.643764 0.070750
N1    N     N_2   0.148330 0.498670 0.499030 -0.159461
N2    N     N_2   0.852680 0.498640 0.499000 -0.248919
N3    N     N_1   0.440409 0.182047 0.738221 -0.202787
N4    N     N_1   0.616906 0.026621 0.330832 -0.172828
N5    N     N_1   0.443349 0.739506 0.213460 -0.150155
N6    N     N_1   0.910689 0.277636 0.274254 -0.170684
O1    O     O_R   0.386950 0.680940 0.500010 -0.559632
O2    O     O_2   0.136087 0.713187 0.479741 -0.541070
O3    O     O_2   0.875183 0.222454 0.624325 -0.512891
O4    O     O_2   0.846917 0.167169 0.838101 -0.505122
O5    O     O_2   0.937743 0.586571 0.063387 -0.588384
O6    O     O_2   0.985431 0.586608 0.818147 -0.563512
O7    O     O_R   0.613110 0.680900 0.499990 -0.612577
O8    O     O_R   0.322330 0.500030 0.632270 -0.616565
O9    O     O_R   0.548480 0.499990 0.632240 -0.645763
O10   O     O_R   0.386890 0.319100 0.500010 -0.608227
O11   O     O_R   0.613050 0.319060 0.499990 -0.625285
O12   O     O_R   0.451520 0.500010 0.367760 -0.588977
O13   O     O_R   0.677670 0.499970 0.367730 -0.590355
O14   O     O_2   0.707857 0.929317 0.642677 -0.503574
Zn1   Zn    Zn3+2 0.349000 0.500030 0.500020 1.003642
Zn2   Zn    Zn3+2 0.651000 0.499970 0.499980 0.947725

loop_
_geom_bond_atom_site_label_1
_geom_bond_atom_site_label_2
_ccdc_geom_bond_type
O13   Zn2   S    
C19   C23   A    
C9    C24   S    
C22   N3    T    
C31   H5    S    
C14   C27   S    
C24   N4    T    
O1    Zn1   S    
C8    C22   S    
C35   C36   A    
C1    C11   S    
C7    C18   A    
C19   C31   S    
C2    C38   A    
C6    C29   S    
C35   H12   S    
C21   H11   S    
C33   C34   A    
C9    C15   S    
C25   H14   S    
O11   Zn2   S    
O9    Zn2   S    
N2    Zn2   S    
C13   C14   S    
H10   N2    S    
C12   C33   A    
C12   C23   A    
C26   H2    S    
C37   C38   A    
C16   O13   A    
C25   O14   D    
O12   Zn1   S    
C6    C18   A    
C4    C17   S    
C12   C21   A    
C10   C25   S    
C8    C10   S    
C13   H9    S    
C14   N2    D    
C20   C32   S    
C34   C35   A    
C3    C7    A    
C1    O1    A    
C30   O4    D    
C32   H6    S    
C5    C6    A    
C37   H13   S    
C15   O11   A    
C17   C21   A    
C3    C34   A    
C2    C5    A    
C26   O2    D    
C13   N1    D    
O7    Zn2   S    
C26   N1    S    
C31   O5    D    
C17   C20   A    
C16   O12   A    
C29   N6    T    
C4    O8    A    
C16   C18   S    
C23   C36   A    
C10   C11   D    
C32   O6    D    
C27   H3    S    
N1    Zn1   S    
C30   H4    S    
C11   H8    S    
C2    C3    A    
C27   O3    D    
C30   C38   S    
O10   Zn1   S    
C28   N5    T    
O8    Zn1   S    
C5    H7    S    
C1    O7    A    
C36   H1    S    
C33   C37   A    
C7    C28   S    
C19   C20   A    
C15   O10   A    
C8    C9    D    
C4    O9    A    
