data_mof_unit_8239.cif
_audit_creation_date              2012-10-26T20:55:10-0400
_audit_creation_method            fapswitch 2.2
_symmetry_space_group_name_H-M    P1
_symmetry_Int_Tables_number       1
_space_group_crystal_system       triclinic
_cell_length_a                    10.9179
_cell_length_b                    15.836442
_cell_length_c                    17.043763
_cell_angle_alpha                 96.577603
_cell_angle_beta                  91.484927
_cell_angle_gamma                 91.578517
_cell_volume                      2925.11587302

loop_
_atom_site_label
_atom_site_type_symbol
_atom_type_description
_atom_site_fract_x
_atom_site_fract_y
_atom_site_fract_z
_atom_type_partial_charge
C1    C     C_R   0.502839 0.489008 0.348264 0.620043
C2    C     C_R   0.544617 0.408963 0.213387 0.216808
C3    C     C_R   0.554320 0.465101 0.860439 0.235583
C4    C     C_R   0.260228 0.500395 0.498105 0.697752
C5    C     C_R   0.553143 0.458803 0.777920 -0.189614
C6    C     C_R   0.487069 0.529387 0.903026 0.288332
C7    C     C_R   0.492522 0.518096 0.737717 0.002468
C8    C     C_R   0.431253 0.585376 0.779915 0.207741
C9    C     C_R   0.425279 0.589080 0.863281 0.219620
C10   C     C_R   0.441907 0.749553 0.458809 0.081207
C11   C     C_R   0.451879 0.837144 0.453014 0.194153
C12   C     C_3   0.878744 0.496457 0.491447 -0.071019
C13   C     C_R   0.534924 0.889518 0.504677 0.193498
C14   C     C_R   0.612108 0.847966 0.555524 0.211208
C15   C     C_R   0.598894 0.759444 0.557451 0.066839
C16   C     C_R   0.497969 0.510834 0.651400 0.588960
C17   C     C_R   0.503013 0.160065 0.557240 0.210792
C18   C     C_R   0.523823 0.247980 0.554287 0.372606
C19   C     C_R   0.461885 0.107720 0.488557 0.101109
C20   C     C_R   0.427648 0.238333 0.427305 0.361251
C21   C     C_R   0.420252 0.148301 0.423690 0.211460
C22   C     C_R   0.740231 0.498546 0.495100 0.623002
C23   C     C_3   0.933950 0.528511 0.576194 0.022903
C24   C     C_3   0.071534 0.404992 0.472925 0.387879
C25   C     C_3   0.928065 0.401970 0.469244 0.051222
C26   C     C_3   0.075477 0.537614 0.576391 0.037137
C27   C     C_3   0.077473 0.556847 0.429451 0.358044
C28   C     C_3   0.122933 0.499959 0.494258 0.074678
C29   C     C_3   0.929698 0.552413 0.423751 0.407924
C30   C     C_R   0.501377 0.481505 0.261093 -0.008974
C31   C     C_R   0.448993 0.547486 0.224961 -0.168916
C32   C     C_R   0.438839 0.543194 0.143470 -0.121764
C33   C     C_R   0.474229 0.470233 0.095816 0.187279
C34   C     C_R   0.518505 0.400217 0.130741 0.255335
Cu1   Cu    Cu3+1 0.493900 0.415220 0.496180 1.142506
Cu2   Cu    Cu3+1 0.506100 0.584780 0.503820 1.071688
H1    H     H_    0.103838 0.605700 0.588666 0.203646
H2    H     H_    0.702850 0.712202 0.379957 0.352031
H3    H     H_    0.815164 0.593222 0.640348 0.332988
H4    H     H_    0.662910 0.369533 0.862153 0.358742
H5    H     H_    0.464984 0.245916 0.955667 0.393854
H6    H     H_    0.805643 0.267726 0.215130 0.383839
H7    H     H_    0.378401 0.700336 0.772597 0.350395
H8    H     H_    0.288343 0.664976 0.874296 0.350185
H9    H     H_    0.091573 0.311377 0.389333 0.371598
H10   H     H_    0.636748 0.335932 0.596562 0.390717
H11   H     H_    0.358666 0.039952 0.647054 0.357148
H12   H     H_    0.603635 0.409248 0.745046 0.180921
H13   H     H_    0.898144 0.872868 0.672356 0.386816
H14   H     H_    0.330411 0.324149 0.389856 0.379170
H15   H     H_    0.439829 0.908517 0.370130 0.387069
H16   H     H_    0.200500 0.158210 0.302135 0.362523
H17   H     H_    0.847836 0.272784 0.629442 0.410655
H18   H     H_    0.106699 0.532058 0.688724 0.366002
H19   H     H_    0.085950 0.671414 0.492495 0.359338
H20   H     H_    0.109697 0.567041 0.318667 0.387722
H21   H     H_    0.939671 0.467108 0.326931 0.362938
H22   H     H_    0.400858 0.596442 0.117576 0.195219
H23   H     H_    0.415875 0.603223 0.260003 0.173321
H24   H     H_    0.657250 0.727722 0.596355 0.205195
H25   H     H_    0.379125 0.710180 0.419164 0.201404
H26   H     H_    0.899065 0.382108 0.407513 0.194088
H27   H     H_    0.910226 0.479609 0.615767 0.202900
H28   H     H_    0.078804 0.364595 0.578993 0.400457
N1    N     N_2   0.471282 0.466199 0.012254 -0.086292
N2    N     N_2   0.481566 0.536525 0.986554 -0.154342
N3    N     N_R   0.515260 0.712130 0.509560 -0.310207
N4    N     N_2   0.545221 0.980993 0.506264 -0.105687
N5    N     N_2   0.450276 0.016547 0.485523 -0.145225
N6    N     N_R   0.484730 0.287850 0.490450 -0.277533
O1    O     O_R   0.494300 0.420530 0.382500 -0.450517
O2    O     O_2   0.867189 0.709029 0.501934 -0.222259
O3    O     O_2   0.947786 0.707771 0.369608 -0.190317
O4    O     O_3   0.727550 0.652543 0.380502 -0.443827
O5    O     O_3   0.885925 0.606190 0.607780 -0.644358
O6    O     O_3   0.622205 0.410567 0.900651 -0.590851
O7    O     O_2   0.666414 0.306464 0.034805 -0.175461
O8    O     O_2   0.527536 0.227418 0.112891 -0.150866
O9    O     O_3   0.435858 0.292798 0.993458 -0.460685
O10   O     O_2   0.709165 0.379360 0.327799 -0.272342
O11   O     O_2   0.576667 0.259647 0.271773 -0.148390
O12   O     O_R   0.504600 0.563720 0.388950 -0.502566
O13   O     O_3   0.756049 0.308657 0.189197 -0.436866
O14   O     O_3   0.377426 0.645328 0.738466 -0.659711
O15   O     O_3   0.356954 0.648100 0.907675 -0.646103
O16   O     O_3   0.112806 0.373202 0.397886 -0.656163
O17   O     O_3   0.586587 0.291759 0.617513 -0.620211
O18   O     O_2   0.656273 0.110721 0.666238 -0.129366
O19   O     O_2   0.474774 0.183955 0.714075 -0.217254
O20   O     O_3   0.446445 0.027203 0.653406 -0.445563
O21   O     O_2   0.781474 0.975516 0.577711 -0.181480
O22   O     O_2   0.671280 0.938109 0.693491 -0.172795
O23   O     O_R   0.312540 0.428400 0.496760 -0.462930
O24   O     O_3   0.838653 0.837420 0.637066 -0.477276
O25   O     O_3   0.374457 0.274712 0.366291 -0.589599
O26   O     O_3   0.385685 0.867218 0.393017 -0.597279
O27   O     O_2   0.452871 0.039969 0.294666 -0.187152
O28   O     O_2   0.262928 0.022042 0.364649 -0.211710
O29   O     O_3   0.279738 0.144825 0.277243 -0.383564
O30   O     O_2   0.747295 0.278375 0.471605 -0.226885
O31   O     O_2   0.952747 0.236155 0.495883 -0.206257
O32   O     O_3   0.852779 0.329254 0.609815 -0.581478
O33   O     O_3   0.128975 0.498574 0.638498 -0.701012
O34   O     O_R   0.322840 0.571590 0.503210 -0.484702
O35   O     O_3   0.126893 0.640880 0.447331 -0.634419
O36   O     O_3   0.127676 0.525696 0.356781 -0.639228
O37   O     O_3   0.885888 0.512375 0.349238 -0.619235
O38   O     O_R   0.495400 0.436280 0.611050 -0.509430
O39   O     O_R   0.505700 0.579470 0.617500 -0.474021
O40   O     O_R   0.677160 0.428410 0.496790 -0.469221
O41   O     O_R   0.687460 0.571600 0.503240 -0.439220
O42   O     O_3   0.119690 0.352987 0.528049 -0.580192
S1    S     S_3+6 0.869640 0.659306 0.421646 0.129783
S2    S     S_3+6 0.540632 0.303570 0.068394 0.156432
S3    S     S_3+6 0.646625 0.337665 0.253590 0.125623
S4    S     S_3+6 0.521925 0.120710 0.650188 0.145229
S5    S     S_3+6 0.727112 0.903664 0.617214 0.112931
S6    S     S_3+6 0.353021 0.086218 0.339036 0.140393
S7    S     S_3+6 0.867134 0.308646 0.511543 0.020041

loop_
_geom_bond_atom_site_label_1
_geom_bond_atom_site_label_2
_ccdc_geom_bond_type
C11   O26   S    
C18   N6    A    
C12   C29   S    
C27   C29   S    
C15   H24   S    
Cu1   Cu2   S    
C24   O42   S    
C32   H22   S    
C3    C6    A    
C6    C9    A    
Cu2   N3    S    
C33   N1    S    
C7    C8    A    
C10   N3    A    
C12   C23   S    
C1    O1    A    
H19   O35   S    
C19   C21   A    
C30   C31   A    
O24   S5    S    
H14   O25   S    
H28   O42   S    
C27   O35   S    
C12   C22   S    
O3    S1    D    
C23   C26   S    
C31   H23   S    
O27   S6    D    
Cu1   O38   S    
C9    O15   S    
Cu1   N6    S    
Cu2   O12   S    
N4    N5    D    
C22   O40   A    
O21   S5    D    
O28   S6    D    
H3    O5    S    
H13   O24   S    
H15   O26   S    
C2    C34   A    
C23   H27   S    
O19   S4    D    
Cu1   O1    S    
C13   C14   A    
H7    O14   S    
C20   N6    A    
O8    S2    D    
C25   S7    S    
C4    C28   S    
C16   O39   A    
C33   C34   A    
Cu1   O23   S    
C5    H12   S    
O31   S7    D    
O13   S3    S    
H18   O33   S    
C24   C25   S    
C5    C7    A    
C8    C9    A    
C27   O36   S    
C1    O12   A    
O4    S1    S    
O2    S1    D    
H4    O6    S    
O18   S4    D    
O22   S5    D    
C21   S6    S    
C26   O33   S    
C2    S3    S    
C31   C32   A    
O10   S3    D    
H17   O32   S    
C14   S5    S    
C15   N3    A    
O11   S3    D    
Cu2   O41   S    
C17   C18   A    
O30   S7    D    
C3    O6    S    
H20   O36   S    
Cu1   O40   S    
C7    C16   S    
H21   O37   S    
C20   O25   S    
N1    N2    D    
O20   S4    S    
H11   O20   S    
C19   N5    S    
C10   H25   S    
H8    O15   S    
Cu2   O39   S    
H10   O17   S    
H2    O4    S    
C29   S1    S    
C8    O14   S    
H6    O13   S    
C24   C28   S    
C23   O5    S    
C3    C5    A    
H5    O9    S    
C26   H1    S    
C34   S2    S    
H16   O29   S    
C26   C28   S    
C18   O17   S    
C2    C30   A    
C12   C25   S    
Cu2   O34   S    
C32   C33   A    
H9    O16   S    
O29   S6    S    
C11   C13   A    
C4    O34   A    
C1    C30   S    
C17   C19   A    
C25   H26   S    
C10   C11   A    
C16   O38   A    
C4    O23   A    
C6    N2    S    
C20   C21   A    
C22   O41   A    
O9    S2    S    
C27   C28   S    
C14   C15   A    
C29   O37   S    
C24   O16   S    
O32   S7    S    
O7    S2    D    
C17   S4    S    
C13   N4    S    
