data_mof_unit_16963.cif
_audit_creation_date              2013-03-05T15:55:36-0500
_audit_creation_method            fapswitch 2.2
_symmetry_space_group_name_H-M    P1
_symmetry_Int_Tables_number       1
_space_group_crystal_system       triclinic
_cell_length_a                    12.323464
_cell_length_b                    12.964553
_cell_length_c                    15.899234
_cell_angle_alpha                 77.692868
_cell_angle_beta                  101.042787
_cell_angle_gamma                 116.116444
_cell_volume                      2214.55933934

loop_
_atom_site_label
_atom_site_type_symbol
_atom_site_description
_atom_site_fract_x
_atom_site_fract_y
_atom_site_fract_z
_atom_type_partial_charge
O1    O     O_R   0.972520 0.318130 0.524690 -0.580392
O2    O     O_R   0.806530 0.359650 0.491530 -0.604260
C1    C     C_R   0.855119 0.285091 0.505955 0.816701
O3    O     O_R   0.083030 0.479240 0.637150 -0.545569
O4    O     O_R   0.917040 0.520750 0.603990 -0.600676
C2    C     C_R   0.999325 0.499471 0.659468 0.834986
Cu1   Cu    Cu3+1 0.098280 0.475420 0.519630 0.998465
Cu2   Cu    Cu3+1 0.901720 0.524580 0.480370 0.947813
O5    O     O_R   0.193470 0.640350 0.508470 -0.575943
O6    O     O_R   0.027480 0.681870 0.475310 -0.589818
O7    O     O_R   0.082960 0.479250 0.396010 -0.565756
O8    O     O_R   0.916970 0.520760 0.362850 -0.573068
C3    C     C_R   0.144657 0.715451 0.488532 0.833469
C4    C     C_R   0.000384 0.499957 0.340591 0.820385
C5    C     C_3   0.998831 0.365963 0.971630 0.298152
C6    C     C_3   0.882896 0.498015 0.933089 -0.213120
C7    C     C_3   0.880380 0.495347 0.031707 0.120757
H1    H     H_    0.803140 0.424740 0.907704 0.249030
H2    H     H_    0.879076 0.578140 0.038472 0.194386
C8    C     C_1   0.999946 0.497383 0.251804 -0.038216
C9    C     C_3   0.001224 0.487561 0.918808 0.025569
C10   C     C_3   0.008477 0.371186 0.074799 0.282974
C11   C     C_3   0.000860 0.490172 0.085316 -0.118891
C12   C     C_3   0.111952 0.607224 0.047841 0.314082
C13   C     C_3   0.115974 0.595366 0.950900 -0.123981
C14   C     C_1   0.999695 0.494235 0.177000 0.149891
C15   C     C_1   0.998419 0.492821 0.824936 0.068153
C16   C     C_1   0.997542 0.496704 0.748875 -0.115449
H3    H     H_    0.107470 0.671004 0.907244 0.227156
C17   C     C_R   0.270425 0.049297 0.441545 0.179847
H4    H     H_    0.453532 0.239180 0.368842 0.174069
C18   C     C_R   0.225257 0.841817 0.481428 -0.120970
C19   C     C_R   0.813410 0.072543 0.552143 0.129304
C20   C     C_R   0.731514 0.968121 0.596015 0.092563
C21   C     C_R   0.606358 0.943736 0.585656 0.288435
C22   C     C_R   0.561552 0.016626 0.523082 -0.024133
C23   C     C_R   0.645938 0.125256 0.486305 0.005880
C24   C     C_R   0.435225 0.986861 0.497015 0.103553
C25   C     C_R   0.395488 0.073277 0.453195 0.127071
C26   C     C_R   0.480688 0.177298 0.414045 -0.196342
C27   C     C_R   0.602120 0.198012 0.424880 -0.109276
C28   C     C_R   0.349519 0.871762 0.504549 -0.193288
C29   C     C_R   0.183497 0.931793 0.452821 0.162651
C30   C     C_R   0.772085 0.158927 0.510622 -0.144817
H5    H     H_    0.380680 0.803496 0.522341 0.204232
H6    H     H_    0.661231 0.272295 0.384430 0.189338
C31   C     C_R   0.339640 0.317042 0.630945 -0.209439
H7    H     H_    0.165265 0.302712 0.648590 0.148065
H8    H     H_    0.335617 0.248455 0.684303 0.209631
N1    N     N_R   0.246300 0.438200 0.549400 -0.200120
C32   C     C_R   0.758278 0.642342 0.380875 0.031338
C33   C     C_R   0.656340 0.664322 0.345795 -0.015417
C34   C     C_R   0.547264 0.602351 0.384930 0.355454
C35   C     C_R   0.545159 0.525400 0.464263 -0.151921
C36   C     C_R   0.650871 0.502640 0.493685 0.169867
C37   C     C_R   0.442421 0.467400 0.514489 -0.052835
C38   C     C_R   0.440221 0.375669 0.582871 0.021951
C39   C     C_R   0.541007 0.347936 0.605180 0.270552
C40   C     C_R   0.645686 0.415731 0.564675 -0.208271
C41   C     C_R   0.343376 0.499381 0.502762 0.156119
C42   C     C_R   0.242907 0.348635 0.612159 0.071427
N2    N     N_R   0.754300 0.561180 0.451130 -0.209709
H9    H     H_    0.342872 0.574769 0.459076 0.175356
H10   H     H_    0.839774 0.685047 0.348554 0.156536
H11   H     H_    0.720531 0.393954 0.589286 0.228895
N3    N     N_R   0.910816 0.264959 0.116308 0.151014
O9    O     O_R   0.903030 0.163083 0.110589 -0.326311
O10   O     O_R   0.856928 0.268877 0.177552 -0.308463
N4    N     N_R   0.096838 0.339233 0.952495 0.128882
O11   O     O_R   0.143282 0.381280 0.879209 -0.351618
O12   O     O_R   0.109124 0.246455 0.994770 -0.301018
C43   C     C_3   0.128784 0.367327 0.126240 -0.670563
H12   H     H_    0.206769 0.409614 0.088113 0.220626
H13   H     H_    0.153106 0.404608 0.187324 0.226940
H14   H     H_    0.120265 0.276968 0.146858 0.281732
N5    N     N_R   0.089445 0.711652 0.046600 0.110533
O13   O     O_R   0.142921 0.806331 0.994137 -0.328900
O14   O     O_R   0.052563 0.723630 0.113943 -0.356051
C44   C     C_3   0.048923 0.902842 0.429933 -0.793192
H15   H     H_    0.999623 0.855126 0.487576 0.237058
H16   H     H_    0.026918 0.978745 0.406478 0.232102
H17   H     H_    0.013072 0.850430 0.376149 0.237631
C45   C     C_3   0.230512 0.148214 0.420359 -0.816305
H18   H     H_    0.306160 0.233871 0.429309 0.237977
H19   H     H_    0.186719 0.152581 0.352620 0.251246
H20   H     H_    0.166326 0.135259 0.465961 0.233141
C46   C     C_3   0.941655 0.089260 0.547333 -0.799623
H21   H     H_    0.942266 0.006662 0.539020 0.223965
H22   H     H_    0.979627 0.150962 0.489339 0.242319
H23   H     H_    0.000785 0.119749 0.607062 0.236327
N6    N     N_R   0.528609 0.853396 0.645167 0.108320
O15   O     O_R   0.465980 0.876913 0.689530 -0.294650
O16   O     O_R   0.517196 0.747133 0.653352 -0.378974
C47   C     C_3   0.776773 0.885657 0.658534 -0.714567
H24   H     H_    0.877082 0.920749 0.671938 0.221856
H25   H     H_    0.742842 0.867571 0.722311 0.267091
H26   H     H_    0.744093 0.803058 0.632117 0.239946
C48   C     C_3   0.878546 0.264831 0.938915 -0.630021
H27   H     H_    0.884986 0.179987 0.954877 0.285740
H28   H     H_    0.797838 0.253188 0.966718 0.255155
H29   H     H_    0.859104 0.277888 0.867347 0.216708
N7    N     N_R   0.539906 0.251574 0.670153 0.127543
O17   O     O_R   0.634211 0.263129 0.727090 -0.358431
O18   O     O_R   0.455503 0.147894 0.662517 -0.328772
N8    N     N_R   0.437093 0.604128 0.336287 0.087753
O19   O     O_R   0.350426 0.508740 0.312597 -0.404659
O20   O     O_R   0.424892 0.701261 0.312397 -0.388382
C49   C     C_3   0.662913 0.748178 0.263057 -0.677201
H30   H     H_    0.753439 0.784940 0.239078 0.219786
H31   H     H_    0.593487 0.703282 0.211731 0.261163
H32   H     H_    0.646821 0.821635 0.274386 0.265200
C50   C     C_3   0.863683 0.604262 0.878428 -0.811046
H33   H     H_    0.773673 0.598057 0.887473 0.269204
H34   H     H_    0.933305 0.687638 0.897921 0.268825
H35   H     H_    0.863293 0.606539 0.808218 0.245891
N9    N     N_R   0.767138 0.406746 0.066280 0.172914
O21   O     O_R   0.739486 0.418644 0.137615 -0.310042
O22   O     O_R   0.682549 0.331958 0.019823 -0.312598
C51   C     C_3   0.239859 0.609152 0.930277 -0.703077
H36   H     H_    0.268105 0.541668 0.968608 0.260019
H37   H     H_    0.237493 0.607348 0.860463 0.270893
H38   H     H_    0.311746 0.695222 0.943576 0.247310
C52   C     C_3   0.237015 0.634968 0.105512 -0.658911
H39   H     H_    0.301240 0.726073 0.085599 0.262361
H40   H     H_    0.227797 0.629069 0.174559 0.260903
H41   H     H_    0.286024 0.583410 0.101983 0.204879

loop_
_geom_bond_atom_site_label_1
_geom_bond_atom_site_label_2
_geom_bond_distance
_ccdc_geom_bond_type
N3    O10   1.300090 A    
C46   H21   1.109973 S    
C6    C9    1.584378 S    
C36   C40   1.403440 A    
C49   H30   1.111049 S    
C3    C18   1.488210 S    
C21   C22   1.426822 A    
C50   H34   1.106823 S    
C38   C39   1.402757 A    
Cu1   Cu2   2.696982 S    
C31   H8    1.080995 S    
C34   C35   1.428357 A    
C37   C38   1.424368 A    
Cu1   O7    1.930195 S    
N8    O20   1.301385 A    
C7    C11   1.585546 S    
C41   H9    1.073320 S    
C22   C23   1.413947 A    
N5    O14   1.302513 A    
C24   C28   1.393303 A    
O3    Cu1   1.926433 S    
O4    C2    1.297037 A    
O7    C4    1.296214 A    
C52   H40   1.108271 S    
N6    O16   1.301774 A    
C29   C44   1.517459 S    
C36   N2    1.384998 A    
N9    O21   1.301998 A    
C20   C21   1.414757 A    
C11   C14   1.472859 S    
C17   C45   1.519106 S    
N4    O12   1.303146 A    
O5    C3    1.312004 A    
C10   N3    1.496080 S    
N7    O17   1.301561 A    
H4    C26   1.081936 S    
C5    C10   1.635521 S    
C2    C16   1.418441 S    
N9    O22   1.301098 A    
C6    C7    1.566903 S    
C27   H6    1.081448 S    
C39   N7    1.438168 S    
N3    O9    1.303154 A    
C9    C15   1.473882 S    
N4    O11   1.300938 A    
C32   N2    1.353431 A    
C43   H14   1.109959 S    
C13   C51   1.548160 S    
C10   C43   1.566161 S    
C50   H33   1.111388 S    
C51   H37   1.109748 S    
C13   H3    1.107607 S    
C5    N4    1.491835 S    
C35   C37   1.448878 A    
C1    C30   1.493912 S    
C32   C33   1.396203 A    
C4    C8    1.418065 S    
C52   H39   1.111442 S    
C12   C13   1.593309 S    
C43   H13   1.108024 S    
N6    O15   1.301360 A    
C44   H16   1.104859 S    
C12   N5    1.492445 S    
C52   H41   1.095030 S    
C47   H26   1.110217 S    
C39   C40   1.389281 A    
C12   C52   1.567367 S    
C37   C41   1.421934 A    
O1    C1    1.307331 A    
C28   H5    1.077794 S    
C47   H25   1.110316 S    
C31   C38   1.408596 A    
C45   H18   1.107998 S    
Cu2   O8    1.926433 S    
C19   C20   1.414950 A    
N5    O13   1.303327 A    
N7    O18   1.301420 A    
O3    C2    1.294935 A    
C26   C27   1.381433 A    
C45   H19   1.110247 S    
O8    C4    1.295686 A    
C48   H28   1.102378 S    
C46   H22   1.109214 S    
C17   C29   1.421565 A    
O4    Cu2   1.930195 S    
C5    C48   1.572010 S    
C25   C26   1.398021 A    
C33   C34   1.412803 A    
C6    C50   1.551341 S    
C51   H38   1.110488 S    
Cu1   O5    1.920771 S    
C9    C13   1.581463 S    
C35   C36   1.431487 A    
O1    Cu1   1.939624 S    
C19   C30   1.416873 A    
Cu2   O6    1.939624 S    
O2    Cu2   1.920771 S    
C32   H10   1.079875 S    
C20   C47   1.517126 S    
Cu1   N1    2.032512 S    
C43   H12   1.099668 S    
O6    C3    1.299309 A    
C31   C42   1.385405 A    
C44   H17   1.107619 S    
C51   H36   1.103442 S    
C48   H29   1.109044 S    
N8    O19   1.301353 A    
C49   H32   1.109866 S    
N1    C41   1.365218 A    
C23   C30   1.414560 A    
C22   C24   1.427012 A    
O2    C1    1.306887 A    
C19   C46   1.512700 S    
C40   H11   1.061820 S    
H7    C42   1.081318 S    
C24   C25   1.414185 A    
C8    C14   1.198056 T    
C7    H2    1.108612 S    
C18   C29   1.430066 A    
C49   H31   1.110545 S    
C17   C25   1.414088 A    
C23   C27   1.410241 A    
C47   H24   1.107139 S    
C11   C12   1.621762 S    
C44   H15   1.110154 S    
C34   N8    1.435162 S    
C5    C9    1.611086 S    
C45   H20   1.109211 S    
C33   C49   1.507497 S    
C6    H1    1.104927 S    
C48   H27   1.109397 S    
C46   H23   1.109246 S    
C15   C16   1.197749 T    
N1    C42   1.350931 A    
C18   C28   1.397372 A    
C10   C11   1.630890 S    
C50   H35   1.109504 S    
C7    N9    1.477331 S    
Cu2   N2    2.020673 S    
C21   N6    1.439421 S    
