data_mof_unit_39714.cif
_audit_creation_date              2012-12-11T14:43:37-0500
_audit_creation_method            fapswitch 2.2
_symmetry_space_group_name_H-M    P1
_symmetry_Int_Tables_number       1
_space_group_crystal_system       triclinic
_cell_length_a                    20.939579
_cell_length_b                    7.098932
_cell_length_c                    16.4731
_cell_angle_alpha                 90.000483
_cell_angle_beta                  93.164555
_cell_angle_gamma                 89.998206
_cell_volume                      2444.97001886

loop_
_atom_site_label
_atom_site_type_symbol
_atom_type_description
_atom_site_fract_x
_atom_site_fract_y
_atom_site_fract_z
_atom_type_partial_charge
O1    O     O_R   0.564840 0.505290 0.579830 -0.524448
O2    O     O_R   0.435160 0.005290 0.420170 -0.524421
O3    O     O_R   0.556720 0.179930 0.409350 -0.527184
O4    O     O_R   0.443280 0.679930 0.590650 -0.527194
C1    C     C_R   0.571251 0.345755 0.382568 0.715663
C2    C     C_R   0.428750 0.845757 0.617433 0.715605
O5    O     O_R   0.572280 0.175810 0.578530 -0.539904
O6    O     O_R   0.427720 0.675810 0.421470 -0.539908
O7    O     O_R   0.450830 0.001920 0.590540 -0.540136
O8    O     O_R   0.549170 0.501920 0.409460 -0.540150
C3    C     C_R   0.589777 0.344753 0.605076 0.738747
C4    C     C_R   0.410226 0.844756 0.394919 0.738746
O9    O     O_3   0.460130 0.338030 0.503750 -0.374013
O10   O     O_3   0.539870 0.838030 0.496250 -0.374044
V1    V     V_3+5 0.507400 0.064560 0.499310 1.523704
V2    V     V_3+5 0.492600 0.564560 0.500690 1.523681
C5    C     C_R   0.143056 0.904577 0.168376 -0.145138
C6    C     C_R   0.856942 0.404631 0.831629 -0.145085
C7    C     C_R   0.358526 0.860589 0.329822 -0.124661
C8    C     C_R   0.641476 0.360559 0.670174 -0.124637
C9    C     C_R   0.317834 0.007784 0.203876 -0.059251
C10   C     C_R   0.682118 0.507364 0.796230 -0.059293
C11   C     C_R   0.368693 0.965246 0.259210 0.251218
C12   C     C_R   0.631273 0.464928 0.740856 0.251131
C13   C     C_R   0.297214 0.787956 0.340834 -0.206661
C14   C     C_R   0.702818 0.288199 0.659100 -0.206719
C15   C     C_R   0.245567 0.825390 0.283743 0.061129
C16   C     C_R   0.754455 0.325591 0.716208 0.061101
C17   C     C_R   0.255626 0.941716 0.215304 0.009852
C18   C     C_R   0.744351 0.441548 0.784750 0.009781
C19   C     C_R   0.203830 0.985257 0.158834 0.254686
C20   C     C_R   0.796134 0.485023 0.841250 0.254590
C21   C     C_R   0.134273 0.787561 0.235474 -0.212969
C22   C     C_R   0.865776 0.288013 0.764418 -0.213180
C23   C     C_R   0.184069 0.750081 0.293307 0.297088
C24   C     C_R   0.815993 0.250632 0.706555 0.297101
H1    H     H_    0.087943 0.723583 0.242818 0.153360
H2    H     H_    0.912140 0.224317 0.756999 0.153337
H3    H     H_    0.328222 0.090940 0.151288 0.217414
H4    H     H_    0.671703 0.590271 0.848880 0.217416
H5    H     H_    0.290066 0.706772 0.395160 0.168690
H6    H     H_    0.709993 0.207269 0.604711 0.168642
C25   C     C_R   0.386304 0.876268 0.834583 -0.046788
C26   C     C_R   0.613706 0.376027 0.165417 -0.046785
H7    H     H_    0.472642 0.887945 0.771501 0.168534
H8    H     H_    0.527370 0.387952 0.228494 0.168596
H9    H     H_    0.413223 0.882240 0.892380 0.192059
H10   H     H_    0.586791 0.381926 0.107616 0.192049
C27   C     C_R   0.389999 0.858487 0.688914 -0.047212
C28   C     C_R   0.610005 0.358477 0.311090 -0.047238
C29   C     C_R   0.084045 0.949167 0.739685 -0.156305
C30   C     C_R   0.915936 0.449430 0.260291 -0.156283
C31   C     C_R   0.117838 0.962742 0.669893 -0.081822
C32   C     C_R   0.882138 0.463122 0.330074 -0.081764
C33   C     C_R   0.183686 0.937050 0.673328 -0.104508
C34   C     C_R   0.816297 0.437300 0.326649 -0.104416
C35   C     C_R   0.217803 0.891462 0.747125 0.050462
C36   C     C_R   0.782196 0.391450 0.252872 0.050431
C37   C     C_R   0.182886 0.869044 0.819151 -0.031785
C38   C     C_R   0.817119 0.368901 0.180857 -0.031788
C39   C     C_R   0.285985 0.872758 0.751369 0.038830
C40   C     C_R   0.714019 0.372664 0.248635 0.038834
C41   C     C_R   0.319015 0.863956 0.828882 0.006273
C42   C     C_R   0.680992 0.363656 0.171126 0.006282
C43   C     C_R   0.284835 0.831677 0.898588 0.275937
C44   C     C_R   0.715175 0.331131 0.101442 0.275968
C45   C     C_R   0.217867 0.812706 0.891518 0.093546
C46   C     C_R   0.782149 0.312298 0.108517 0.093657
C47   C     C_R   0.322838 0.861811 0.681359 -0.186446
C48   C     C_R   0.677167 0.361825 0.318647 -0.186493
C49   C     C_R   0.421040 0.877388 0.765292 -0.102174
C50   C     C_R   0.578969 0.377322 0.234707 -0.102193
C51   C     C_R   0.114933 0.905018 0.814793 -0.056615
C52   C     C_R   0.885062 0.405036 0.185202 -0.056607
H11   H     H_    0.300782 0.850931 0.620767 0.101194
H12   H     H_    0.699225 0.351035 0.379242 0.101236
H13   H     H_    0.033028 0.976682 0.735262 0.122118
H14   H     H_    0.966945 0.477065 0.264703 0.122100
H15   H     H_    0.207056 0.960394 0.617502 0.125445
H16   H     H_    0.792917 0.460770 0.382458 0.125490
H17   H     H_    0.092905 0.999062 0.612697 0.150591
H18   H     H_    0.907059 0.499657 0.387251 0.150612
O11   O     O_R   0.950790 0.256670 0.090520 -0.534950
O12   O     O_R   0.049210 0.756670 0.909480 -0.534945
O13   O     O_R   0.927720 0.590370 0.921470 -0.519818
O14   O     O_R   0.072280 0.090370 0.078530 -0.519772
C53   C     C_R   0.910303 0.421003 0.894770 0.757608
C54   C     C_R   0.089694 0.920996 0.105236 0.757622
O15   O     O_R   0.943270 0.586180 0.090640 -0.535413
O16   O     O_R   0.056730 0.086180 0.909360 -0.535416
O17   O     O_R   0.064850 0.759970 0.079840 -0.535422
O18   O     O_R   0.935150 0.259970 0.920160 -0.535414
C55   C     C_R   0.926087 0.416143 0.114392 0.713386
C56   C     C_R   0.073906 0.916142 0.885600 0.713328
O19   O     O_3   0.039850 0.428050 0.996240 -0.359270
O20   O     O_3   0.960150 0.928050 0.003760 -0.359292
V3    V     V_3+5 0.992610 0.701540 0.000700 1.564669
V4    V     V_3+5 0.007390 0.201540 0.999300 1.564705
Br1   Br    Br    0.215985 0.146898 0.066701 -0.471221
Br2   Br    Br    0.783933 0.646251 0.933504 -0.471454
I1    I     I_    0.179395 0.625762 0.976739 -0.202699
I2    I     I_    0.820675 0.125358 0.023325 -0.202623
Br3   Br    Br    0.165081 0.588445 0.382436 -0.564768
Br4   Br    Br    0.835065 0.089715 0.617224 -0.564817
Br5   Br    Br    0.452555 0.044459 0.232986 -0.524910
Br6   Br    Br    0.547388 0.543945 0.767093 -0.524882
Br7   Br    Br    0.330356 0.788862 0.002858 -0.435495
Br8   Br    Br    0.669643 0.287747 0.997220 -0.435442

loop_
_geom_bond_atom_site_label_1
_geom_bond_atom_site_label_2
_ccdc_geom_bond_type
C36   C40   A    
C44   C46   A    
C41   C43   A    
H7    C49   S    
C5    C54   S    
O1    C3    A    
O2    C4    A    
C2    O7    A    
O19   V4    S    
O18   V4    S    
C26   C42   A    
O5    C3    A    
C45   I1    S    
O12   V3    S    
C46   I2    S    
C23   Br3   S    
O14   C54   A    
C35   C37   A    
C15   C17   A    
C36   C38   A    
O11   C55   A    
C40   C48   A    
C31   H17   S    
C38   C52   A    
C39   C41   A    
C28   C50   A    
C40   C42   A    
C37   C45   A    
C8    C12   A    
C43   C45   A    
O11   V4    S    
O20   V4    S    
C26   C50   A    
C19   Br1   S    
C37   C51   A    
H8    C50   S    
C43   Br7   S    
O5    V1    S    
O6    V2    S    
C27   C47   A    
C53   O18   A    
C52   C55   S    
C5    C21   A    
C51   C56   S    
C30   H14   S    
C30   C32   A    
O16   C56   A    
C31   C33   A    
C32   C34   A    
C3    C8    S    
O13   C53   A    
C25   C41   A    
O4    C2    A    
C13   H5    S    
C15   C23   A    
C9    C17   A    
C21   H1    S    
C20   Br2   S    
O15   V3    S    
C29   C31   A    
C42   C44   A    
O4    V2    S    
C7    C11   A    
C29   H13   S    
C33   H15   S    
C9    H3    S    
C54   O17   A    
O6    C4    A    
C10   H4    S    
O20   V3    S    
O1    V2    S    
O12   C56   A    
O17   V3    S    
O2    V1    S    
C6    C22   A    
C38   C46   A    
C9    C11   A    
C48   H12   S    
C5    C19   A    
C10   C12   A    
C1    C28   S    
C6    C20   A    
C32   H18   S    
O3    V1    S    
C14   H6    S    
C39   C47   A    
C25   C49   A    
C10   C18   A    
C22   H2    S    
C14   C16   A    
C29   C51   A    
C44   Br8   S    
O3    C1    A    
O19   V3    S    
C35   C39   A    
C13   C15   A    
C30   C52   A    
C6    C53   S    
C34   H16   S    
C24   Br4   S    
C33   C35   A    
C28   C48   A    
C1    O8    A    
C17   C19   A    
O8    V2    S    
C18   C20   A    
C8    C14   A    
C4    C7    S    
C16   C18   A    
C21   C23   A    
C34   C36   A    
C47   H11   S    
C22   C24   A    
C2    C27   S    
O15   C55   A    
O14   V4    S    
O13   V3    S    
C7    C13   A    
C12   Br6   S    
C16   C24   A    
C27   C49   A    
O9    V2    S    
O10   V1    S    
C25   H9    S    
O16   V4    S    
C26   H10   S    
O7    V1    S    
C11   Br5   S    
