data_mof_unit_53801.cif
_audit_creation_date              2012-10-26T20:40:16-0400
_audit_creation_method            fapswitch 2.2
_symmetry_space_group_name_H-M    P1
_symmetry_Int_Tables_number       1
_space_group_crystal_system       triclinic
_cell_length_a                    15.075122
_cell_length_b                    10.800977
_cell_length_c                    9.601023
_cell_angle_alpha                 90.205856
_cell_angle_beta                  89.946075
_cell_angle_gamma                 91.828684
_cell_volume                      1562.48982202

loop_
_atom_site_label
_atom_site_type_symbol
_atom_type_description
_atom_site_fract_x
_atom_site_fract_y
_atom_site_fract_z
_atom_type_partial_charge
C1    C     C_R   0.497774 0.262706 0.499780 0.539781
C2    C     C_R   0.185444 0.501336 0.373352 -0.131548
C3    C     C_R   0.231661 0.495932 0.499901 -0.002823
C4    C     C_R   0.328678 0.497480 0.499970 0.578788
C5    C     C_R   0.184999 0.490255 0.626393 -0.150091
C6    C     C_R   0.353651 0.130872 0.641163 -0.127034
C7    C     C_R   0.286129 0.068927 0.713084 -0.159984
C8    C     C_R   0.282301 0.940776 0.715576 -0.104855
C9    C     C_R   0.346233 0.871644 0.645293 0.257448
C10   C     C_R   0.418206 0.933694 0.574640 0.065342
C11   C     C_R   0.421072 0.065372 0.573194 -0.012849
C12   C     C_R   0.906843 0.496002 0.627490 0.016924
C13   C     C_R   0.489720 0.128871 0.499393 0.007556
C14   C     C_R   0.551897 0.064712 0.422831 -0.141273
C15   C     C_R   0.550188 0.937117 0.423813 -0.160375
C16   C     C_R   0.494092 0.736992 0.500407 0.605324
C17   C     C_R   0.486090 0.870838 0.500905 0.023380
C18   C     C_R   0.618057 0.662596 0.144222 -0.130215
C19   C     C_R   0.676230 0.741538 0.072688 -0.174860
C20   C     C_R   0.676551 0.742264 0.928067 0.208934
C21   C     C_R   0.617906 0.663065 0.856614 -0.030790
C22   C     C_R   0.557993 0.580093 0.925508 0.107626
C23   C     C_R   0.954129 0.509626 0.246367 -0.130652
C24   C     C_R   0.558026 0.579942 0.074942 0.145227
C25   C     C_R   0.444734 0.424091 0.073647 0.000709
C26   C     C_R   0.444754 0.424117 0.925767 0.005907
C27   C     C_R   0.671277 0.500715 0.499956 0.538125
C28   C     C_R   0.814460 0.497235 0.626612 -0.118119
C29   C     C_R   0.768231 0.501616 0.499978 -0.007954
C30   C     C_R   0.814839 0.506282 0.373406 -0.140516
C31   C     C_R   0.907238 0.505440 0.372518 0.012537
C32   C     C_R   0.953467 0.499884 0.499984 0.061373
C33   C     C_R   0.046577 0.508165 0.246344 -0.131577
C34   C     C_R   0.093051 0.502387 0.372462 0.013061
C35   C     C_R   0.046416 0.498091 0.499937 0.063202
C36   C     C_R   0.092629 0.492006 0.627359 0.010752
C37   C     C_R   0.045750 0.488270 0.753536 -0.134902
C38   C     C_R   0.953323 0.490447 0.753614 -0.124309
Cu1   Cu    Cu3+1 0.499990 0.499990 0.640660 0.957096
Cu2   Cu    Cu3+1 0.500010 0.500010 0.359340 0.937063
H1    H     H_    0.778701 0.494040 0.724657 0.136043
H2    H     H_    0.779379 0.510281 0.275389 0.129474
H3    H     H_    0.399433 0.361869 0.870392 0.105641
H4    H     H_    0.919324 0.513976 0.147858 0.106729
H5    H     H_    0.081703 0.511527 0.147813 0.101782
H6    H     H_    0.221220 0.505383 0.275362 0.125479
H7    H     H_    0.220455 0.485371 0.724339 0.117029
H8    H     H_    0.080552 0.483838 0.852032 0.100092
H9    H     H_    0.918204 0.487550 0.852166 0.108248
H10   H     H_    0.603611 0.113932 0.364807 0.132756
H11   H     H_    0.284363 0.717666 0.697719 0.313907
H12   H     H_    0.350970 0.230623 0.637626 0.133723
H13   H     H_    0.770420 0.869601 0.918511 0.328137
H14   H     H_    0.235350 0.120737 0.765035 0.117881
H15   H     H_    0.227654 0.894846 0.770044 0.101811
H16   H     H_    0.601002 0.889559 0.366497 0.114703
H17   H     H_    0.399405 0.361825 0.128610 0.113056
H18   H     H_    0.623377 0.670969 0.253856 0.184881
H19   H     H_    0.721043 0.802681 0.130870 0.105180
H20   H     H_    0.622505 0.671169 0.746942 0.202858
N1    N     N_R   0.500860 0.501210 0.147910 -0.237446
N2    N     N_R   0.500890 0.501290 0.852040 -0.242386
O1    O     O_R   0.499990 0.319640 0.618810 -0.505185
O2    O     O_3   0.733196 0.819538 0.852820 -0.703578
O3    O     O_R   0.500000 0.319660 0.381240 -0.503063
O4    O     O_R   0.370250 0.499960 0.618800 -0.486803
O5    O     O_R   0.370260 0.499980 0.381230 -0.506287
O6    O     O_R   0.500000 0.680340 0.618760 -0.474859
O7    O     O_R   0.500010 0.680360 0.381190 -0.523819
O8    O     O_R   0.629740 0.500020 0.618770 -0.530372
O9    O     O_R   0.629750 0.500040 0.381200 -0.527555
O10   O     O_3   0.336359 0.744687 0.640852 -0.679486

loop_
_geom_bond_atom_site_label_1
_geom_bond_atom_site_label_2
_ccdc_geom_bond_type
C24   N1    A    
Cu2   O9    S    
C27   C29   S    
C33   H5    S    
Cu1   O6    S    
C35   C36   A    
C9    O10   S    
C7    C8    A    
C38   H9    S    
C2    H6    S    
C5    H7    S    
C37   C38   A    
C12   C28   A    
C18   C24   A    
C28   C29   A    
C18   C19   A    
C30   C31   A    
H13   O2    S    
C10   C17   A    
C5    C36   A    
C28   H1    S    
C34   C35   A    
C18   H18   S    
C19   C20   A    
C8    C9    A    
C23   C33   A    
Cu2   O5    S    
C1    O3    A    
C16   O6    A    
C9    C10   A    
C2    C34   A    
C13   C14   A    
C12   C32   A    
C25   H17   S    
C1    O1    A    
C8    H15   S    
C26   H3    S    
Cu2   O7    S    
C32   C35   A    
C21   H20   S    
C6    C11   A    
C16   C17   S    
C19   H19   S    
C25   C26   A    
C23   H4    S    
C23   C31   A    
C20   O2    S    
C29   C30   A    
C22   N2    A    
C31   C32   A    
C33   C34   A    
C25   N1    A    
C37   H8    S    
C27   O8    A    
Cu2   O3    S    
Cu1   O4    S    
C22   C24   A    
C1    C13   S    
H11   O10   S    
C3    C4    S    
Cu1   Cu2   S    
C27   O9    A    
C15   C17   A    
Cu1   N2    S    
C36   C37   A    
C16   O7    A    
C3    C5    A    
C4    O5    A    
C6    C7    A    
Cu1   O1    S    
C15   H16   S    
C2    C3    A    
C26   N2    A    
C4    O4    A    
C11   C13   A    
C14   H10   S    
Cu1   O8    S    
C12   C38   A    
C10   C11   A    
Cu2   N1    S    
C20   C21   A    
C14   C15   A    
C30   H2    S    
C7    H14   S    
C6    H12   S    
C21   C22   A    
