data_mof_unit_46219.cif
_audit_creation_date              2012-12-10T18:04:53-0500
_audit_creation_method            fapswitch 2.2
_symmetry_space_group_name_H-M    P1
_symmetry_Int_Tables_number       1
_space_group_crystal_system       triclinic
_cell_length_a                    10.837578
_cell_length_b                    9.597642
_cell_length_c                    17.846807
_cell_angle_alpha                 88.705799
_cell_angle_beta                  93.636675
_cell_angle_gamma                 89.621089
_cell_volume                      1852.06821706

loop_
_atom_site_label
_atom_site_type_symbol
_atom_type_description
_atom_site_fract_x
_atom_site_fract_y
_atom_site_fract_z
_atom_type_partial_charge
C1    C     C_R   0.262337 0.500274 0.500490 0.822771
C2    C     C_R   0.493493 0.498279 0.644316 0.822767
C3    C     C_R   0.871571 0.499568 0.498875 -0.053921
C4    C     C_R   0.128427 0.500429 0.501102 -0.053996
C5    C     C_R   0.472991 0.624946 0.844283 -0.084622
C6    C     C_R   0.527720 0.374899 0.155806 -0.084874
C7    C     C_R   0.465296 0.621080 0.149738 -0.092475
C8    C     C_R   0.534759 0.378557 0.850195 -0.092817
C9    C     C_R   0.453624 0.618676 0.765443 -0.116656
C10   C     C_R   0.546886 0.381321 0.234649 -0.116549
C11   C     C_R   0.484501 0.628097 0.228412 -0.071127
C12   C     C_R   0.737662 0.499726 0.499503 0.822887
C13   C     C_R   0.515301 0.371677 0.771531 -0.071240
C14   C     C_R   0.484095 0.494769 0.727835 -0.060224
C15   C     C_R   0.515991 0.505172 0.272177 -0.060304
C16   C     C_R   0.416302 0.077553 0.454448 0.076442
C17   C     C_R   0.583714 0.922447 0.545543 0.076351
C18   C     C_R   0.586489 0.071457 0.544167 0.081482
C19   C     C_R   0.413506 0.928546 0.455838 0.081820
C20   C     C_R   0.510494 0.503954 0.886177 0.074709
C21   C     C_R   0.490002 0.495721 0.113833 0.074608
C22   C     C_2   0.451208 0.758221 0.882911 0.400394
C23   C     C_1   0.504053 0.501615 0.966594 0.146209
C24   C     C_2   0.549919 0.241644 0.117261 0.400274
C25   C     C_2   0.421013 0.747049 0.105004 0.427003
C26   C     C_2   0.578823 0.252411 0.894846 0.427107
C27   C     C_2   0.395472 0.740943 0.723861 0.383999
C28   C     C_2   0.605241 0.259274 0.276328 0.383747
C29   C     C_2   0.473973 0.766844 0.262530 0.314139
C30   C     C_2   0.525186 0.232893 0.737356 0.314775
C31   C     C_2   0.338222 0.155897 0.397004 0.534558
C32   C     C_2   0.661866 0.844095 0.602948 0.534544
C33   C     C_2   0.685971 0.143171 0.589513 0.356937
C34   C     C_1   0.496552 0.497966 0.033424 0.146157
C35   C     C_2   0.313998 0.856837 0.410512 0.357211
C36   C     C_R   0.065676 0.374710 0.510596 -0.082103
C37   C     C_R   0.934321 0.625284 0.489371 -0.082190
C38   C     C_R   0.937879 0.374197 0.508724 -0.132578
C39   C     C_R   0.062118 0.625798 0.491246 -0.132779
C40   C     C_R   0.506501 0.501715 0.355686 0.822746
Cu1   Cu    Cu3+1 0.500000 0.640660 0.500000 1.006556
Cu2   Cu    Cu3+1 0.500000 0.359340 0.500000 1.006571
H1    H     H_    0.114941 0.276770 0.519865 0.213816
H2    H     H_    0.574431 0.154379 0.264090 0.064061
H3    H     H_    0.389375 0.827556 0.252959 0.050821
H4    H     H_    0.609499 0.171668 0.746908 0.050223
H5    H     H_    0.374308 0.181658 0.343217 0.016119
H6    H     H_    0.625831 0.818236 0.656734 0.015942
H7    H     H_    0.670799 0.241579 0.614649 0.113000
H8    H     H_    0.329125 0.758369 0.385429 0.113087
H9    H     H_    0.885056 0.723222 0.480095 0.213785
H10   H     H_    0.891448 0.275864 0.515213 0.212734
H11   H     H_    0.108549 0.724131 0.484754 0.212678
H12   H     H_    0.375999 0.827551 0.863216 0.090688
H13   H     H_    0.625332 0.172631 0.137003 0.090838
H14   H     H_    0.451620 0.850226 0.121025 0.095352
H15   H     H_    0.547822 0.149360 0.878857 0.094936
H16   H     H_    0.426576 0.845726 0.736109 0.063416
N1    N     N_R   0.500000 0.852070 0.500000 -0.238063
N2    N     N_R   0.500000 0.147930 0.500000 -0.238040
O1    O     O_R   0.319640 0.618740 0.499990 -0.594697
O2    O     O_2   0.481198 0.205632 0.064475 -0.506641
O3    O     O_2   0.346109 0.736813 0.051399 -0.503536
O4    O     O_2   0.653982 0.262350 0.948345 -0.503034
O5    O     O_2   0.308992 0.725490 0.677577 -0.489826
O6    O     O_2   0.691560 0.275043 0.322684 -0.490101
O7    O     O_2   0.562694 0.817820 0.297214 -0.512517
O8    O     O_2   0.436237 0.182481 0.702627 -0.511980
O9    O     O_2   0.231191 0.185373 0.407592 -0.509319
O10   O     O_2   0.768907 0.814726 0.592329 -0.509288
O11   O     O_2   0.790017 0.093669 0.598259 -0.530580
O12   O     O_R   0.680360 0.381260 0.500010 -0.594495
O13   O     O_2   0.209981 0.906407 0.401726 -0.530759
O14   O     O_R   0.680360 0.618740 0.500010 -0.557026
O15   O     O_R   0.319640 0.381260 0.499990 -0.556842
O16   O     O_R   0.500000 0.618830 0.391250 -0.579568
O17   O     O_R   0.500000 0.381170 0.608750 -0.579721
O18   O     O_R   0.500000 0.618830 0.608750 -0.588456
O19   O     O_R   0.500000 0.381170 0.391250 -0.588560
O20   O     O_2   0.520039 0.793881 0.935724 -0.506751

loop_
_geom_bond_atom_site_label_1
_geom_bond_atom_site_label_2
_ccdc_geom_bond_type
C4    C36   A    
C8    C13   A    
C12   O14   A    
C8    C26   S    
Cu1   Cu2   S    
C25   H14   S    
Cu1   O1    S    
C22   H12   S    
C5    C20   A    
C16   C31   S    
C7    C11   A    
Cu2   O15   S    
C8    C20   A    
C2    O18   A    
C10   C15   A    
C16   N2    A    
C37   H9    S    
C38   H10   S    
C33   H7    S    
C25   O3    D    
C26   O4    D    
C3    C12   S    
Cu1   O14   S    
C29   O7    D    
C11   C15   A    
C5    C22   S    
C3    C38   A    
C20   C23   S    
C12   O12   A    
Cu2   O19   S    
C31   H5    S    
C13   C14   A    
C32   H6    S    
C18   C33   S    
C1    O15   A    
C13   C30   S    
Cu1   N1    S    
Cu2   N2    S    
Cu1   O18   S    
C32   O10   D    
C21   C34   S    
C19   N1    A    
C7    C21   A    
C6    C21   A    
C28   H2    S    
C40   O16   A    
C29   H3    S    
C24   H13   S    
C28   O6    D    
C9    C14   A    
C5    C9    A    
C27   O5    D    
C4    C39   A    
C23   C34   T    
C6    C24   S    
C35   H8    S    
Cu2   O12   S    
C17   C18   A    
C40   O19   A    
C11   C29   S    
C17   N1    A    
C18   N2    A    
C9    C27   S    
C10   C28   S    
C35   O13   D    
C24   O2    D    
C30   H4    S    
C27   H16   S    
C1    O1    A    
C6    C10   A    
C7    C25   S    
C1    C4    S    
C36   C38   A    
C22   O20   D    
C37   C39   A    
C2    O17   A    
C19   C35   S    
Cu1   O16   S    
C39   H11   S    
C16   C19   A    
C2    C14   S    
C26   H15   S    
C15   C40   S    
C33   O11   D    
C31   O9    D    
C3    C37   A    
Cu2   O17   S    
C17   C32   S    
C36   H1    S    
C30   O8    D    
