data_mof_unit_65510.cif
_audit_creation_date              2012-12-10T17:58:28-0500
_audit_creation_method            fapswitch 2.2
_symmetry_space_group_name_H-M    P1
_symmetry_Int_Tables_number       1
_space_group_crystal_system       triclinic
_cell_length_a                    38.206231
_cell_length_b                    21.619796
_cell_length_c                    21.613481
_cell_angle_alpha                 89.999982
_cell_angle_beta                  123.475633
_cell_angle_gamma                 89.999743
_cell_volume                      14891.528957

loop_
_atom_site_label
_atom_site_type_symbol
_atom_type_description
_atom_site_fract_x
_atom_site_fract_y
_atom_site_fract_z
_atom_type_partial_charge
C1    C     C_R   0.999580 0.000006 0.119578 0.908575
C2    C     C_3   0.773455 0.950428 0.817408 -0.021395
C3    C     C_3   0.273701 0.566929 0.784094 -0.104618
C4    C     C_3   0.274622 0.063156 0.254464 -0.452823
C5    C     C_3   0.725377 0.063165 0.745516 -0.452826
C6    C     C_3   0.774621 0.563221 0.254600 -0.452863
C7    C     C_3   0.225377 0.563197 0.745449 -0.452847
C8    C     C_1   0.374393 0.000144 0.376191 -0.190322
C9    C     C_1   0.625607 0.000144 0.623810 -0.190322
C10   C     C_1   0.874393 0.500144 0.376183 -0.190324
C11   C     C_1   0.125607 0.500143 0.623814 -0.190324
C12   C     C_3   0.208683 0.000096 0.211872 0.190280
C13   C     C_3   0.726544 0.450545 0.182450 -0.021416
C14   C     C_3   0.791316 0.000097 0.788132 0.190284
C15   C     C_3   0.708683 0.500104 0.211841 0.190306
C16   C     C_3   0.291317 0.500102 0.788148 0.190296
C17   C     C_3   0.273514 0.986330 0.342456 -0.435328
C18   C     C_3   0.726487 0.986307 0.657552 -0.435326
C19   C     C_3   0.773511 0.486158 0.342388 -0.435333
C20   C     C_3   0.226488 0.486220 0.657588 -0.435335
C21   C     C_3   0.291107 0.999855 0.293985 0.241179
C22   C     C_3   0.708893 0.999855 0.706018 0.241179
C23   C     C_3   0.791106 0.499858 0.293956 0.241199
C24   C     C_3   0.273456 0.450497 0.817492 -0.021410
C25   C     C_3   0.208894 0.499856 0.706035 0.241192
C26   C     C_3   0.179286 0.920673 0.309516 0.102991
C27   C     C_3   0.196923 0.922419 0.392622 -0.372135
C28   C     C_3   0.161741 0.920770 0.406220 -0.953465
C29   C     C_3   0.820715 0.920631 0.690516 0.102995
C30   C     C_3   0.803079 0.922351 0.607409 -0.372147
C31   C     C_3   0.838261 0.920689 0.593812 -0.953445
C32   C     C_3   0.679292 0.420339 0.309287 0.103026
C33   C     C_3   0.696940 0.421912 0.392403 -0.372171
C34   C     C_3   0.661766 0.420134 0.406017 -0.953464
C35   C     C_1   0.336854 0.000054 0.339532 -0.069663
C36   C     C_3   0.320710 0.420466 0.690626 0.103009
C37   C     C_3   0.303065 0.422104 0.607513 -0.372121
C38   C     C_3   0.338240 0.420390 0.593902 -0.953537
C39   C     C_3   0.902537 0.033961 0.086051 0.064605
C40   C     C_3   0.875821 0.047123 0.117783 -0.367727
C41   C     C_3   0.846605 0.102135 0.079945 -0.968045
C42   C     C_3   0.097474 0.033908 0.913945 0.064608
C43   C     C_3   0.124186 0.047050 0.882201 -0.367721
C44   C     C_3   0.153428 0.102033 0.920058 -0.968025
C45   C     C_3   0.402596 0.534219 0.086044 0.064557
C46   C     C_1   0.663146 0.000054 0.660470 -0.069662
C47   C     C_3   0.375873 0.547500 0.117735 -0.367754
C48   C     C_3   0.346795 0.602667 0.080003 -0.968174
C49   C     C_3   0.597370 0.534381 0.913965 0.064543
C50   C     C_3   0.624103 0.547724 0.882310 -0.367771
C51   C     C_3   0.653111 0.602966 0.919999 -0.968217
C52   C     C_3   0.991276 0.189430 0.340430 0.070391
C53   C     C_3   0.968865 0.162512 0.262237 -0.316136
C54   C     C_3   0.996095 0.167206 0.230885 -0.959263
C55   C     C_3   0.008743 0.189443 0.659598 0.070398
C56   C     C_3   0.031157 0.162498 0.737779 -0.316136
C57   C     C_1   0.836853 0.500054 0.339512 -0.069654
C58   C     C_3   0.003941 0.167206 0.769160 -0.959245
C59   C     C_3   0.491415 0.689424 0.340539 0.070349
C60   C     C_3   0.469034 0.662558 0.262325 -0.316138
C61   C     C_3   0.496319 0.667218 0.231079 -0.959304
C62   C     C_3   0.508521 0.689389 0.659372 0.070326
C63   C     C_3   0.530887 0.662590 0.737617 -0.316151
C64   C     C_3   0.503556 0.667209 0.768772 -0.959343
C65   C     C_3   0.203888 0.103852 0.141500 -0.400877
C66   C     C_3   0.174105 0.153409 0.138618 -0.355429
C67   C     C_3   0.148066 0.183669 0.062356 -0.879547
C68   C     C_1   0.163146 0.500053 0.660481 -0.069656
C69   C     C_3   0.796111 0.103875 0.858468 -0.400881
C70   C     C_3   0.825896 0.153419 0.861335 -0.355437
C71   C     C_3   0.851935 0.183696 0.937588 -0.879560
C72   C     C_3   0.703885 0.604042 0.141755 -0.400943
C73   C     C_3   0.674078 0.653489 0.138996 -0.355481
C74   C     C_3   0.648027 0.683884 0.062816 -0.879655
C75   C     C_3   0.296112 0.603974 0.858337 -0.400927
C76   C     C_3   0.325909 0.653462 0.861141 -0.355462
C77   C     C_3   0.351957 0.683806 0.937351 -0.879631
C78   C     C_3   0.211171 0.957123 0.099828 -0.440721
C79   C     C_1   0.162853 0.999857 0.166617 -0.112938
C80   C     C_3   0.219524 0.898307 0.069867 -0.353596
C81   C     C_3   0.201218 0.903810 0.987046 -0.867245
C82   C     C_3   0.788830 0.957160 0.900191 -0.440720
C83   C     C_3   0.780477 0.898356 0.930169 -0.353594
C84   C     C_3   0.798782 0.903876 0.012989 -0.867256
C85   C     C_3   0.711170 0.457435 0.099681 -0.440676
C86   C     C_3   0.719516 0.398710 0.069569 -0.353593
C87   C     C_3   0.701218 0.404377 0.986766 -0.867320
C88   C     C_3   0.288831 0.457322 0.900267 -0.440691
C89   C     C_3   0.280486 0.398563 0.930327 -0.353596
C90   C     C_1   0.837147 0.999858 0.833387 -0.112933
C91   C     C_3   0.298785 0.404172 0.013136 -0.867291
C92   C     C_1   0.662853 0.499861 0.166589 -0.112886
C93   C     C_R   0.000421 0.000006 0.880423 0.908569
C94   C     C_1   0.337147 0.499861 0.833401 -0.112895
C95   C     C_1   0.125386 0.999886 0.127914 -0.212852
C96   C     C_1   0.874614 0.999886 0.872088 -0.212852
C97   C     C_1   0.625385 0.499887 0.127896 -0.212835
C98   C     C_1   0.374614 0.499888 0.872097 -0.212840
C99   C     C_R   0.962134 0.987375 0.180724 0.496577
C100  C     C_R   0.037862 0.987352 0.819272 0.496597
C101  C     C_R   0.462120 0.487475 0.180706 0.496491
C102  C     C_R   0.537890 0.487548 0.819307 0.496424
C103  C     C_R   0.963635 0.982603 0.245961 -0.286068
C104  C     C_R   0.499582 0.500006 0.119579 0.908608
C105  C     C_R   0.036360 0.982579 0.754033 -0.286082
C106  C     C_R   0.463613 0.482701 0.245936 -0.286033
C107  C     C_R   0.536402 0.482778 0.754083 -0.285996
C108  C     C_R   0.000839 0.996340 0.313700 -0.098146
C109  C     C_R   0.999160 0.996339 0.686298 -0.098156
C110  C     C_R   0.500835 0.496338 0.313694 -0.098201
C111  C     C_R   0.499167 0.496342 0.686311 -0.098183
C112  C     C_R   0.037736 0.009914 0.317301 -0.178862
C113  C     C_R   0.962267 0.009936 0.682701 -0.178845
C114  C     C_R   0.537749 0.509813 0.317311 -0.178854
C115  C     C_R   0.500416 0.500006 0.880419 0.908629
C116  C     C_R   0.462241 0.509741 0.682681 -0.178880
C117  C     C_R   0.037060 0.011040 0.252746 -0.275924
C118  C     C_R   0.962944 0.011063 0.747256 -0.275923
C119  C     C_R   0.537075 0.510939 0.252759 -0.275877
C120  C     C_R   0.462914 0.510865 0.747232 -0.275866
C121  C     C_R   0.081034 0.999984 0.081607 0.914166
C122  C     C_R   0.918966 0.999984 0.918394 0.914173
C123  C     C_R   0.581034 0.499984 0.081602 0.914233
C124  C     C_R   0.418966 0.499984 0.918396 0.914208
C125  C     C_R   0.999414 0.999871 0.185113 -0.100547
C126  C     C_3   0.275313 0.949306 0.233886 -0.415144
C127  C     C_R   0.000587 0.999871 0.814886 -0.100567
C128  C     C_R   0.499415 0.499872 0.185113 -0.100533
C129  C     C_R   0.500583 0.499871 0.814887 -0.100487
C130  C     C_R   0.500000 0.186419 0.500000 -0.005601
C131  C     C_R   0.000000 0.686419 0.500000 -0.005605
C132  C     C_R   0.500000 0.879826 0.500000 0.926144
C133  C     C_R   1.000000 0.379827 0.500000 0.926130
C134  C     C_R   0.418895 0.000192 0.419435 0.907086
C135  C     C_R   0.581105 0.000192 0.580565 0.907088
C136  C     C_R   0.918894 0.500192 0.419434 0.907079
C137  C     C_3   0.724687 0.949322 0.766135 -0.415148
C138  C     C_R   0.081105 0.500191 0.580566 0.907081
C139  C     C_R   0.500000 0.120421 0.500000 0.859213
C140  C     C_R   1.000000 0.620421 0.500000 0.859215
C141  C     C_R   0.000000 0.879445 0.500000 0.865052
C142  C     C_R   0.500000 0.379446 0.500000 0.865062
C143  C     C_R   0.000346 0.998528 0.379715 0.901630
C144  C     C_R   0.999654 0.998527 0.620284 0.901630
C145  C     C_R   0.500345 0.498526 0.379714 0.901714
C146  C     C_R   0.499655 0.498527 0.620287 0.901712
C147  C     C_R   1.000000 0.120203 0.500000 0.981658
C148  C     C_3   0.775313 0.449428 0.233722 -0.415173
C149  C     C_R   0.500000 0.620202 0.500000 0.981745
C150  C     C_R   0.481777 0.781873 0.432813 -0.288309
C151  C     C_R   0.518220 0.781873 0.567184 -0.288272
C152  C     C_R   0.981725 0.281876 0.432806 -0.288349
C153  C     C_R   0.018276 0.281876 0.567195 -0.288364
C154  C     C_R   0.982497 0.217742 0.432472 0.414683
C155  C     C_R   0.017504 0.217742 0.567530 0.414683
C156  C     C_R   0.482550 0.717739 0.432482 0.414647
C157  C     C_R   0.517445 0.717740 0.567513 0.414650
C158  C     C_3   0.224724 0.982399 0.293787 0.315198
C159  C     C_3   0.224688 0.449383 0.766220 -0.415167
C160  C     C_3   0.775277 0.982377 0.706223 0.315194
C161  C     C_3   0.724722 0.482229 0.293707 0.315181
C162  C     C_3   0.275277 0.482292 0.706264 0.315185
C163  C     C_R   1.000000 0.186151 0.500000 -0.235240
C164  C     C_R   0.499999 0.686149 0.499998 -0.235217
C165  C     C_R   0.500000 0.813543 0.499999 -0.150748
C166  C     C_R   1.000000 0.313545 0.500000 -0.150642
C167  C     C_R   0.473187 0.217997 0.433664 -0.185471
C168  C     C_R   0.526813 0.217997 0.566336 -0.185474
C169  C     C_R   0.973188 0.717997 0.433664 -0.185468
C170  C     C_3   0.226545 0.950412 0.182613 -0.021390
C171  C     C_R   0.026812 0.717997 0.566336 -0.185468
C172  C     C_R   0.972726 0.781870 0.433893 -0.185214
C173  C     C_R   0.027274 0.781869 0.566107 -0.185215
C174  C     C_R   0.472725 0.281870 0.433894 -0.185214
C175  C     C_R   0.527275 0.281869 0.566106 -0.185212
C176  C     C_R   0.000000 0.813449 0.500000 -0.006831
C177  C     C_R   0.500000 0.313449 0.500000 -0.006839
C178  C     C_3   0.226298 0.066901 0.215810 -0.104651
C179  C     C_3   0.773701 0.066906 0.784170 -0.104646
C180  C     C_3   0.726298 0.566944 0.215960 -0.104610
H1    H     H_    0.283497 0.023716 0.384416 0.133769
H2    H     H_    0.710162 0.956661 0.798236 0.173402
H3    H     H_    0.135065 0.144100 0.913811 0.268075
H4    H     H_    0.171077 0.110938 0.893879 0.269505
H5    H     H_    0.176357 0.092148 0.979666 0.262730
H6    H     H_    0.381402 0.529932 0.024873 0.163688
H7    H     H_    0.423662 0.574107 0.096353 0.125264
H8    H     H_    0.356794 0.506199 0.110820 0.234560
H9    H     H_    0.396456 0.558156 0.177715 0.216009
H10   H     H_    0.365287 0.644622 0.086413 0.268059
H11   H     H_    0.329138 0.611671 0.106145 0.269558
H12   H     H_    0.323869 0.592935 0.020354 0.262847
H13   H     H_    0.789839 0.456872 0.201640 0.173398
H14   H     H_    0.618554 0.530118 0.975141 0.163691
H15   H     H_    0.576268 0.574231 0.903617 0.125351
H16   H     H_    0.643236 0.506471 0.889301 0.234558
H17   H     H_    0.603527 0.558321 0.822313 0.216019
H18   H     H_    0.634566 0.644871 0.913537 0.268051
H19   H     H_    0.670768 0.612025 0.893868 0.269582
H20   H     H_    0.676039 0.593286 0.979661 0.262886
H21   H     H_    0.020357 0.162206 0.377668 0.134665
H22   H     H_    0.999980 0.238176 0.337968 0.138706
H23   H     H_    0.961225 0.113318 0.263723 0.227169
H24   H     H_    0.210163 0.456782 0.798310 0.173398
H25   H     H_    0.939022 0.187914 0.225173 0.227539
H26   H     H_    0.002317 0.216468 0.225621 0.259353
H27   H     H_    0.979656 0.145576 0.175132 0.267821
H28   H     H_    0.026431 0.143014 0.267646 0.273700
H29   H     H_    0.979650 0.162244 0.622359 0.134653
H30   H     H_    0.000061 0.238194 0.662093 0.138707
H31   H     H_    0.038776 0.113298 0.736263 0.227169
H32   H     H_    0.061012 0.187873 0.774843 0.227538
H33   H     H_    0.997743 0.216471 0.774459 0.259350
H34   H     H_    0.020381 0.145553 0.824900 0.267818
H35   H     H_    0.935416 0.969945 0.243351 0.167541
H36   H     H_    0.973594 0.143043 0.732397 0.273692
H37   H     H_    0.520474 0.662164 0.377796 0.134744
H38   H     H_    0.500154 0.738164 0.338145 0.138678
H39   H     H_    0.461349 0.613375 0.263740 0.227203
H40   H     H_    0.439217 0.688010 0.225236 0.227519
H41   H     H_    0.502589 0.716471 0.225885 0.259354
H42   H     H_    0.479896 0.645624 0.175307 0.267869
H43   H     H_    0.526629 0.642972 0.267867 0.273683
H44   H     H_    0.479496 0.662062 0.622111 0.134776
H45   H     H_    0.499724 0.738113 0.661680 0.138679
H46   H     H_    0.064575 0.969903 0.756639 0.167531
H47   H     H_    0.538628 0.613422 0.736283 0.227202
H48   H     H_    0.560673 0.688111 0.774713 0.227521
H49   H     H_    0.497225 0.716452 0.773879 0.259361
H50   H     H_    0.519973 0.645666 0.824571 0.267884
H51   H     H_    0.473277 0.642891 0.731974 0.273695
H52   H     H_    0.168805 0.203488 0.046341 0.262817
H53   H     H_    0.126640 0.149116 0.020368 0.261688
H54   H     H_    0.128789 0.221442 0.063643 0.250200
H55   H     H_    0.152361 0.132365 0.151664 0.233667
H56   H     H_    0.192803 0.189660 0.180747 0.215697
H57   H     H_    0.435377 0.470123 0.243305 0.167604
H58   H     H_    0.227081 0.127468 0.133832 0.202469
H59   H     H_    0.185329 0.072582 0.093710 0.209112
H60   H     H_    0.831197 0.203528 0.953596 0.262824
H61   H     H_    0.873360 0.149148 0.979587 0.261698
H62   H     H_    0.871213 0.221460 0.936289 0.250201
H63   H     H_    0.847640 0.132362 0.848298 0.233669
H64   H     H_    0.807200 0.189664 0.819194 0.215698
H65   H     H_    0.772917 0.127504 0.866123 0.202466
H66   H     H_    0.814668 0.072614 0.906269 0.209112
H67   H     H_    0.668757 0.703816 0.046844 0.262879
H68   H     H_    0.564651 0.470259 0.756728 0.167636
H69   H     H_    0.626605 0.649382 0.020740 0.261789
H70   H     H_    0.628745 0.721590 0.064212 0.250215
H71   H     H_    0.652341 0.632322 0.151982 0.233695
H72   H     H_    0.692758 0.689684 0.181223 0.215704
H73   H     H_    0.727079 0.627779 0.134183 0.202438
H74   H     H_    0.685350 0.572852 0.093870 0.209104
H75   H     H_    0.331224 0.703694 0.953342 0.262864
H76   H     H_    0.373381 0.649285 0.979394 0.261761
H77   H     H_    0.371235 0.721538 0.935995 0.250214
H78   H     H_    0.347649 0.632341 0.848131 0.233688
H79   H     H_    0.066774 0.020246 0.369522 0.162027
H80   H     H_    0.307222 0.689678 0.818951 0.215705
H81   H     H_    0.272917 0.627666 0.865943 0.202445
H82   H     H_    0.314656 0.572755 0.906188 0.209103
H83   H     H_    0.166519 0.907902 0.955650 0.279132
H84   H     H_    0.214381 0.944860 0.975816 0.257699
H85   H     H_    0.209149 0.861786 0.967661 0.247005
H86   H     H_    0.253794 0.889860 0.099398 0.221208
H87   H     H_    0.205005 0.857679 0.078859 0.224795
H88   H     H_    0.176834 0.965512 0.065788 0.221933
H89   H     H_    0.227046 0.996905 0.092663 0.212339
H90   H     H_    0.933231 0.020286 0.630482 0.162015
H91   H     H_    0.833482 0.907965 0.044384 0.279136
H92   H     H_    0.785620 0.944935 0.024207 0.257690
H93   H     H_    0.790850 0.861861 0.032385 0.247007
H94   H     H_    0.746206 0.889910 0.900640 0.221209
H95   H     H_    0.794995 0.857720 0.921189 0.224796
H96   H     H_    0.823167 0.965549 0.934228 0.221945
H97   H     H_    0.772955 0.996949 0.907344 0.212342
H98   H     H_    0.666519 0.408472 0.955371 0.279176
H99   H     H_    0.714390 0.445482 0.975648 0.257609
H100  H     H_    0.709146 0.362418 0.967278 0.247034
H101  H     H_    0.566800 0.520066 0.369544 0.162029
H102  H     H_    0.753785 0.390259 0.099086 0.221206
H103  H     H_    0.704987 0.358030 0.078449 0.224812
H104  H     H_    0.676834 0.465841 0.065659 0.222023
H105  H     H_    0.727052 0.497267 0.092624 0.212369
H106  H     H_    0.333484 0.408273 0.044533 0.279165
H107  H     H_    0.285613 0.445255 0.024291 0.257632
H108  H     H_    0.290859 0.362188 0.032589 0.247025
H109  H     H_    0.246216 0.390110 0.900804 0.221206
H110  H     H_    0.295013 0.357904 0.921409 0.224808
H111  H     H_    0.323168 0.465724 0.934295 0.221990
H112  H     H_    0.716503 0.023682 0.615578 0.133769
H113  H     H_    0.433179 0.519934 0.630439 0.162063
H114  H     H_    0.272950 0.497135 0.907363 0.212363
H115  H     H_    0.065643 0.020957 0.255291 0.142348
H116  H     H_    0.934363 0.020997 0.744715 0.142356
H117  H     H_    0.565670 0.520779 0.255315 0.142308
H118  H     H_    0.434309 0.520647 0.744667 0.142282
H119  H     H_    0.466977 0.806754 0.380705 0.172801
H120  H     H_    0.533015 0.806751 0.619293 0.172843
H121  H     H_    0.966885 0.306758 0.380694 0.172757
H122  H     H_    0.033117 0.306759 0.619307 0.172742
H123  H     H_    0.452320 0.193251 0.382414 0.142354
H124  H     H_    0.783493 0.523460 0.384446 0.133767
H125  H     H_    0.547680 0.193250 0.617586 0.142354
H126  H     H_    0.952322 0.693251 0.382413 0.142354
H127  H     H_    0.047678 0.693250 0.617587 0.142354
H128  H     H_    0.213083 0.017521 0.316366 0.045589
H129  H     H_    0.786917 0.017488 0.683632 0.045588
H130  H     H_    0.713080 0.517259 0.316378 0.045570
H131  H     H_    0.286917 0.517357 0.683626 0.045581
H132  H     H_    0.951757 0.806614 0.382691 0.142858
H133  H     H_    0.048244 0.806613 0.617309 0.142856
H134  H     H_    0.451755 0.306614 0.382691 0.142867
H135  H     H_    0.216504 0.523551 0.615564 0.133769
H136  H     H_    0.548245 0.306613 0.617308 0.142874
H137  H     H_    0.221790 0.094399 0.254573 0.139716
H138  H     H_    0.778209 0.094390 0.745398 0.139714
H139  H     H_    0.721793 0.594325 0.254802 0.139709
H140  H     H_    0.278206 0.594353 0.745281 0.139712
H141  H     H_    0.289774 0.101625 0.295229 0.166946
H142  H     H_    0.710225 0.101624 0.704737 0.166946
H143  H     H_    0.789775 0.601622 0.295466 0.166952
H144  H     H_    0.210224 0.601622 0.704618 0.166950
H145  H     H_    0.283490 0.068792 0.213616 0.179591
H146  H     H_    0.287040 0.942401 0.373692 0.205035
H147  H     H_    0.716509 0.068819 0.786361 0.179592
H148  H     H_    0.783486 0.568986 0.213764 0.179599
H149  H     H_    0.216511 0.568915 0.786289 0.179595
H150  H     H_    0.215040 0.904451 0.187356 0.194934
H151  H     H_    0.784960 0.904462 0.812679 0.194938
H152  H     H_    0.715039 0.404542 0.187072 0.194950
H153  H     H_    0.284962 0.404509 0.812827 0.194945
H154  H     H_    0.285902 0.903013 0.260538 0.168852
H155  H     H_    0.714098 0.903024 0.739500 0.168851
H156  H     H_    0.785901 0.403092 0.260251 0.168865
H157  H     H_    0.712961 0.942371 0.626333 0.205034
H158  H     H_    0.214100 0.403063 0.739648 0.168861
H159  H     H_    0.161596 0.876830 0.286131 0.168826
H160  H     H_    0.156235 0.958759 0.279905 0.123466
H161  H     H_    0.217928 0.882014 0.420296 0.231654
H162  H     H_    0.215617 0.965249 0.417685 0.211093
H163  H     H_    0.140800 0.961471 0.380119 0.259822
H164  H     H_    0.175408 0.921923 0.466786 0.265628
H165  H     H_    0.143000 0.877740 0.382905 0.268637
H166  H     H_    0.838408 0.876792 0.713920 0.168826
H167  H     H_    0.843765 0.958722 0.720111 0.123469
H168  H     H_    0.787038 0.442182 0.373508 0.205034
H169  H     H_    0.782076 0.881940 0.579754 0.231653
H170  H     H_    0.784382 0.965176 0.582329 0.211096
H171  H     H_    0.859198 0.961395 0.619895 0.259834
H172  H     H_    0.824593 0.921822 0.533246 0.265626
H173  H     H_    0.857004 0.877664 0.617146 0.268633
H174  H     H_    0.661602 0.376511 0.285793 0.168827
H175  H     H_    0.656239 0.458443 0.279783 0.123465
H176  H     H_    0.717948 0.381487 0.419963 0.231654
H177  H     H_    0.715635 0.464724 0.417573 0.211092
H178  H     H_    0.640825 0.460850 0.380030 0.259855
H179  H     H_    0.212962 0.442259 0.626428 0.205035
H180  H     H_    0.675442 0.421162 0.466588 0.265628
H181  H     H_    0.643026 0.377117 0.382595 0.268616
H182  H     H_    0.338402 0.376633 0.714079 0.168820
H183  H     H_    0.343762 0.458564 0.720169 0.123461
H184  H     H_    0.282064 0.381681 0.579914 0.231645
H185  H     H_    0.284363 0.464917 0.582382 0.211098
H186  H     H_    0.359175 0.461107 0.619926 0.259812
H187  H     H_    0.324566 0.421464 0.533332 0.265634
H188  H     H_    0.356988 0.377375 0.617287 0.268630
H189  H     H_    0.881334 0.029633 0.024887 0.163700
H190  H     H_    0.289839 0.956627 0.201783 0.173400
H191  H     H_    0.923541 0.073919 0.096303 0.125093
H192  H     H_    0.856849 0.005727 0.111019 0.234579
H193  H     H_    0.896407 0.057901 0.177731 0.215943
H194  H     H_    0.864989 0.144185 0.086220 0.268073
H195  H     H_    0.828954 0.111056 0.106118 0.269515
H196  H     H_    0.823677 0.092276 0.020331 0.262748
H197  H     H_    0.118680 0.029572 0.975107 0.163704
H198  H     H_    0.076480 0.073880 0.903706 0.125061
H199  H     H_    0.143137 0.005636 0.888934 0.234582
H200  H     H_    0.103598 0.057853 0.822260 0.215936
O1    O     O_R   0.999990 0.948250 0.091620 -0.604093
O2    O     O_R   0.965310 0.999930 0.556910 -0.633672
O3    O     O_R   0.534690 0.499930 0.443090 -0.633714
O4    O     O_R   0.465310 0.499930 0.556910 -0.633732
O5    O     O_R   0.965300 0.091560 0.465360 -0.605819
O6    O     O_R   0.034700 0.091560 0.534640 -0.605816
O7    O     O_R   0.465300 0.591560 0.465360 -0.605894
O8    O     O_R   0.534700 0.591560 0.534640 -0.605912
O9    O     O_R   0.999990 0.051750 0.091660 -0.641084
O10   O     O_R   0.000010 0.051750 0.908340 -0.641074
O11   O     O_R   0.499990 0.551750 0.091660 -0.641137
O12   O     O_R   0.000010 0.948250 0.908380 -0.604082
O13   O     O_R   0.500010 0.551750 0.908340 -0.641170
O14   O     O_R   0.061430 0.948250 0.061430 -0.608703
O15   O     O_R   0.938570 0.948250 0.938570 -0.608705
O16   O     O_R   0.561430 0.448250 0.061430 -0.608728
O17   O     O_R   0.438570 0.448250 0.938570 -0.608719
O18   O     O_R   0.061430 0.051750 0.061470 -0.626675
O19   O     O_R   0.938570 0.051750 0.938530 -0.626679
O20   O     O_R   0.561430 0.551750 0.061470 -0.626697
O21   O     O_R   0.438570 0.551750 0.938530 -0.626681
O22   O     O_R   0.500000 0.908530 0.551740 -0.629350
O23   O     O_R   0.499990 0.448250 0.091620 -0.604135
O24   O     O_R   0.500000 0.908530 0.448260 -0.629347
O25   O     O_R   1.000000 0.408530 0.551740 -0.629338
O26   O     O_R   0.000000 0.408530 0.448260 -0.629337
O27   O     O_R   0.438570 0.000200 0.490320 -0.615828
O28   O     O_R   0.561430 0.000200 0.509680 -0.615827
O29   O     O_R   0.938570 0.500200 0.490320 -0.615825
O30   O     O_R   0.061430 0.500200 0.509680 -0.615823
O31   O     O_R   0.438570 0.000170 0.386880 -0.620924
O32   O     O_R   0.561430 0.000170 0.613120 -0.620923
O33   O     O_R   0.938570 0.500170 0.386880 -0.620928
O34   O     O_R   0.500010 0.448250 0.908380 -0.604163
O35   O     O_R   0.061430 0.500170 0.613120 -0.620931
O36   O     O_R   0.500000 0.091870 0.551750 -0.623012
O37   O     O_R   0.500000 0.091870 0.448250 -0.623011
O38   O     O_R   0.000000 0.591870 0.551750 -0.623011
O39   O     O_R   1.000000 0.591870 0.448250 -0.623010
O40   O     O_R   0.965340 0.908230 0.465340 -0.627224
O41   O     O_R   0.034660 0.908230 0.534660 -0.627226
O42   O     O_R   0.465340 0.408230 0.465340 -0.627227
O43   O     O_R   0.534660 0.408230 0.534660 -0.627221
O44   O     O_3   0.212234 0.921208 0.297636 -0.647252
O45   O     O_R   0.965330 0.999890 0.373740 -0.626610
O46   O     O_3   0.787767 0.921181 0.702396 -0.647252
O47   O     O_3   0.712233 0.420994 0.297390 -0.647252
O48   O     O_3   0.287769 0.421074 0.702521 -0.647249
O49   O     O_3   0.924668 0.977316 0.113323 -0.658689
O50   O     O_3   0.075327 0.977276 0.886670 -0.658679
O51   O     O_3   0.424642 0.477509 0.113293 -0.658732
O52   O     O_3   0.575373 0.477634 0.886728 -0.658761
O53   O     O_3   0.964385 0.185859 0.366094 -0.631071
O54   O     O_3   0.035621 0.185856 0.633907 -0.631069
O55   O     O_3   0.464480 0.685855 0.366112 -0.631121
O56   O     O_R   0.034670 0.999890 0.626260 -0.626613
O57   O     O_3   0.535496 0.685860 0.633882 -0.631132
O58   O     O_R   0.465330 0.499890 0.373740 -0.626589
O59   O     O_R   0.534670 0.499890 0.626260 -0.626582
O60   O     O_R   0.034690 0.999930 0.443090 -0.633679
Zn1   Zn    Zn3+2 0.000000 0.930890 0.000000 0.986170
Zn2   Zn    Zn3+2 0.046310 0.999890 0.546280 0.959702
Zn3   Zn    Zn3+2 0.453690 0.499890 0.453720 0.959661
Zn4   Zn    Zn3+2 0.546310 0.499890 0.546280 0.959670
Zn5   Zn    Zn3+2 0.500000 0.430890 0.000000 0.986074
Zn6   Zn    Zn3+2 0.000000 0.069110 0.000000 0.933101
Zn7   Zn    Zn3+2 0.500000 0.569110 0.000000 0.933013
Zn8   Zn    Zn3+2 0.499990 0.000210 0.569090 0.949095
Zn9   Zn    Zn3+2 0.500010 0.000210 0.430910 0.949090
Zn10  Zn    Zn3+2 0.999990 0.500210 0.569090 0.949090
Zn11  Zn    Zn3+2 0.000010 0.500210 0.430910 0.949094
Zn12  Zn    Zn3+2 0.953690 0.999890 0.453720 0.959707

loop_
_geom_bond_atom_site_label_1
_geom_bond_atom_site_label_2
_ccdc_geom_bond_type
C168  C175  A    
C99   C103  A    
C136  O29   A    
C153  C166  A    
C142  O42   A    
C80   H87   S    
C91   H107  S    
C72   H73   S    
C147  O6    A    
C175  C177  A    
C171  C173  A    
C131  C171  A    
O28   Zn9   S    
C6    H143  S    
C139  O36   A    
C112  H79   S    
C64   H49   S    
O12   Zn1   S    
C31   H171  S    
C124  O17   A    
C142  C177  S    
C65   C178  S    
C152  H121  S    
C38   H188  S    
C100  C127  A    
C101  C128  A    
C52   H21   S    
C5    C179  S    
C131  C140  S    
C34   H181  S    
C130  C167  A    
C131  C169  A    
C5    H142  S    
C25   C159  S    
C110  C145  S    
C73   H72   S    
C132  O22   A    
C119  C128  A    
C59   O55   S    
C59   C60   S    
O21   Zn7   S    
O22   Zn8   S    
C77   H76   S    
O9    Zn6   S    
O45   Zn12  S    
C45   C47   S    
C116  H113  S    
O42   Zn3   S    
C161  O47   S    
C162  O48   S    
C59   H37   S    
C60   H39   S    
C84   H92   S    
C63   H47   S    
C49   H15   S    
C16   C162  S    
C18   H112  S    
C17   C21   S    
C168  H125  S    
C8    C35   T    
C19   C23   S    
C43   C44   S    
C37   C38   S    
C55   H29   S    
C76   H80   S    
C104  C128  S    
O39   Zn11  S    
C39   O49   S    
O38   Zn10  S    
O3    Zn4   S    
C20   H179  S    
C174  H134  S    
C6    H148  S    
C174  C177  A    
C26   O44   S    
C28   H165  S    
C167  C174  A    
C58   H34   S    
C69   H65   S    
C1    O1    A    
C156  O55   S    
O34   Zn5   S    
C102  O52   S    
C18   H157  S    
C145  O3    A    
C138  O35   A    
C15   C161  S    
C72   C73   S    
C123  O20   A    
C28   H164  S    
C64   H51   S    
C21   C35   S    
C38   H186  S    
C62   H45   S    
C23   C148  S    
C16   C94   S    
C146  O4    A    
C71   H60   S    
O10   Zn6   S    
C17   H146  S    
C133  C166  S    
C36   H183  S    
C112  C117  A    
C29   H166  S    
O19   Zn6   S    
C109  C144  S    
C87   H100  S    
C69   C70   S    
C2    C14   S    
C132  O24   A    
C160  H129  S    
C133  O25   A    
C88   C89   S    
C167  H123  S    
C93   O10   A    
C49   H14   S    
C13   C85   S    
C158  H128  S    
C19   H124  S    
C21   C126  S    
C34   H180  S    
O35   Zn10  S    
C12   C178  S    
C75   H81   S    
C47   H9    S    
C99   O49   S    
C61   H43   S    
C85   C86   S    
C41   H195  S    
C98   C124  S    
C22   C137  S    
C53   H23   S    
C117  H115  S    
C126  C170  S    
C118  H116  S    
C36   C37   S    
C11   C138  S    
O25   Zn10  S    
C78   C80   S    
C78   C170  S    
C42   H198  S    
C78   H89   S    
C61   H42   S    
C48   H11   S    
O13   Zn7   S    
C14   C90   S    
O29   Zn10  S    
C106  H57   S    
C149  O8    A    
C62   H44   S    
C89   C91   S    
C3    C75   S    
C110  C114  A    
C114  C119  A    
C44   H5    S    
C33   H176  S    
C66   C67   S    
C5    H147  S    
C77   H77   S    
C81   H85   S    
C83   H95   S    
C153  H122  S    
C92   C97   T    
C31   H173  S    
C48   H12   S    
C8    C134  S    
C120  C129  A    
C107  H68   S    
C132  C165  S    
C56   H31   S    
C137  H155  S    
C111  C146  S    
C39   C40   S    
C45   H7    S    
C155  C163  A    
C151  C165  A    
C43   H200  S    
C49   O52   S    
C116  C120  A    
C87   H98   S    
C29   C30   S    
O31   Zn9   S    
C70   H63   S    
C120  H118  S    
O24   Zn9   S    
C83   C84   S    
C44   H3    S    
C93   O12   A    
C20   C162  S    
C86   H102  S    
C102  C107  A    
C149  C164  S    
C140  O39   A    
C157  C164  A    
C34   H178  S    
C179  H138  S    
C51   H19   S    
O32   Zn8   S    
C89   H109  S    
C81   H83   S    
C30   H169  S    
C54   H28   S    
C4    H141  S    
C65   H58   S    
C118  C127  A    
C72   C180  S    
C83   H94   S    
C9    C135  S    
C74   H69   S    
C11   C68   T    
C101  C106  A    
C23   C57   S    
C105  C109  A    
C84   H91   S    
C6    C180  S    
C142  O43   A    
C18   C22   S    
C107  C111  A    
C71   H62   S    
C72   H74   S    
C147  O5    A    
C152  C166  A    
O6    Zn2   S    
C90   C96   T    
O20   Zn7   S    
C29   O46   S    
C172  H132  S    
C150  H119  S    
C66   H55   S    
C138  O30   A    
C97   C123  S    
C147  C163  S    
C64   H50   S    
C159  H24   S    
C56   C58   S    
C52   H22   S    
O58   Zn3   S    
C18   C160  S    
C51   H20   S    
C36   H182  S    
C63   C64   S    
C82   H97   S    
C17   H1    S    
C9    C46   T    
C143  O45   A    
C49   C50   S    
C161  H130  S    
C12   C158  S    
O15   Zn1   S    
C117  C125  A    
C123  O16   A    
C3    C16   S    
C172  C176  A    
C73   H71   S    
C121  O14   A    
C27   H162  S    
C55   C56   S    
C67   H54   S    
C73   C74   S    
C77   H75   S    
C13   H152  S    
O8    Zn4   S    
C24   C159  S    
C52   C53   S    
C159  H158  S    
C26   C27   S    
C136  O33   A    
C151  C157  A    
C3    C7    S    
C60   H40   S    
C115  C129  S    
C30   C31   S    
C20   C25   S    
C94   C98   T    
O4    Zn3   S    
C12   C79   S    
C19   C161  S    
C178  H137  S    
C14   C160  S    
C50   H16   S    
C54   H26   S    
C141  C176  S    
C111  C116  A    
C153  C155  A    
C124  O21   A    
C48   H10   S    
C32   H175  S    
C95   C121  S    
C84   H93   S    
C91   H108  S    
C40   H192  S    
C25   C68   S    
C119  H117  S    
C130  C139  S    
C50   H17   S    
C135  O28   A    
C144  O56   A    
C24   H153  S    
O14   Zn1   S    
C4    C178  S    
C160  O46   S    
C86   C87   S    
C38   H187  S    
C53   C54   S    
C2    H151  S    
C108  C112  A    
C60   C61   S    
C79   C95   T    
C62   C63   S    
C51   H18   S    
C114  H101  S    
C50   C51   S    
O37   Zn9   S    
C162  H131  S    
C7    H149  S    
C87   H99   S    
C3    H140  S    
C24   C88   S    
C146  O59   A    
O30   Zn11  S    
O27   Zn8   S    
C22   C46   S    
C126  H154  S    
C67   H52   S    
C169  H126  S    
C45   O51   S    
C80   H86   S    
C170  H150  S    
C42   C43   S    
C140  O38   A    
C103  H35   S    
C52   O53   S    
C19   H168  S    
C7    H144  S    
O33   Zn11  S    
C2    C137  S    
C32   O47   S    
C151  H120  S    
C10   C136  S    
C59   H38   S    
C63   H48   S    
C41   H194  S    
C37   H185  S    
C7    C25   S    
C155  O54   S    
C96   C122  S    
C32   C33   S    
C40   H193  S    
O59   Zn4   S    
C69   C179  S    
C55   H30   S    
C104  O23   A    
C1    O9    A    
O43   Zn4   S    
C4    H145  S    
C88   H114  S    
C61   H41   S    
O26   Zn11  S    
C36   O48   S    
C58   H33   S    
C69   H66   S    
C37   H184  S    
C82   C83   S    
C42   O50   S    
C149  O7    A    
C91   H106  S    
C108  C143  S    
O7    Zn3   S    
C4    C21   S    
C88   H111  S    
C134  O31   A    
C102  C129  A    
C75   C76   S    
C28   H163  S    
C99   C125  A    
C20   H135  S    
C171  H127  S    
C100  C105  A    
C85   H105  S    
O17   Zn5   S    
C104  O11   A    
C1    C125  S    
C56   H32   S    
C39   H191  S    
C100  O50   S    
C55   O54   S    
C45   H6    S    
C101  O51   S    
O18   Zn6   S    
C43   H199  S    
C29   H167  S    
O1    Zn1   S    
C26   H160  S    
C70   H64   S    
C15   C92   S    
C144  O2    A    
C121  O18   A    
C5    C22   S    
C85   H104  S    
C53   H25   S    
C86   H103  S    
C103  C108  A    
C44   H4    S    
C141  O41   A    
C14   C179  S    
C109  C113  A    
C143  O60   A    
C75   H82   S    
C16   C24   S    
C150  C156  A    
C15   C180  S    
C62   O57   S    
O16   Zn5   S    
C173  H133  S    
C134  O27   A    
C74   H70   S    
C32   H174  S    
C41   H196  S    
C133  O26   A    
C154  C163  A    
C10   C57   T    
C76   C77   S    
C71   H61   S    
C141  O40   A    
C154  O53   S    
C12   C170  S    
C137  H2    S    
C175  H136  S    
C150  C165  A    
C76   H78   S    
C42   H197  S    
C66   H56   S    
C78   H88   S    
C126  H190  S    
C82   H96   S    
C93   C127  S    
C148  H13   S    
C130  C168  A    
C47   C48   S    
C33   C34   S    
C158  O44   S    
C105  H46   S    
C17   C158  S    
O11   Zn7   S    
O56   Zn2   S    
C33   H177  S    
C40   C41   S    
C152  C154  A    
C65   C66   S    
C13   C15   S    
C169  C172  A    
C26   H159  S    
C148  H156  S    
C31   H172  S    
O5    Zn12  S    
C106  C110  A    
C173  C176  A    
C27   H161  S    
C67   H53   S    
C115  O13   A    
C80   C81   S    
C39   H189  S    
C122  O15   A    
O40   Zn12  S    
O41   Zn2   S    
O36   Zn8   S    
C74   H67   S    
C157  O57   S    
C122  O19   A    
O23   Zn5   S    
C6    C23   S    
C145  O58   A    
O60   Zn2   S    
C70   C71   S    
C2    C82   S    
C115  O34   A    
C113  C118  A    
O2    Zn12  S    
C89   H110  S    
C139  O37   A    
C113  H90   S    
C156  C164  A    
C81   H84   S    
C30   H170  S    
C54   H27   S    
C27   C28   S    
C65   H59   S    
C13   C148  S    
C47   H8    S    
C135  O32   A    
C180  H139  S    
C58   H36   S    
