data_mof_unit_22475.cif
_audit_creation_date              2012-12-10T18:05:52-0500
_audit_creation_method            fapswitch 2.2
_symmetry_space_group_name_H-M    P1
_symmetry_Int_Tables_number       1
_space_group_crystal_system       triclinic
_cell_length_a                    12.64154
_cell_length_b                    13.0804
_cell_length_c                    14.976622
_cell_angle_alpha                 92.311483
_cell_angle_beta                  104.627528
_cell_angle_gamma                 81.568544
_cell_volume                      2370.30006664

loop_
_atom_site_label
_atom_site_type_symbol
_atom_type_description
_atom_site_fract_x
_atom_site_fract_y
_atom_site_fract_z
_atom_type_partial_charge
C1    C     C_R   0.437759 0.691795 0.486662 0.856522
C2    C     C_R   0.418345 0.548990 0.799399 -0.333849
C3    C     C_R   0.509353 0.498774 0.770960 -0.168536
C4    C     C_R   0.503293 0.499330 0.673651 0.925389
C5    C     C_R   0.601276 0.445457 0.833679 0.414067
C6    C     C_R   0.704181 0.057745 0.448373 -0.225916
C7    C     C_R   0.599923 0.198519 0.511476 -0.173499
C8    C     C_R   0.294195 0.843521 0.494951 0.128724
C9    C     C_R   0.264412 0.950390 0.496828 -0.249675
C10   C     C_R   0.338918 0.015675 0.489279 -0.162788
C11   C     C_R   0.444066 0.975169 0.476726 0.087159
C12   C     C_R   0.584577 0.422735 0.110131 -0.068464
C13   C     C_R   0.463346 0.869958 0.453863 0.015201
C14   C     C_R   0.529831 0.035627 0.483494 -0.028708
C15   C     C_R   0.621669 0.996584 0.447314 0.110029
C16   C     C_R   0.561824 0.308527 0.511859 0.902127
C17   C     C_R   0.628674 0.897946 0.408697 -0.256195
C18   C     C_R   0.550847 0.834891 0.412414 -0.183751
C19   C     C_R   0.529867 0.132222 0.527819 0.421749
C20   C     C_R   0.691356 0.160009 0.477521 -0.270196
C21   C     C_R   0.395737 0.802418 0.474898 -0.131811
C22   C     C_R   0.087700 0.338516 0.378093 -0.439872
C23   C     C_R   0.323750 0.598889 0.011660 -0.200245
C24   C     C_R   0.797316 0.640681 0.600541 0.634089
C25   C     C_R   0.903189 0.670680 0.620562 -0.379165
C26   C     C_R   0.984572 0.616813 0.583396 -0.267454
C27   C     C_R   0.962724 0.531351 0.525398 0.058245
C28   C     C_R   0.498680 0.495519 0.326916 0.915773
C29   C     C_R   0.855514 0.501429 0.508020 0.108396
C30   C     C_R   0.042422 0.475876 0.482672 0.010148
C31   C     C_R   0.012528 0.392847 0.422669 0.115325
C32   C     C_R   0.907305 0.364504 0.406974 -0.226597
C33   C     C_R   0.830238 0.418180 0.449054 -0.146495
C34   C     C_R   0.326377 0.600973 0.919670 -0.203312
C35   C     C_R   0.151035 0.499074 0.496857 -0.150797
C36   C     C_R   0.193694 0.367106 0.391528 0.662970
C37   C     C_R   0.577857 0.417288 0.201941 0.475205
C38   C     C_R   0.495569 0.484798 0.230568 -0.155528
C39   C     C_R   0.409778 0.542546 0.167659 -0.367366
C40   C     C_R   0.409658 0.540786 0.075126 0.144286
C41   C     C_R   0.498801 0.482922 0.046322 0.017166
C42   C     C_3   0.640090 0.244597 0.242849 0.020732
C43   C     C_3   0.527556 0.215166 0.244488 -0.346326
C44   C     C_3   0.521647 0.102811 0.213699 -0.940447
C45   C     C_R   0.415883 0.546426 0.890913 0.153893
C46   C     C_3   0.515075 0.168218 0.676462 0.110830
C47   C     C_3   0.495800 0.076244 0.727534 -0.390608
C48   C     C_3   0.377402 0.086825 0.737385 -0.796556
C49   C     C_3   0.232986 0.268440 0.265291 0.047569
C50   C     C_3   0.236696 0.152047 0.277657 -0.352744
C51   C     C_3   0.195021 0.098910 0.185544 -0.962771
C52   C     C_3   0.709637 0.799579 0.641873 0.092877
C53   C     C_3   0.756614 0.837992 0.740068 -0.401100
C54   C     C_3   0.790367 0.945184 0.738647 -0.972119
C55   C     C_3   0.790469 0.441161 0.852274 0.155036
C56   C     C_R   0.503018 0.487131 0.954021 -0.027674
C57   C     C_3   0.824409 0.517035 0.794216 -0.336854
C58   C     C_3   0.935916 0.549436 0.843510 -1.004028
C59   C     C_3   0.703457 0.197947 0.936433 0.112465
C60   C     C_3   0.766465 0.114255 0.006297 -0.361009
C61   C     C_3   0.712117 0.016071 0.991734 -0.983829
C62   C     C_R   0.593347 0.431358 0.924759 -0.136904
C63   C     C_R   0.672739 0.364224 0.987763 0.454021
C64   C     C_R   0.674110 0.369407 0.080729 -0.297598
H1    H     H_    0.696085 0.868424 0.377949 0.148501
H2    H     H_    0.063296 0.644787 0.600822 0.156192
H3    H     H_    0.924011 0.735425 0.665334 0.165319
H4    H     H_    0.750546 0.394154 0.433132 0.237115
H5    H     H_    0.254942 0.643044 0.033277 0.143303
H6    H     H_    0.259060 0.646106 0.871182 0.140351
H7    H     H_    0.349679 0.591454 0.749827 0.163099
H8    H     H_    0.744757 0.328551 0.128985 0.178063
H9    H     H_    0.748491 0.210166 0.468016 0.174047
H10   H     H_    0.705104 0.196226 0.293920 0.163758
H11   H     H_    0.656200 0.221797 0.175256 0.146702
H12   H     H_    0.774162 0.028853 0.420556 0.141310
H13   H     H_    0.514140 0.226059 0.314847 0.240326
H14   H     H_    0.460955 0.264779 0.195816 0.205048
H15   H     H_    0.525540 0.093796 0.140471 0.257330
H16   H     H_    0.443321 0.079105 0.219599 0.272232
H17   H     H_    0.591173 0.050515 0.256740 0.273638
H18   H     H_    0.483448 0.241351 0.707398 0.168050
H19   H     H_    0.605777 0.168815 0.688287 0.079530
H20   H     H_    0.514403 0.003431 0.690067 0.225527
H21   H     H_    0.552776 0.071199 0.797485 0.178179
H22   H     H_    0.359581 0.156472 0.778999 0.239521
H23   H     H_    0.311043 0.097621 0.490248 0.206606
H24   H     H_    0.366430 0.017711 0.772925 0.233349
H25   H     H_    0.317751 0.093105 0.668677 0.281544
H26   H     H_    0.145258 0.793621 0.467311 0.179940
H27   H     H_    0.210609 0.796237 0.580638 0.166271
H28   H     H_    0.287814 0.279327 0.220364 0.167547
H29   H     H_    0.149825 0.305924 0.227038 0.123850
H30   H     H_    0.322806 0.117449 0.309856 0.234966
H31   H     H_    0.185875 0.137179 0.324907 0.212126
H32   H     H_    0.106905 0.129190 0.155113 0.264395
H33   H     H_    0.202330 0.014450 0.196510 0.268504
H34   H     H_    0.185048 0.982949 0.508295 0.143070
H35   H     H_    0.244497 0.112159 0.136548 0.265924
H36   H     H_    0.621358 0.833442 0.620787 0.165517
H37   H     H_    0.748693 0.829336 0.591060 0.144260
H38   H     H_    0.693235 0.841055 0.780176 0.215953
H39   H     H_    0.829679 0.783988 0.776208 0.235497
H40   H     H_    0.858336 0.941983 0.703468 0.269256
H41   H     H_    0.819902 0.973273 0.810261 0.268028
H42   H     H_    0.719222 0.000436 0.701572 0.262045
H43   H     H_    0.857785 0.374697 0.868719 0.194965
H44   H     H_    0.784563 0.480137 0.918783 0.125162
H45   H     H_    0.559438 0.758684 0.381935 0.170036
H46   H     H_    0.830112 0.480352 0.727119 0.244046
H47   H     H_    0.760795 0.586417 0.782591 0.259638
H48   H     H_    0.931892 0.586030 0.911029 0.263189
H49   H     H_    0.958482 0.606156 0.801108 0.276460
H50   H     H_    0.001409 0.481275 0.854908 0.272451
H51   H     H_    0.714462 0.173114 0.867143 0.160066
H52   H     H_    0.612859 0.204734 0.931524 0.118825
H53   H     H_    0.852781 0.095687 0.999570 0.224617
H54   H     H_    0.769234 0.143152 0.077410 0.211953
H55   H     H_    0.626916 0.032530 0.001277 0.264978
H56   H     H_    0.883975 0.300802 0.361154 0.160418
H57   H     H_    0.760678 0.956919 0.042848 0.270389
H58   H     H_    0.708884 0.984493 0.921396 0.266165
H59   H     H_    0.062368 0.274693 0.333771 0.149412
H60   H     H_    0.344828 0.590902 0.191443 0.168037
H61   H     H_    0.182153 0.558765 0.543385 0.157249
N1    N     N_R   0.222190 0.444670 0.452360 -0.130710
N2    N     N_R   0.776970 0.554790 0.547140 -0.171916
N3    N     N_3   0.221924 0.777636 0.514804 -0.447526
O1    O     O_R   0.366740 0.627160 0.477250 -0.598128
O2    O     O_3   0.457318 0.165568 0.582209 -0.630305
O3    O     O_3   0.274702 0.315281 0.351439 -0.620327
O4    O     O_3   0.715056 0.690446 0.640171 -0.631691
O5    O     O_3   0.692854 0.402264 0.802382 -0.635062
O6    O     O_3   0.748627 0.291383 0.959503 -0.649823
O7    O     O_R   0.544830 0.662520 0.507680 -0.586672
O8    O     O_R   0.410940 0.482340 0.616930 -0.630187
O9    O     O_R   0.589030 0.517700 0.647360 -0.562929
O10   O     O_R   0.455170 0.337480 0.492320 -0.531781
O11   O     O_R   0.633260 0.372840 0.522750 -0.649187
O12   O     O_R   0.410970 0.482300 0.352640 -0.602550
O13   O     O_R   0.589060 0.517660 0.383070 -0.625103
O14   O     O_3   0.651229 0.349822 0.265899 -0.675575
Zn1   Zn    Zn3+2 0.381090 0.476390 0.479680 0.996820
Zn2   Zn    Zn3+2 0.618910 0.523610 0.520320 0.969600

loop_
_geom_bond_atom_site_label_1
_geom_bond_atom_site_label_2
_ccdc_geom_bond_type
C51   H33   S    
C1    C21   S    
C9    H34   S    
C27   C29   A    
C23   H5    S    
C28   O12   A    
O12   Zn1   S    
C22   H59   S    
C57   H47   S    
C53   C54   S    
C43   H14   S    
C5    O5    S    
C49   O3    S    
C42   H11   S    
C62   C63   A    
C13   C18   A    
C58   H48   S    
C47   H21   S    
C54   H40   S    
O8    Zn1   S    
C1    O1    A    
O10   Zn1   S    
C30   C31   A    
C12   C64   A    
C11   C14   A    
C50   H31   S    
C61   H55   S    
C23   C40   A    
C29   C33   A    
N1    Zn1   S    
C61   H57   S    
C12   C37   A    
C35   H61   S    
C6    C15   A    
C46   H18   S    
C8    N3    S    
C57   H46   S    
C45   C56   A    
C59   H52   S    
C25   H3    S    
C42   O14   S    
C58   H49   S    
C5    C62   A    
C18   H45   S    
C60   H54   S    
C9    C10   A    
C34   H6    S    
C51   H32   S    
C4    O8    A    
C19   O2    S    
C4    O9    A    
C59   C60   S    
C27   C30   A    
C32   H56   S    
C8    C21   A    
C2    C45   A    
C51   H35   S    
C52   H37   S    
C16   O10   A    
C10   H23   S    
C42   H10   S    
C22   C31   A    
C54   H42   S    
C26   H2    S    
C63   O6    S    
C44   H16   S    
C24   C25   A    
C44   H17   S    
C37   O14   S    
C36   O3    S    
C39   C40   A    
C50   H30   S    
C50   C51   S    
C25   C26   A    
C55   O5    S    
C52   H36   S    
C39   H60   S    
C63   C64   A    
C55   H43   S    
C61   H58   S    
C52   O4    S    
C35   N1    A    
C43   C44   S    
C41   C56   A    
C37   C38   A    
H27   N3    S    
C24   N2    A    
O11   Zn2   S    
C24   O4    S    
C31   C32   A    
C28   C38   S    
C53   H38   S    
C23   C34   A    
C48   H24   S    
C17   C18   A    
C8    C9    A    
C13   C21   A    
C60   H53   S    
C34   C45   A    
C47   H20   S    
C30   C35   A    
C7    C16   S    
O9    Zn2   S    
C7    C20   A    
C7    C19   A    
C48   H25   S    
C55   C57   S    
C26   C27   A    
C56   C62   A    
O13   Zn2   S    
C16   O11   A    
C42   C43   S    
C49   H28   S    
C3    C4    S    
C3    C5    A    
C6    C20   A    
C52   C53   S    
C12   C41   A    
C15   C17   A    
C46   C47   S    
O7    Zn2   S    
C54   H41   S    
C14   C19   A    
C44   H15   S    
C36   N1    A    
C47   C48   S    
C46   O2    S    
C6    H12   S    
O1    Zn1   S    
C43   H13   S    
C22   C36   A    
C59   O6    S    
C17   H1    S    
C55   H44   S    
C32   C33   A    
C29   N2    A    
C2    C3    A    
C11   C13   A    
C57   C58   S    
C38   C39   A    
C53   H39   S    
C20   H9    S    
C48   H22   S    
N2    Zn2   S    
C64   H8    S    
C10   C11   A    
C46   H19   S    
C59   H51   S    
C49   C50   S    
C58   H50   S    
H26   N3    S    
C14   C15   A    
C60   C61   S    
C40   C41   A    
C28   O13   A    
C49   H29   S    
C1    O7    A    
C2    H7    S    
C33   H4    S    
