data_mof_unit_64288.cif
_audit_creation_date              2012-10-26T21:22:23-0400
_audit_creation_method            fapswitch 2.2
_symmetry_space_group_name_H-M    P1
_symmetry_Int_Tables_number       1
_space_group_crystal_system       triclinic
_cell_length_a                    15.995517
_cell_length_b                    14.762393
_cell_length_c                    17.73166
_cell_angle_alpha                 89.994722
_cell_angle_beta                  89.992705
_cell_angle_gamma                 89.941233
_cell_volume                      4187.01200349

loop_
_atom_site_label
_atom_site_type_symbol
_atom_type_description
_atom_site_fract_x
_atom_site_fract_y
_atom_site_fract_z
_atom_type_partial_charge
C1    C     C_R   0.340831 0.500032 0.500013 0.576962
C2    C     C_R   0.530523 0.047862 0.562215 -0.088555
C3    C     C_R   0.500019 0.902865 0.499994 0.002695
C4    C     C_R   0.499981 0.097135 0.500005 0.002690
C5    C     C_1   0.500014 0.802726 0.499997 0.170537
C6    C     C_1   0.499986 0.197274 0.500003 0.170538
C7    C     C_R   0.499998 0.500003 0.355408 0.610210
C8    C     C_R   0.500000 0.499997 0.644591 0.610275
C9    C     C_R   0.560248 0.550577 0.845982 0.236095
C10   C     C_R   0.439778 0.449354 0.154018 0.236096
C11   C     C_R   0.560183 0.550661 0.153990 0.235731
C12   C     C_R   0.659169 0.499968 0.499988 0.576960
C13   C     C_R   0.439704 0.449465 0.846000 0.235738
C14   C     C_R   0.560430 0.550580 0.766927 0.203393
C15   C     C_R   0.439612 0.449337 0.233073 0.203404
C16   C     C_R   0.560367 0.550666 0.233044 0.203232
C17   C     C_R   0.439543 0.449439 0.766945 0.203221
C18   C     C_R   0.499996 0.499998 0.727264 -0.052673
C19   C     C_R   0.499991 0.500005 0.272733 -0.052703
C20   C     C_R   0.499972 0.500024 0.885259 -0.046021
C21   C     C_R   0.499974 0.500012 0.114736 -0.046018
C22   C     C_1   0.499968 0.500024 0.966167 0.162942
C23   C     C_1   0.823329 0.499929 0.499992 -0.009359
C24   C     C_1   0.499968 0.500019 0.033828 0.162945
C25   C     C_R   0.956266 0.582094 0.503487 -0.071820
C26   C     C_R   0.043734 0.417905 0.496520 -0.071820
C27   C     C_R   0.043516 0.582130 0.503493 -0.082576
C28   C     C_R   0.956484 0.417869 0.496514 -0.082577
C29   C     C_R   0.912783 0.499963 0.499997 0.043581
C30   C     C_R   0.087217 0.500036 0.500010 0.043582
C31   C     C_1   0.176671 0.500071 0.500013 -0.009356
C32   C     C_1   0.251719 0.500081 0.500014 0.044274
C33   C     C_1   0.748281 0.499919 0.499989 0.044269
C34   C     C_R   0.530544 0.952056 0.562209 -0.086482
C35   C     C_R   0.469456 0.047944 0.437791 -0.086468
C36   C     C_R   0.469477 0.952138 0.437785 -0.088539
Cl1   Cl    Cl    0.636179 0.613724 0.895838 -0.371610
Cl2   Cl    Cl    0.363929 0.386088 0.104166 -0.371636
Cl3   Cl    Cl    0.636026 0.613926 0.104103 -0.370392
Cl4   Cl    Cl    0.363758 0.386337 0.895880 -0.370388
Cl5   Cl    Cl    0.638976 0.611192 0.718018 -0.468045
Cl6   Cl    Cl    0.361151 0.388600 0.281983 -0.468017
Cl7   Cl    Cl    0.638863 0.611360 0.281919 -0.461847
Cl8   Cl    Cl    0.360990 0.388848 0.718058 -0.461903
Cu1   Cu    Cu3+1 0.500000 0.589220 0.500000 1.114897
Cu2   Cu    Cu3+1 0.500000 0.410780 0.500000 1.114906
H1    H     H_    0.076831 0.645920 0.506202 0.135341
H2    H     H_    0.923169 0.354080 0.493805 0.135341
H3    H     H_    0.922781 0.645854 0.506192 0.145226
H4    H     H_    0.077219 0.354145 0.493815 0.145227
H5    H     H_    0.554466 0.083525 0.611010 0.142634
H6    H     H_    0.445534 0.916475 0.388989 0.142654
H7    H     H_    0.445500 0.083672 0.388999 0.150915
H8    H     H_    0.554501 0.916328 0.611001 0.150879
N1    N     N_1   0.500000 0.276710 0.500000 -0.170651
N2    N     N_1   0.500000 0.723290 0.500000 -0.170653
O1    O     O_R   0.380310 0.575320 0.500010 -0.508819
O2    O     O_R   0.619690 0.424680 0.499990 -0.508816
O3    O     O_R   0.619690 0.575320 0.499990 -0.459769
O4    O     O_R   0.380310 0.424680 0.500010 -0.459763
O5    O     O_R   0.500000 0.575370 0.391250 -0.465180
O6    O     O_R   0.500000 0.424630 0.608750 -0.465207
O7    O     O_R   0.500000 0.575370 0.608750 -0.464879
O8    O     O_R   0.500000 0.424630 0.391250 -0.464841

loop_
_geom_bond_atom_site_label_1
_geom_bond_atom_site_label_2
_ccdc_geom_bond_type
Cu2   N1    S    
C2    C4    A    
C9    C14   A    
C34   H8    S    
C1    O4    A    
C1    O1    A    
C35   H7    S    
C11   C16   A    
C14   C18   A    
C5    N2    T    
C26   C28   A    
C35   C36   A    
C36   H6    S    
C13   C17   A    
C6    N1    T    
C10   Cl2   S    
C12   O2    A    
C2    C34   A    
C9    Cl1   S    
C17   C18   A    
C4    C35   A    
Cu2   O8    S    
Cu1   Cu2   S    
Cu2   O2    S    
C27   C30   A    
C15   C19   A    
C16   Cl7   S    
Cu1   O1    S    
C7    O5    A    
C3    C36   A    
Cu2   O6    S    
C14   Cl5   S    
C23   C29   S    
Cu1   O5    S    
C28   C29   A    
C13   C20   A    
C20   C22   S    
C26   C30   A    
C7    C19   S    
C10   C15   A    
C26   H4    S    
C10   C21   A    
C16   C19   A    
C30   C31   S    
C11   Cl3   S    
C22   C24   T    
C7    O8    A    
C17   Cl8   S    
C25   C27   A    
C2    H5    S    
C8    O7    A    
C11   C21   A    
C3    C5    S    
C28   H2    S    
Cu1   N2    S    
C25   C29   A    
C4    C6    S    
C21   C24   S    
C27   H1    S    
Cu1   O3    S    
C13   Cl4   S    
C9    C20   A    
C3    C34   A    
Cu2   O4    S    
C12   C33   S    
C12   O3    A    
Cu1   O7    S    
C1    C32   S    
C8    C18   S    
C31   C32   T    
C15   Cl6   S    
C8    O6    A    
C23   C33   T    
C25   H3    S    
