data_mof_unit_37396.cif
_audit_creation_date              2012-12-11T20:41:05-0500
_audit_creation_method            fapswitch 2.2
_symmetry_space_group_name_H-M    P1
_symmetry_Int_Tables_number       1
_space_group_crystal_system       triclinic
_cell_length_a                    8.227544
_cell_length_b                    18.857127
_cell_length_c                    26.99117
_cell_angle_alpha                 97.086322
_cell_angle_beta                  92.902832
_cell_angle_gamma                 86.047684
_cell_volume                      4141.99391615

loop_
_atom_site_label
_atom_site_type_symbol
_atom_type_description
_atom_site_fract_x
_atom_site_fract_y
_atom_site_fract_z
_atom_type_partial_charge
Ba1   Ba    Ba6+2 0.852670 0.466460 0.522850 1.679290
Ba2   Ba    Ba6+2 0.337150 0.533490 0.477140 1.654852
C1    C     C_3   0.819612 0.274775 0.725001 0.288106
C2    C     C_R   0.918333 0.571302 0.178274 0.577662
C3    C     C_2   0.762385 0.547569 0.272348 -0.084235
C4    C     C_3   0.230463 0.309229 0.643478 0.241288
C5    C     C_3   0.746131 0.571575 0.327396 -0.046874
C6    C     C_1   0.984730 0.490821 0.342528 0.033367
C7    C     C_2   0.024190 0.486841 0.294720 -0.112878
C8    C     C_2   0.904841 0.514521 0.255994 0.191305
C9    C     C_R   0.021528 0.505637 0.101337 -0.080934
C10   C     C_R   0.050296 0.444608 0.126624 -0.031231
C11   C     C_R   0.118420 0.381632 0.100360 -0.061365
C12   C     C_3   0.784835 0.291136 0.670943 0.782786
C13   C     C_R   0.956593 0.569402 0.127660 -0.024096
C14   C     C_2   0.854465 0.528452 0.360538 -0.291798
C15   C     C_2   0.352736 0.482950 0.640871 -0.281118
C16   C     C_3   0.279533 0.286220 0.694392 -0.303309
C17   C     C_R   0.183539 0.440283 0.974244 0.037944
C18   C     C_R   0.044802 0.560204 0.971703 -0.023231
C19   C     C_R   0.135455 0.499672 0.947752 -0.002418
C20   C     C_R   0.280041 0.382984 0.949465 -0.099089
C21   C     C_R   0.323600 0.382997 0.900189 -0.067764
C22   C     C_R   0.272263 0.439885 0.873048 -0.012901
C23   C     C_3   0.519561 0.645595 0.630183 0.304131
C24   C     C_R   0.177320 0.498132 0.896743 -0.083632
C25   C     C_R   0.123249 0.554517 0.869261 -0.083522
C26   C     C_R   0.168298 0.553290 0.819129 0.607883
C27   C     C_R   0.313370 0.439339 0.822584 0.577654
C28   C     C_3   0.117808 0.301564 0.399295 0.253101
C29   C     C_2   0.459636 0.481801 0.729178 -0.093334
C30   C     C_3   0.502234 0.487229 0.675544 -0.045487
C31   C     C_1   0.213319 0.512894 0.657143 0.038665
C32   C     C_2   0.174027 0.511741 0.704221 -0.102913
C33   C     C_2   0.303111 0.495040 0.743555 0.198438
C34   C     C_3   0.508545 0.672153 0.685547 -0.374887
C35   C     C_R   0.134928 0.440242 0.024453 0.022136
C36   C     C_R   0.058775 0.503239 0.049777 0.040667
C37   C     C_R   0.021694 0.564401 0.024311 0.037994
C38   C     C_R   0.160606 0.379495 0.050642 -0.102484
C39   C     C_R   0.935612 0.631068 0.103308 -0.078079
C40   C     C_3   0.032331 0.238607 0.369049 0.692251
C41   C     C_R   0.977977 0.613574 0.941906 0.402432
C42   C     C_R   0.019963 0.610075 0.891632 -0.110660
C43   C     C_R   0.970358 0.628916 0.053217 -0.055137
C44   C     C_2   0.390506 0.297346 0.512085 -0.303097
C45   C     C_3   0.072401 0.686293 0.342541 0.340679
C46   C     C_3   0.254626 0.246979 0.509495 0.049295
C47   C     C_2   0.322411 0.171394 0.514728 -0.029416
C48   C     C_2   0.477610 0.150791 0.501908 -0.070818
C49   C     C_2   0.583553 0.206605 0.488507 -0.098391
C50   C     C_1   0.526510 0.274331 0.489999 0.091687
C51   C     C_R   0.647476 0.933469 0.491633 0.452689
C52   C     C_3   0.013016 0.683275 0.583539 0.304299
C53   C     C_R   0.539638 0.074309 0.499284 0.478008
C54   C     C_R   0.613163 0.807910 0.509016 -0.122639
C55   C     C_R   0.663337 0.735211 0.505394 0.040592
C56   C     C_3   0.088560 0.706394 0.290233 -0.304147
C57   C     C_R   0.898332 0.756738 0.460739 0.012242
C58   C     C_R   0.849617 0.830093 0.464021 -0.135989
C59   C     C_R   0.703830 0.856272 0.487548 -0.068915
C60   C     C_R   0.800605 0.709606 0.479290 -0.281970
C61   C     C_3   0.996386 0.764016 0.597560 -0.377319
C62   C     C_3   0.664006 0.380659 0.372141 0.339145
C63   C     C_3   0.614748 0.371235 0.316755 -0.333143
C64   C     C_3   0.988106 0.243646 0.283394 0.224932
C65   C     C_3   0.638646 0.193538 0.632961 0.233023
C66   C     C_3   0.706076 0.251134 0.797092 0.222388
C67   C     C_3   0.533029 0.725235 0.365698 0.348414
C68   C     C_3   0.873096 0.731604 0.950494 0.132691
C69   C     C_3   0.495994 0.797643 0.346904 -0.339354
C70   C     C_R   0.009834 0.447736 0.177516 0.594548
H1    H     H_    0.891301 0.318517 0.661415 0.004492
H2    H     H_    0.871879 0.322930 0.746487 -0.049415
H3    H     H_    0.662794 0.318345 0.298907 0.099022
H4    H     H_    0.663789 0.413827 0.298035 0.057099
H5    H     H_    0.479721 0.374428 0.311749 0.156788
H6    H     H_    0.911617 0.228609 0.725118 0.000782
H7    H     H_    0.395293 0.633366 0.615096 0.028657
H8    H     H_    0.602135 0.596308 0.625713 0.036374
H9    H     H_    0.433392 0.723561 0.690524 0.137972
H10   H     H_    0.450558 0.632654 0.704994 0.074794
H11   H     H_    0.632491 0.680434 0.702637 0.126539
H12   H     H_    0.898676 0.253063 0.367516 -0.056274
H13   H     H_    0.364805 0.324025 0.714273 0.183473
H14   H     H_    0.144828 0.634932 0.345676 0.087360
H15   H     H_    0.941891 0.679492 0.347841 -0.056280
H16   H     H_    0.206562 0.730124 0.286948 0.148219
H17   H     H_    0.084413 0.657625 0.262932 0.118269
H18   H     H_    0.987937 0.745709 0.281237 0.123785
H19   H     H_    0.667667 0.714481 0.366296 -0.064344
H20   H     H_    0.490235 0.728536 0.404353 0.078375
H21   H     H_    0.563158 0.839009 0.370973 0.086734
H22   H     H_    0.363613 0.813110 0.348087 0.158862
H23   H     H_    0.893037 0.663742 0.570751 0.004762
H24   H     H_    0.152882 0.359825 0.649749 0.051111
H25   H     H_    0.534990 0.795422 0.307919 0.122931
H26   H     H_    0.143608 0.464298 0.283596 0.134895
H27   H     H_    0.140661 0.333390 0.118351 0.117945
H28   H     H_    0.557602 0.472894 0.756627 0.105858
H29   H     H_    0.398123 0.337675 0.883286 0.102749
H30   H     H_    0.327623 0.337720 0.967658 0.063233
H31   H     H_    0.210135 0.328597 0.033301 0.066427
H32   H     H_    0.669731 0.566612 0.246220 0.118762
H33   H     H_    0.894008 0.682023 0.123180 0.123628
H34   H     H_    0.099011 0.671024 0.552908 0.073082
H35   H     H_    0.341853 0.319185 0.624458 0.001009
H36   H     H_    0.965804 0.649774 0.869046 0.120189
H37   H     H_    0.048559 0.523285 0.714587 0.133243
H38   H     H_    0.963581 0.679720 0.038696 0.113115
H39   H     H_    0.842482 0.541673 0.400522 0.081955
H40   H     H_    0.360336 0.456534 0.602891 0.073974
H41   H     H_    0.239962 0.132683 0.523633 0.131855
H42   H     H_    0.705536 0.191113 0.476432 0.166370
H43   H     H_    0.506218 0.826672 0.529804 0.108600
H44   H     H_    0.925901 0.866216 0.449117 0.121416
H45   H     H_    0.904778 0.777865 0.626616 0.135948
H46   H     H_    0.373900 0.352206 0.529595 0.065629
H47   H     H_    0.170540 0.286494 0.716948 0.076295
H48   H     H_    0.839011 0.653308 0.477232 0.058540
H49   H     H_    0.339911 0.231557 0.690302 0.129769
H50   H     H_    0.240090 0.282104 0.413000 0.020590
H51   H     H_    0.048014 0.324942 0.431707 -0.010072
H52   H     H_    0.955403 0.302193 0.289077 0.040891
H53   H     H_    0.877070 0.212769 0.281496 0.038573
H54   H     H_    0.046457 0.231457 0.246906 0.094787
H55   H     H_    0.291496 0.120339 0.367346 0.362412
H56   H     H_    0.956889 0.791097 0.564450 0.066642
H57   H     H_    0.540686 0.225764 0.614697 0.037885
H58   H     H_    0.603122 0.180572 0.669690 0.068955
H59   H     H_    0.655702 0.141982 0.608597 0.050151
H60   H     H_    0.743495 0.301944 0.818725 0.049448
H61   H     H_    0.800081 0.206856 0.801775 0.000732
H62   H     H_    0.592065 0.237169 0.812793 0.076196
H63   H     H_    0.822018 0.741347 0.912893 0.057837
H64   H     H_    0.003334 0.744951 0.955147 0.015639
H65   H     H_    0.804361 0.768840 0.978198 0.074129
H66   H     H_    0.115704 0.783771 0.612232 0.126938
H67   H     H_    0.797674 0.383122 0.376495 -0.075681
H68   H     H_    0.603627 0.431878 0.388889 0.070040
N1    N     N_R   0.944474 0.510810 0.203144 -0.421069
N2    N     N_R   0.261594 0.495806 0.795887 -0.420993
N3    N     N_R   0.499892 0.955768 0.510398 -0.237748
N4    N     N_R   0.447065 0.024494 0.514064 -0.233851
N5    N     N_R   0.687660 0.052211 0.480615 -0.185450
N6    N     N_R   0.740486 0.983267 0.476841 -0.206369
O1    O     O_2   0.914730 0.537460 0.618690 -0.464546
O2    O     O_2   0.236079 0.753405 0.470824 -0.478170
O3    O     O_3   0.131282 0.740571 0.377708 -0.595475
O4    O     O_3   0.146720 0.537410 0.558510 -0.491879
O5    O     O_3   0.553920 0.415280 0.473710 -0.485830
O6    O     O_2   0.383540 0.672140 0.526840 -0.461778
O7    O     O_3   0.581661 0.699174 0.606273 -0.640405
O8    O     O_2   0.415170 0.533926 0.322910 -0.501918
O9    O     O_3   0.452306 0.672140 0.334315 -0.592768
O10   O     O_2   0.030947 0.393948 0.198646 -0.613029
O11   O     O_2   0.394080 0.388080 0.802385 -0.611236
O12   O     O_3   0.617831 0.321327 0.393442 -0.621389
O13   O     O_2   0.862359 0.627491 0.200265 -0.618228
O14   O     O_2   0.126356 0.604243 0.796477 -0.601600
O15   O     O_3   0.666360 0.409390 0.586570 -0.457528
O16   O     O_2   0.836385 0.440549 0.672219 -0.544118
O17   O     O_3   0.070119 0.651638 0.625774 -0.626980
O18   O     O_3   0.636278 0.333743 0.667744 -0.647822
O19   O     O_2   0.806150 0.327840 0.473120 -0.482511
O20   O     O_3   0.073640 0.373350 0.561550 -0.496980
O21   O     O_2   0.927866 0.252414 0.541416 -0.406061
O22   O     O_3   0.099826 0.223192 0.321211 -0.632498
O23   O     O_3   0.143968 0.255315 0.615262 -0.592061
O24   O     O_2   0.992715 0.170368 0.449391 -0.330877
O25   O     O_2   0.969690 0.100481 0.367382 -0.253129
O26   O     O_3   0.258840 0.132373 0.402347 -0.524817
O27   O     O_3   0.786782 0.227533 0.636579 -0.645574
O28   O     O_3   0.674462 0.259481 0.746264 -0.634475
O29   O     O_3   0.850133 0.660668 0.959345 -0.644322
O30   O     O_2   0.274960 0.462520 0.381280 -0.440987
O31   O     O_3   0.042980 0.462530 0.441480 -0.497462
O32   O     O_3   0.523340 0.590550 0.413420 -0.478660
O33   O     O_3   0.141069 0.350772 0.366079 -0.632993
O34   O     O_3   0.635780 0.584660 0.526290 -0.475544
O35   O     O_3   0.116060 0.626590 0.438450 -0.495540
P1    P     P_3+3 0.084800 0.558370 0.611580 0.997580
P2    P     P_3+3 0.628800 0.338360 0.458800 1.020838
P3    P     P_3+3 0.098418 0.280534 0.555589 1.026995
P4    P     P_3+3 0.104900 0.441570 0.388420 0.989403
P5    P     P_3+3 0.096305 0.719845 0.437435 0.956779
P6    P     P_3+3 0.664687 0.419628 0.651672 0.946292
P7    P     P_3+3 0.569235 0.674430 0.541636 0.951192
P8    P     P_3+3 0.533349 0.588726 0.348823 0.942430
S1    S     S_3+6 0.059557 0.158441 0.398224 -0.065513

loop_
_geom_bond_atom_site_label_1
_geom_bond_atom_site_label_2
_ccdc_geom_bond_type
Ba2   O4    S    
C47   H41   S    
C19   C24   A    
C7    H26   S    
C70   O10   D    
C23   H8    S    
C50   P2    S    
O6    P7    D    
O18   P6    S    
N5    N6    A    
Ba1   P2    S    
O30   P4    D    
O4    P1    S    
C69   H22   S    
C69   H25   S    
C24   C25   A    
C67   O9    S    
C63   H4    S    
C39   H33   S    
Ba1   O1    S    
C66   H61   S    
C17   C19   A    
C22   C24   A    
C32   C33   S    
C12   O27   S    
C36   C37   A    
C61   H45   S    
Ba1   O34   S    
C53   N5    A    
C2    O13   D    
C52   C61   S    
C34   H11   S    
O2    P5    D    
N3    N4    A    
C44   C50   D    
C26   O14   D    
O31   P4    S    
C54   C55   A    
C44   H46   S    
C57   P5    S    
C66   H60   S    
Ba1   Ba2   S    
C67   C69   S    
C1    H2    S    
C22   C27   A    
C55   P7    S    
C17   C35   A    
Ba2   O30   S    
C9    C13   A    
C25   C42   A    
C28   H50   S    
C34   H10   S    
C6    C7    D    
C11   C38   A    
C5    P8    S    
C21   C22   A    
O16   P6    D    
Ba2   O31   S    
C52   O17   S    
C67   H20   S    
O34   P7    S    
C7    C8    S    
C60   H48   S    
C61   H56   S    
C37   C43   A    
C10   C70   A    
C3    H32   S    
Ba1   O15   S    
O3    P5    S    
C6    C14   D    
O17   P1    S    
C68   H64   S    
C65   H57   S    
C15   C31   D    
C20   H30   S    
C40   O22   S    
C33   N2    S    
C31   C32   D    
C42   H36   S    
Ba2   O6    S    
C70   N1    Am   
C4    C16   S    
C44   C46   S    
C49   H42   S    
C63   H5    S    
C52   H34   S    
C23   O7    S    
C49   C50   D    
C16   H13   S    
C45   H14   S    
C45   O3    S    
C55   C60   A    
C17   C20   A    
O20   P3    S    
C13   C39   A    
C2    N1    Am   
C3    C5    S    
C18   C37   A    
C66   O28   S    
C43   H38   S    
C27   O11   D    
C16   H49   S    
O26   S1    S    
H55   O26   S    
C64   H54   S    
O25   S1    D    
C58   C59   A    
C51   N3    A    
Ba2   O35   S    
O19   P2    D    
C11   H27   S    
C9    C36   A    
C41   C42   A    
C12   H1    S    
O23   P3    S    
C35   C36   A    
C4    O23   S    
C40   S1    S    
C1    O28   S    
O21   P3    D    
Ba1   O19   S    
C34   H9    S    
C4    H35   S    
O35   P5    S    
C48   C49   S    
C40   H12   S    
Ba1   O4    S    
C54   C59   A    
C29   H28   S    
C18   C19   A    
C28   H51   S    
C56   H18   S    
C52   H23   S    
C1    C12   S    
C69   H21   S    
O1    P1    D    
C46   C47   S    
O8    P8    D    
C4    H24   S    
C68   H63   S    
C15   C30   S    
C61   H66   S    
C64   H52   S    
C58   H44   S    
C65   H58   S    
C26   N2    Am   
C51   C59   S    
C41   O29   S    
C15   H40   S    
C25   C26   A    
C18   C41   A    
C46   P3    S    
C62   H68   S    
Ba2   O5    S    
O32   P8    S    
C5    C14   S    
C57   C60   A    
C53   N4    A    
C30   P6    S    
C23   H7    S    
C29   C30   S    
C65   H59   S    
C56   H16   S    
C9    C10   A    
O5    P2    S    
O33   P4    S    
O7    P7    S    
C6    P4    S    
C35   C38   A    
O24   S1    D    
C48   C53   S    
Ba2   O34   S    
C64   H53   S    
C64   O22   S    
C68   O29   S    
C62   C63   S    
C2    C13   A    
C66   H62   S    
Ba2   P4    S    
C3    C8    D    
O15   P6    S    
C45   C56   S    
C21   H29   S    
C28   O33   S    
Ba1   O20   S    
C65   O27   S    
C27   N2    Am   
C51   N6    A    
C54   H43   S    
Ba1   O5    S    
C29   C33   D    
C12   O18   S    
C56   H17   S    
Ba1   P1    S    
O9    P8    S    
C23   C34   S    
C57   C58   A    
C10   C11   A    
C14   H39   S    
C68   H65   S    
C47   C48   D    
C62   O12   S    
C31   P1    S    
C32   H37   S    
C39   C43   A    
C20   C21   A    
C28   C40   S    
Ba2   O32   S    
C67   H19   S    
C1    H6    S    
Ba1   O31   S    
C16   H47   S    
C8    N1    S    
C63   H3    S    
O12   P2    S    
C45   H15   S    
C38   H31   S    
C62   H67   S    
