data_mof_unit_13054.cif
_audit_creation_date              2013-03-05T15:51:49-0500
_audit_creation_method            fapswitch 2.2
_symmetry_space_group_name_H-M    P1
_symmetry_Int_Tables_number       1
_space_group_crystal_system       triclinic
_cell_length_a                    15.860895
_cell_length_b                    10.947416
_cell_length_c                    9.647936
_cell_angle_alpha                 89.860203
_cell_angle_beta                  90.395954
_cell_angle_gamma                 94.759696
_cell_volume                      1669.40738116

loop_
_atom_site_label
_atom_site_type_symbol
_atom_site_description
_atom_site_fract_x
_atom_site_fract_y
_atom_site_fract_z
_atom_type_partial_charge
O1    O     O_R   0.499990 0.319640 0.618810 -0.594831
O2    O     O_R   0.500000 0.319660 0.381240 -0.597822
C1    C     C_R   0.502991 0.263016 0.500922 0.806465
O3    O     O_R   0.379070 0.499980 0.618770 -0.581284
O4    O     O_R   0.379080 0.500000 0.381190 -0.572527
C2    C     C_R   0.339999 0.498806 0.499448 0.805726
Cu1   Cu    Cu3+1 0.499990 0.499990 0.640660 0.978549
Cu2   Cu    Cu3+1 0.500010 0.500010 0.359340 0.955592
O5    O     O_R   0.500000 0.680340 0.618760 -0.537438
O6    O     O_R   0.500010 0.680360 0.381190 -0.546606
O7    O     O_R   0.620920 0.500000 0.618810 -0.520159
O8    O     O_R   0.620930 0.500020 0.381230 -0.613495
C3    C     C_R   0.494980 0.737137 0.500229 0.834276
C4    C     C_R   0.659916 0.499323 0.500240 0.832455
C5    C     C_3   0.966927 0.404091 0.583308 -0.192936
C6    C     C_3   0.020510 0.382316 0.452660 -0.277687
H1    H     H_    0.039155 0.292159 0.416889 0.171481
H2    H     H_    0.939173 0.332838 0.655524 0.149235
H3    H     H_    0.941678 0.452827 0.261482 0.149475
C7    C     C_1   0.250100 0.496480 0.497690 -0.147666
C8    C     C_1   0.749525 0.496642 0.500040 -0.129944
C9    C     C_3   0.029503 0.514099 0.622374 0.490608
C10   C     C_3   0.082483 0.492137 0.494442 0.057698
C11   C     C_3   0.978523 0.604696 0.540509 -0.291730
C12   C     C_3   0.916697 0.493675 0.498040 0.057040
C13   C     C_3   0.030829 0.579130 0.411189 0.490008
C14   C     C_3   0.968370 0.470504 0.366899 -0.231991
C15   C     C_1   0.174388 0.494241 0.495647 0.050820
C16   C     C_1   0.825017 0.494650 0.498967 0.040837
H4    H     H_    0.960323 0.695236 0.575785 0.168370
H5    H     H_    0.493973 0.113591 0.282157 0.191225
C17   C     C_R   0.543405 0.115474 0.752807 -0.238249
H6    H     H_    0.583612 0.199919 0.749479 0.163929
C18   C     C_R   0.533376 0.053223 0.879541 0.520582
C19   C     C_R   0.487462 0.938882 0.881980 -0.225360
H7    H     H_    0.476173 0.891115 0.979244 0.202505
C20   C     C_R   0.461473 0.881278 0.758193 -0.186906
H8    H     H_    0.426124 0.792919 0.765639 0.192552
C21   C     C_R   0.483151 0.936772 0.629196 0.018945
C22   C     C_R   0.509327 0.062842 0.629328 0.026272
C23   C     C_R   0.504807 0.129301 0.504076 -0.163481
C24   C     C_R   0.496004 0.065484 0.379723 -0.292372
C25   C     C_R   0.499964 0.939314 0.377597 0.492491
C26   C     C_R   0.488148 0.871301 0.501964 -0.224305
H9    H     H_    0.384831 0.391736 0.127050 0.141130
C27   C     C_R   0.628672 0.633493 0.149395 -0.203270
H10   H     H_    0.621325 0.663734 0.252850 0.233934
C28   C     C_R   0.706096 0.664919 0.090250 -0.401994
H11   H     H_    0.758318 0.701586 0.154734 0.209163
C29   C     C_R   0.714370 0.655699 0.948474 0.270957
C30   C     C_R   0.639665 0.633367 0.867022 0.433177
C31   C     C_R   0.566811 0.564901 0.927479 0.040894
C32   C     C_R   0.564478 0.565062 0.076497 0.173605
N1    N     N_R   0.500800 0.501210 0.147910 -0.180016
C33   C     C_R   0.436453 0.441505 0.072994 -0.070457
H12   H     H_    0.384920 0.391534 0.870510 0.147882
C34   C     C_R   0.436507 0.441308 0.925514 -0.069298
N2    N     N_R   0.500830 0.501290 0.852040 -0.184435
O9    O     O_3   0.518717 0.884792 0.253890 -0.566689
C35   C     C_3   0.605763 0.913696 0.227337 -0.263517
H13   H     H_    0.645609 0.869122 0.304661 0.123978
H14   H     H_    0.624124 0.013932 0.228123 0.194682
H15   H     H_    0.620186 0.880495 0.122473 0.206737
N3    N     N_R   0.796071 0.681590 0.886589 0.108284
O10   O     O_R   0.812020 0.635512 0.766489 -0.411554
O11   O     O_R   0.856793 0.743519 0.953914 -0.435101
O12   O     O_3   0.635227 0.690431 0.739120 -0.526117
C36   C     C_3   0.666124 0.815777 0.742909 -0.249273
H16   H     H_    0.735190 0.827292 0.725270 0.205878
H17   H     H_    0.649726 0.862017 0.840498 0.148458
H18   H     H_    0.638399 0.863934 0.655216 0.158763
O13   O     O_3   0.070068 0.668673 0.322005 -0.573754
C37   C     C_3   0.007513 0.730673 0.253372 -0.263756
H19   H     H_    0.967247 0.776349 0.328007 0.154414
H20   H     H_    0.967809 0.667741 0.184553 0.173479
H21   H     H_    0.039259 0.803169 0.186840 0.201156
O14   O     O_3   0.068343 0.532470 0.753535 -0.589996
C38   C     C_3   0.008229 0.566673 0.849463 -0.201272
H22   H     H_    0.951563 0.499577 0.852636 0.176054
H23   H     H_    0.989821 0.660263 0.826135 0.216060
H24   H     H_    0.037422 0.569053 0.954356 0.184176
O15   O     O_3   0.576201 0.094594 0.998021 -0.608918
C39   C     C_3   0.554255 0.212524 0.032995 -0.310049
H25   H     H_    0.484506 0.213363 0.042724 0.162092
H26   H     H_    0.580247 0.282975 0.958446 0.167505
H27   H     H_    0.583093 0.238007 0.134985 0.196662

loop_
_geom_bond_atom_site_label_1
_geom_bond_atom_site_label_2
_geom_bond_distance
_ccdc_geom_bond_type
C5    H2    1.110070 S    
H5    C24   1.079086 S    
C29   N3    1.437006 S    
C23   C24   1.390170 A    
C19   H7    1.081898 S    
Cu1   Cu2   2.714159 S    
C32   N1    1.368762 A    
Cu1   O7    1.931045 S    
C13   C14   1.542491 S    
C35   H15   1.107616 S    
C4    C8    1.424032 S    
C19   C20   1.395579 A    
C11   C13   1.542026 S    
O4    C2    1.301735 A    
O7    C4    1.304548 A    
C38   H23   1.110518 S    
C5    C12   1.545950 S    
C5    C6    1.554943 S    
C13   O13   1.410896 S    
H12   C34   1.081400 S    
C35   H14   1.111739 S    
C18   C19   1.395197 A    
C37   H19   1.112448 S    
C10   C13   1.529701 S    
O5    C3    1.305450 A    
N1    C33   1.368451 A    
C5    C9    1.541487 S    
C1    C23   1.466737 S    
C36   H16   1.106540 S    
H3    C14   1.110176 S    
Cu1   N2    2.039410 S    
C25   O9    1.380965 S    
C6    C14   1.555544 S    
C28   C29   1.379769 A    
O9    C35   1.415579 S    
C37   H20   1.111981 S    
O3    Cu1   1.928034 S    
C12   C16   1.455131 S    
C27   C28   1.375007 A    
O12   C36   1.418745 S    
C11   C12   1.551054 S    
O3    C2    1.303216 A    
Cu2   N1    2.039992 S    
C21   C22   1.407861 A    
C38   H22   1.113090 S    
C6    H1    1.110051 S    
C7    C15   1.199092 T    
O14   C38   1.406764 S    
C8    C16   1.199496 T    
C30   C31   1.449381 A    
C35   H13   1.112185 S    
O1    C1    1.299709 A    
N3    O11   1.301635 A    
C25   C26   1.415920 A    
C20   H8    1.079540 S    
C39   H25   1.111706 S    
Cu2   O8    1.928032 S    
C29   C30   1.421707 A    
C30   O12   1.385743 S    
C10   C15   1.455946 S    
C31   N2    1.407440 A    
C36   H17   1.112625 S    
C28   H11   1.083124 S    
C39   H26   1.109381 S    
O8    C4    1.300656 A    
C6    C10   1.541062 S    
C33   C34   1.422893 A    
C37   H21   1.109551 S    
C9    C11   1.543306 S    
C24   C25   1.388065 A    
C31   C32   1.438461 A    
Cu1   O5    1.985114 S    
C27   H10   1.062573 S    
C22   C23   1.413485 A    
O1    Cu1   1.986100 S    
O2    Cu2   1.985115 S    
C9    O14   1.411087 S    
O13   C37   1.408572 S    
O6    C3    1.313273 A    
O4    Cu2   1.931046 S    
C21   C26   1.428948 A    
C12   C14   1.545082 S    
C2    C7    1.423975 S    
C17   H6    1.079172 S    
O2    C1    1.311758 A    
C20   C21   1.415539 A    
N3    O10   1.299678 A    
C38   H24   1.109446 S    
C34   N2    1.367871 A    
C36   H18   1.103755 S    
C27   C32   1.399504 A    
C17   C22   1.409311 A    
C11   H4    1.109985 S    
C39   H27   1.108710 S    
H9    C33   1.081527 S    
Cu2   O6    1.986100 S    
O15   C39   1.407158 S    
C9    C10   1.528611 S    
C18   O15   1.383434 S    
C3    C26   1.481829 S    
C17   C18   1.401926 A    
