data_mof_unit_51585.cif
_audit_creation_date              2013-03-05T15:54:48-0500
_audit_creation_method            fapswitch 2.2
_symmetry_space_group_name_H-M    P1
_symmetry_Int_Tables_number       1
_space_group_crystal_system       triclinic
_cell_length_a                    19.14008
_cell_length_b                    10.700744
_cell_length_c                    10.020335
_cell_angle_alpha                 87.672348
_cell_angle_beta                  89.339887
_cell_angle_gamma                 95.686111
_cell_volume                      2040.26334975

loop_
_atom_site_label
_atom_site_type_symbol
_atom_site_description
_atom_site_fract_x
_atom_site_fract_y
_atom_site_fract_z
_atom_type_partial_charge
O1    O     O_R   0.500000 0.316780 0.614690 -0.626344
O2    O     O_R   0.499990 0.316750 0.385360 -0.589044
C1    C     C_R   0.508433 0.262190 0.502630 0.981442
O3    O     O_R   0.398140 0.500000 0.614700 -0.605347
O4    O     O_R   0.398130 0.499970 0.385370 -0.609669
C2    C     C_R   0.366549 0.510091 0.500693 0.985532
Zn1   Zn    Zn3+2 0.500000 0.500020 0.653130 1.023464
Zn2   Zn    Zn3+2 0.500000 0.499980 0.346870 1.081903
O5    O     O_R   0.500010 0.683250 0.614640 -0.594706
O6    O     O_R   0.500000 0.683220 0.385310 -0.607630
O7    O     O_R   0.601870 0.500030 0.614630 -0.614414
O8    O     O_R   0.601860 0.500000 0.385300 -0.527075
C3    C     C_R   0.495203 0.739270 0.497640 0.881598
C4    C     C_R   0.634875 0.501139 0.498879 0.957004
C5    C     C_R   0.262600 0.570665 0.624383 -0.194045
H1    H     H_    0.293138 0.578227 0.714312 0.205647
C6    C     C_R   0.191054 0.584361 0.632126 0.298633
C7    C     C_R   0.151608 0.577742 0.513964 -0.173708
C8    C     C_R   0.185270 0.568521 0.389011 0.280401
C9    C     C_R   0.256125 0.549766 0.385966 -0.197886
H2    H     H_    0.281875 0.543582 0.291136 0.222791
C10   C     C_R   0.293744 0.541412 0.503744 -0.143154
N1    N     N_R   0.039898 0.465442 0.463701 -0.088282
N2    N     N_R   0.970350 0.453144 0.464481 -0.089543
C11   C     C_R   0.934539 0.539666 0.522709 0.448719
N3    N     N_R   0.969993 0.638476 0.581087 -0.120244
N4    N     N_R   0.039762 0.651034 0.579951 -0.101559
C12   C     C_R   0.075528 0.564859 0.520383 0.414083
C13   C     C_R   0.818424 0.520480 0.631281 0.474440
C14   C     C_R   0.745473 0.502347 0.622589 -0.287832
H3    H     H_    0.715023 0.486543 0.714364 0.228497
C15   C     C_R   0.712190 0.506045 0.498281 -0.250303
C16   C     C_R   0.753858 0.520704 0.379193 0.257489
C17   C     C_R   0.827247 0.529546 0.387842 0.186160
C18   C     C_R   0.858805 0.530775 0.513795 -0.183652
C19   C     C_R   0.522786 0.094662 0.754090 -0.211692
H4    H     H_    0.555346 0.181372 0.769127 0.189888
C20   C     C_R   0.502370 0.016245 0.865344 -0.075943
H5    H     H_    0.518525 0.044592 0.962992 0.230610
C21   C     C_R   0.454835 0.909586 0.853094 0.554907
C22   C     C_R   0.440685 0.869039 0.722840 -0.238831
H6    H     H_    0.406854 0.784247 0.706509 0.115591
C23   C     C_R   0.476154 0.932823 0.612097 0.095758
C24   C     C_R   0.505120 0.055920 0.625477 0.089396
C25   C     C_R   0.521615 0.130386 0.508608 -0.217698
C26   C     C_R   0.537614 0.072542 0.390097 0.273381
H7    H     H_    0.537506 0.897574 0.296047 0.256367
C27   C     C_R   0.521483 0.943783 0.383383 -0.206800
C28   C     C_R   0.491002 0.873555 0.493590 -0.162067
C29   C     C_R   0.429260 0.293878 0.149619 0.411213
C30   C     C_R   0.417716 0.181456 0.085662 -0.239096
H8    H     H_    0.396324 0.097103 0.141407 0.213094
C31   C     C_R   0.405769 0.187592 0.950831 -0.287312
H9    H     H_    0.375113 0.108923 0.908007 0.209939
C32   C     C_R   0.420857 0.299647 0.875971 0.382165
C33   C     C_R   0.461352 0.402917 0.933635 -0.080124
C34   C     C_R   0.463830 0.400756 0.077692 -0.034632
N5    N     N_R   0.499340 0.498800 0.142780 -0.186621
C35   C     C_R   0.535632 0.594074 0.065410 0.290162
C36   C     C_R   0.539517 0.588541 0.923199 0.280118
N6    N     N_R   0.499320 0.498720 0.857170 -0.204320
O9    O     O_3   0.428910 0.847301 0.971229 -0.611418
C37   C     C_3   0.373663 0.752616 0.951854 0.067855
H10   H     H_    0.393528 0.672197 0.901252 0.151143
H11   H     H_    0.330612 0.790577 0.893764 0.182456
C38   C     C_3   0.343555 0.703414 0.086677 -0.689665
H12   H     H_    0.322670 0.780543 0.141038 0.256695
H13   H     H_    0.300250 0.628701 0.071254 0.268749
H14   H     H_    0.384852 0.663445 0.147285 0.242995
N7    N     N_R   0.569270 0.703075 0.125930 0.235281
O10   O     O_R   0.565615 0.814112 0.070445 -0.327671
O11   O     O_R   0.610958 0.692189 0.225682 -0.306240
N8    N     N_R   0.376010 0.308550 0.246527 0.229028
O12   O     O_R   0.321598 0.361201 0.204290 -0.372118
O13   O     O_R   0.366992 0.228547 0.348172 -0.364590
N9    N     N_R   0.372101 0.316632 0.772806 0.240980
O14   O     O_R   0.365822 0.236076 0.678670 -0.361082
O15   O     O_R   0.317055 0.371754 0.804560 -0.363818
N10   N     N_R   0.159140 0.596635 0.761021 0.239509
O16   O     O_R   0.102521 0.525468 0.797605 -0.297460
O17   O     O_R   0.192921 0.663028 0.850107 -0.352630
N11   N     N_R   0.593840 0.665984 0.851584 0.257229
O18   O     O_R   0.582041 0.775703 0.801869 -0.337605
O19   O     O_R   0.658497 0.641787 0.867393 -0.395377
N12   N     N_R   0.148122 0.576843 0.265174 0.227655
O20   O     O_R   0.167785 0.518603 0.161747 -0.276159
O21   O     O_R   0.099363 0.652695 0.250899 -0.303131
O22   O     O_3   0.851811 0.516366 0.753369 -0.593085
C39   C     C_3   0.828799 0.606637 0.838774 0.113672
H15   H     H_    0.789432 0.559068 0.911167 0.244511
H16   H     H_    0.805170 0.685382 0.785061 0.164210
C40   C     C_3   0.891259 0.664203 0.915490 -0.524285
H17   H     H_    0.928992 0.719660 0.845655 0.237958
H18   H     H_    0.873142 0.727344 0.991124 0.247547
H19   H     H_    0.918440 0.589203 0.966507 0.310200
N13   N     N_R   0.723714 0.535243 0.249679 0.260833
O23   O     O_R   0.692038 0.438058 0.194121 -0.272054
O24   O     O_R   0.744193 0.634540 0.174592 -0.314677
N14   N     N_R   0.869638 0.538244 0.267821 0.232672
O25   O     O_R   0.919923 0.628600 0.248908 -0.338467
O26   O     O_R   0.857670 0.455885 0.176706 -0.310877
N15   N     N_R   0.579410 0.140525 0.285855 0.227411
O27   O     O_R   0.580812 0.097898 0.166392 -0.362719
O28   O     O_R   0.627276 0.228832 0.317115 -0.334278

loop_
_geom_bond_atom_site_label_1
_geom_bond_atom_site_label_2
_geom_bond_distance
_ccdc_geom_bond_type
C38   H13   1.109839 S    
C32   C33   1.431167 A    
C37   H11   1.113993 S    
N8    O13   1.302268 A    
C22   H6    1.080470 S    
C8    C9    1.390652 A    
N12   O20   1.301564 A    
Zn1   O7    1.983221 S    
C26   N15   1.436646 S    
N3    N4    1.328678 A    
C13   C14   1.394755 A    
C19   H4    1.082109 S    
C20   C21   1.397744 A    
N9    O15   1.299944 A    
C7    C8    1.412999 A    
O4    C2    1.311292 A    
O7    C4    1.313398 A    
C38   H14   1.110624 S    
C5    H1    1.081151 S    
C2    C10   1.465428 S    
C6    N10   1.438756 S    
C21   O9    1.395895 S    
C33   C34   1.444145 A    
Zn1   O5    1.982823 S    
C17   C18   1.405431 A    
N8    O12   1.299318 A    
O5    C3    1.303309 A    
Zn1   N6    2.043913 S    
C13   O22   1.387856 S    
Zn2   N5    2.045779 S    
C36   N11   1.430577 S    
C5    C10   1.402039 A    
H7    C27   1.078623 S    
N13   O24   1.301732 A    
N1    N2    1.324523 A    
N7    O10   1.299799 A    
C39   H16   1.117381 S    
N12   O21   1.301533 A    
C38   H12   1.111109 S    
C37   C38   1.516106 S    
C35   C36   1.430013 A    
C22   C23   1.409759 A    
O3    Zn1   1.991606 S    
C29   C30   1.385628 A    
C31   C32   1.391823 A    
C20   H5    1.075875 S    
C26   C27   1.386343 A    
C30   H8    1.083958 S    
C7    C12   1.449461 S    
N2    C11   1.351976 A    
O3    C2    1.304283 A    
C29   N8    1.423963 S    
C4    C15   1.475473 S    
N10   O17   1.301326 A    
C23   C28   1.407922 A    
C11   N3    1.355670 A    
C25   C26   1.405699 A    
C1    C25   1.456186 S    
C40   H19   1.109788 S    
C37   H10   1.112666 S    
C36   N6    1.367609 A    
C30   C31   1.372889 A    
C23   C24   1.389882 A    
O9    C37   1.410974 S    
N14   O25   1.301384 A    
Zn2   O8    1.991603 S    
N13   O23   1.299569 A    
C9    H2    1.072835 S    
C40   H18   1.110453 S    
C6    C7    1.412005 A    
N1    C12   1.354121 A    
N9    O14   1.302079 A    
C39   C40   1.520942 S    
N15   O28   1.299809 A    
C11   C18   1.447269 S    
C3    C28   1.446078 S    
C32   N9    1.418843 S    
C21   C22   1.412793 A    
N14   O26   1.301122 A    
O8    C4    1.308011 A    
N11   O19   1.299352 A    
C19   C24   1.404533 A    
C16   N13   1.435245 S    
C24   C25   1.404236 A    
C5    C6    1.393206 A    
C27   C28   1.398382 A    
O1    Zn1   2.013571 S    
C29   C34   1.427361 A    
O2    Zn2   1.982821 S    
C9    C10   1.393926 A    
C8    N12   1.441239 S    
O6    C3    1.303257 A    
O4    Zn2   1.983225 S    
C31   H9    1.083685 S    
C17   N14   1.437638 S    
C13   C18   1.395366 A    
C15   C16   1.422215 A    
C19   C20   1.395923 A    
O2    C1    1.309633 A    
N5    C35   1.380589 A    
C14   C15   1.406488 A    
C34   N5    1.382939 A    
C14   H3    1.081405 S    
C40   H17   1.110467 S    
C16   C17   1.402400 A    
N15   O27   1.299136 A    
C35   N7    1.435401 S    
N10   O16   1.301299 A    
O22   C39   1.415003 S    
Zn2   O6    2.013571 S    
N11   O18   1.298171 A    
N4    C12   1.354856 A    
C33   N6    1.393509 A    
N7    O11   1.294868 A    
O1    C1    1.302283 A    
C39   H15   1.111066 S    
