data_mof_unit_45305.cif
_audit_creation_date              2013-03-05T16:05:19-0500
_audit_creation_method            fapswitch 2.2
_symmetry_space_group_name_H-M    P1
_symmetry_Int_Tables_number       1
_space_group_crystal_system       triclinic
_cell_length_a                    10.833276
_cell_length_b                    9.563088
_cell_length_c                    15.913072
_cell_angle_alpha                 90.090145
_cell_angle_beta                  90.875444
_cell_angle_gamma                 90.000252
_cell_volume                      1648.39296762

loop_
_atom_site_label
_atom_site_type_symbol
_atom_site_description
_atom_site_fract_x
_atom_site_fract_y
_atom_site_fract_z
_atom_type_partial_charge
O1    O     O_R   0.319660 0.618740 0.500000 -0.560884
O2    O     O_R   0.319660 0.381260 0.500000 -0.559988
C1    C     C_R   0.262198 0.500002 0.501281 0.835336
O3    O     O_R   0.500020 0.618840 0.379440 -0.544719
O4    O     O_R   0.500020 0.381160 0.379440 -0.542805
C2    C     C_R   0.499563 0.499887 0.340425 0.845752
Cu1   Cu    Cu3+1 0.500020 0.640660 0.500000 1.035958
Cu2   Cu    Cu3+1 0.500020 0.359340 0.500000 1.036718
O5    O     O_R   0.680370 0.618830 0.500010 -0.591781
O6    O     O_R   0.680370 0.381170 0.500010 -0.592304
O7    O     O_R   0.500010 0.618730 0.620560 -0.572756
O8    O     O_R   0.500010 0.381270 0.620560 -0.574481
C3    C     C_R   0.737784 0.500002 0.500835 0.789537
C4    C     C_R   0.500024 0.500133 0.659604 0.808377
C5    C     C_3   0.402530 0.616319 0.049401 0.098952
C6    C     C_3   0.457046 0.349128 0.047233 0.106772
C7    C     C_3   0.451285 0.355627 0.948700 0.051498
C8    C     C_3   0.406954 0.623501 0.950896 0.065796
H1    H     H_    0.537729 0.281727 0.063982 0.144560
H2    H     H_    0.444039 0.716576 0.072277 0.142066
C9    C     C_1   0.498495 0.500730 0.748906 -0.016563
C10   C     C_3   0.489314 0.497878 0.083614 -0.115849
C11   C     C_3   0.494001 0.503567 0.916592 -0.209876
C12   C     C_3   0.630151 0.530100 0.953892 0.463639
C13   C     C_3   0.621399 0.534352 0.052900 -0.576930
C14   C     C_1   0.496589 0.502077 0.824229 0.197747
C15   C     C_1   0.493456 0.498649 0.175789 0.121062
C16   C     C_1   0.496793 0.499473 0.251106 -0.019473
C17   C     C_R   0.063772 0.373040 0.504789 -0.095011
C18   C     C_R   0.063781 0.626962 0.505125 -0.095906
H3    H     H_    0.111542 0.273725 0.506212 0.197215
H4    H     H_    0.111560 0.726272 0.506828 0.196903
C19   C     C_R   0.936068 0.372987 0.503963 -0.139065
C20   C     C_R   0.936075 0.627017 0.504294 -0.138636
C21   C     C_R   0.871669 0.500003 0.502812 -0.029818
C22   C     C_R   0.128262 0.500003 0.503747 -0.037817
C23   C     C_R   0.433596 0.074095 0.440701 0.346981
C24   C     C_R   0.433528 0.925612 0.440726 0.349139
N1    N     N_R   0.500030 0.852070 0.500020 -0.243944
N2    N     N_R   0.500030 0.147930 0.500020 -0.243194
C25   C     C_R   0.566717 0.925940 0.558725 -0.070659
C26   C     C_R   0.566701 0.074357 0.558733 -0.069196
N3    N     N_R   0.283826 0.636635 0.910557 0.208814
O9    O     O_R   0.253498 0.566853 0.843119 -0.278660
O10   O     O_R   0.215241 0.742949 0.930710 -0.208249
N4    N     N_R   0.334030 0.307749 0.910269 0.201408
O11   O     O_R   0.227525 0.342150 0.940524 -0.156478
O12   O     O_R   0.336689 0.219642 0.847896 -0.293797
H5    H     H_    0.620581 0.870498 0.605771 0.178967
H6    H     H_    0.620564 0.130033 0.605783 0.175338
N5    N     N_R   0.277789 0.612595 0.084848 0.203522
O13   O     O_R   0.192964 0.528047 0.056562 -0.169517
O14   O     O_R   0.248556 0.702666 0.142621 -0.226629
N6    N     N_R   0.350586 0.276968 0.084295 0.212009
O15   O     O_R   0.293343 0.327000 0.149011 -0.225834
O16   O     O_R   0.329611 0.147454 0.063216 -0.223224
H7    H     H_    0.521182 0.278845 0.926966 0.162466
H8    H     H_    0.452755 0.724232 0.936445 0.158205
H9    H     H_    0.646094 0.640487 0.076736 0.225134
H10   H     H_    0.690543 0.465243 0.084055 0.254525
N7    N     N_R   0.684617 0.664236 0.926208 0.137105
O17   O     O_R   0.790520 0.703085 0.958250 -0.219926
O18   O     O_R   0.642961 0.731034 0.860439 -0.349963
N8    N     N_R   0.714150 0.417351 0.926046 0.145478
O19   O     O_R   0.753807 0.417029 0.849227 -0.284581
O20   O     O_R   0.749662 0.316775 0.975922 -0.308880
H11   H     H_    0.888094 0.273601 0.504029 0.167450
H12   H     H_    0.888106 0.726401 0.504630 0.167506
N9    N     N_R   0.363398 0.145664 0.377343 0.167935
O21   O     O_R   0.405423 0.150371 0.301243 -0.264462
O22   O     O_R   0.246329 0.166728 0.388735 -0.320310
N10   N     N_R   0.362878 0.853748 0.377567 0.167735
O23   O     O_R   0.245834 0.833088 0.389267 -0.321058
O24   O     O_R   0.404448 0.848398 0.301348 -0.274379

loop_
_geom_bond_atom_site_label_1
_geom_bond_atom_site_label_2
_geom_bond_distance
_ccdc_geom_bond_type
O4    Cu2   1.930121 S    
C18   H4    1.081707 S    
C9    C14   1.199169 T    
O6    C3    1.295429 A    
N6    O16   1.301736 A    
Cu1   O5    1.964902 S    
C23   C24   1.419957 A    
C13   H10   1.110557 S    
C23   N9    1.428983 S    
Cu2   O8    1.929581 S    
C5    C8    1.570591 S    
N1    C25   1.367824 A    
C13   H9    1.114142 S    
C25   C26   1.419326 A    
N7    O17   1.302215 A    
C18   C22   1.401050 A    
Cu1   N1    2.021732 S    
C11   C12   1.601547 S    
N8    O19   1.301904 A    
C17   H3    1.081707 S    
N2    C26   1.367875 A    
O2    C1    1.295261 A    
Cu1   Cu2   2.690288 S    
C12   N8    1.482510 S    
C24   N10   1.429177 S    
C8    N3    1.476877 S    
C7    N4    1.473966 S    
Cu1   O7    1.930237 S    
N3    O10   1.301842 A    
C17   C22   1.401052 A    
C7    C11   1.576774 S    
C1    C22   1.452093 S    
C26   H6    1.081636 S    
C12   N7    1.482364 S    
O4    C2    1.294877 A    
C4    C9    1.421413 S    
C25   H5    1.081656 S    
C19   C21   1.400771 A    
O8    C4    1.294561 A    
C3    C21   1.450268 S    
C23   N2    1.372848 A    
C5    N5    1.472741 S    
C10   C15   1.466795 S    
C6    H1    1.115304 S    
N3    O9    1.300729 A    
N9    O21   1.301075 A    
Cu2   O6    1.964900 S    
O7    C4    1.294045 A    
C6    N6    1.475196 S    
O3    C2    1.295068 A    
N9    O22   1.299527 A    
C18   C20   1.383329 A    
N5    O14   1.301464 A    
C8    C11   1.586338 S    
N4    O12   1.301596 A    
C17   C19   1.383317 A    
C2    C16   1.421207 S    
C24   N1    1.373041 A    
C12   C13   1.580273 S    
C19   H11   1.083253 S    
N10   O23   1.299528 A    
N10   O24   1.301147 A    
C20   C21   1.400771 A    
N4    O11   1.299132 A    
C11   C14   1.470517 S    
C20   H12   1.083254 S    
C15   C16   1.198531 T    
N7    O18   1.301808 A    
O5    C3    1.295439 A    
N6    O15   1.300776 A    
C6    C7    1.569580 S    
C6    C10   1.572305 S    
Cu2   N2    2.021734 S    
O3    Cu1   1.929468 S    
O1    Cu1   1.965101 S    
C8    H8    1.109592 S    
C5    C10   1.565101 S    
O2    Cu2   1.965103 S    
N5    O13   1.298838 A    
C7    H7    1.113260 S    
C5    H2    1.117076 S    
O1    C1    1.295277 A    
C10   C13   1.558825 S    
N8    O20   1.302343 A    
