data_mof_unit_25701.cif
_audit_creation_date              2012-12-11T14:44:10-0500
_audit_creation_method            fapswitch 2.2
_symmetry_space_group_name_H-M    P1
_symmetry_Int_Tables_number       1
_space_group_crystal_system       triclinic
_cell_length_a                    18.946126
_cell_length_b                    10.877588
_cell_length_c                    18.85622
_cell_angle_alpha                 90.085031
_cell_angle_beta                  89.602049
_cell_angle_gamma                 90.139164
_cell_volume                      3885.9341714

loop_
_atom_site_label
_atom_site_type_symbol
_atom_type_description
_atom_site_fract_x
_atom_site_fract_y
_atom_site_fract_z
_atom_type_partial_charge
C1    C     C_R   0.729765 0.376504 0.145355 0.552974
C2    C     C_R   0.960133 0.999042 0.058731 -0.122511
C3    C     C_R   0.970746 0.776013 0.050983 0.025657
C4    C     C_R   0.507702 0.053543 0.034331 -0.147649
C5    C     C_R   0.505201 0.055177 0.961696 -0.149492
C6    C     C_R   0.975730 0.553083 0.046249 -0.148953
C7    C     C_R   0.959249 0.554603 0.975384 -0.152494
C8    C     C_1   0.665297 0.781381 0.421438 0.215607
C9    C     C_1   0.374399 0.838555 0.563671 0.214134
C10   C     C_1   0.165280 0.281395 0.421442 0.215723
C11   C     C_1   0.874394 0.338540 0.563674 0.213471
C12   C     C_R   0.496150 0.503600 0.966629 -0.143683
C13   C     C_R   0.484148 0.500169 0.039364 -0.138904
C14   C     C_R   0.704218 0.853741 0.039865 -0.141001
C15   C     C_R   0.303534 0.868428 0.961939 -0.135686
C16   C     C_R   0.199302 0.362281 0.038605 -0.136217
C17   C     C_R   0.804415 0.370063 0.961617 -0.145438
C18   C     C_R   0.706149 0.838131 0.966718 -0.135704
C19   C     C_R   0.301309 0.856711 0.035415 -0.136586
C20   C     C_R   0.201278 0.349145 0.965246 -0.130775
C21   C     C_R   0.269611 0.377367 0.854065 0.549824
C22   C     C_R   0.802115 0.360944 0.035238 -0.144049
C23   C     C_R   0.748801 0.915579 0.924660 0.030968
C24   C     C_R   0.247805 0.915795 0.074300 0.032107
C25   C     C_R   0.250822 0.416293 0.925141 0.033285
C26   C     C_R   0.745117 0.411851 0.072724 0.033687
C27   C     C_R   0.784621 0.013967 0.955265 -0.127915
C28   C     C_R   0.199133 0.991046 0.039736 -0.127344
C29   C     C_R   0.295055 0.501449 0.958175 -0.123445
C30   C     C_R   0.692134 0.475155 0.036340 -0.126539
C31   C     C_R   0.784023 0.027470 0.027798 -0.112460
C32   C     C_R   0.230238 0.877273 0.145831 0.555246
C33   C     C_R   0.199233 0.997732 0.967273 -0.125518
C34   C     C_R   0.294888 0.511018 0.030648 -0.120033
C35   C     C_R   0.693023 0.479976 0.963913 -0.132611
C36   C     C_R   0.745506 0.945760 0.070744 0.035725
C37   C     C_R   0.251539 0.937522 0.927541 0.036082
C38   C     C_R   0.247502 0.441210 0.071649 0.032048
C39   C     C_R   0.749788 0.430402 0.925789 0.031847
C40   C     C_R   0.554260 0.056594 0.478371 -0.133008
C41   C     C_R   0.535849 0.059219 0.549457 -0.118855
C42   C     C_R   0.054247 0.556595 0.478364 -0.133078
C43   C     C_R   0.769413 0.877092 0.854034 0.540207
C44   C     C_R   0.035833 0.559218 0.549449 -0.118762
C45   C     C_R   0.507581 0.166473 0.579561 0.022134
C46   C     C_R   0.547361 0.161933 0.436670 0.021438
C47   C     C_R   0.007563 0.666471 0.579551 0.021251
C48   C     C_R   0.047347 0.661933 0.436665 0.022039
C49   C     C_R   0.531492 0.155265 0.146527 0.548654
C50   C     C_R   0.469068 0.156015 0.853097 0.537272
C51   C     C_R   0.028529 0.655100 0.148934 0.551390
C52   C     C_R   0.938063 0.652661 0.861646 0.557975
C53   C     C_R   0.505139 0.274817 0.539357 -0.137591
C54   C     C_R   0.504034 0.394490 0.928563 -0.080920
C55   C     C_R   0.525363 0.272717 0.468156 -0.130453
C56   C     C_R   0.005112 0.774813 0.539346 -0.137944
C57   C     C_R   0.025339 0.772714 0.468146 -0.130501
C58   C     C_R   0.773868 0.055137 0.480142 -0.146545
C59   C     C_R   0.187994 0.954011 0.539458 -0.152851
C60   C     C_R   0.273871 0.555134 0.480140 -0.146524
C61   C     C_R   0.687992 0.454006 0.539460 -0.153396
C62   C     C_R   0.780236 0.029661 0.551521 -0.133697
C63   C     C_R   0.183706 0.949075 0.467090 -0.124081
C64   C     C_R   0.280243 0.529654 0.551517 -0.133031
C65   C     C_R   0.484084 0.388052 0.075015 -0.081445
C66   C     C_R   0.683706 0.449075 0.467091 -0.123963
C67   C     C_R   0.748693 0.924092 0.579412 0.013482
C68   C     C_R   0.241583 0.909970 0.426270 0.022510
C69   C     C_R   0.248696 0.424089 0.579410 0.014758
C70   C     C_R   0.741583 0.409969 0.426271 0.022296
C71   C     C_R   0.708332 0.846645 0.536177 -0.143595
C72   C     C_R   0.304532 0.877188 0.458989 -0.152829
C73   C     C_R   0.208327 0.346650 0.536177 -0.143355
C74   C     C_R   0.804531 0.377184 0.458991 -0.152890
C75   C     C_R   0.702545 0.870461 0.464255 -0.034461
C76   C     C_R   0.956934 0.898960 0.944716 -0.087694
C77   C     C_R   0.309593 0.881812 0.532493 -0.029835
C78   C     C_R   0.202538 0.370469 0.464255 -0.034454
C79   C     C_R   0.809590 0.381804 0.532496 -0.029886
C80   C     C_R   0.735674 0.976503 0.435866 0.012752
C81   C     C_R   0.251296 0.925464 0.573114 0.011503
C82   C     C_R   0.235671 0.476506 0.435866 0.012859
C83   C     C_R   0.751293 0.425457 0.573117 0.010861
C84   C     C_R   0.740364 0.973725 0.145665 0.557062
C85   C     C_R   0.259028 0.971795 0.853619 0.547596
C86   C     C_R   0.240756 0.472531 0.146063 0.558701
C87   C     C_R   0.965518 0.885330 0.091395 -0.076022
C88   C     C_R   0.758580 0.469936 0.852908 0.536486
C89   C     C_R   0.728767 0.377715 0.353062 0.544028
C90   C     C_R   0.269712 0.380080 0.648394 0.550099
C91   C     C_R   0.228766 0.877714 0.353062 0.543770
C92   C     C_R   0.769710 0.880084 0.648396 0.550931
C93   C     C_R   0.563878 0.153373 0.360963 0.539577
C94   C     C_R   0.469494 0.157340 0.647061 0.544847
C95   C     C_R   0.063873 0.653374 0.360962 0.538949
C96   C     C_R   0.969487 0.657339 0.647058 0.556741
C97   C     C_R   0.729368 0.013730 0.362140 0.533913
C98   C     C_R   0.958113 0.005928 0.985528 -0.145766
C99   C     C_R   0.259082 0.970613 0.645333 0.545079
C100  C     C_R   0.229366 0.513733 0.362140 0.533851
C101  C     C_R   0.759081 0.470608 0.645335 0.545201
C102  C     C_R   0.498215 0.165912 0.924904 -0.000084
C103  C     C_R   0.504962 0.162837 0.073684 -0.000330
C104  C     C_R   0.954984 0.665246 0.937936 0.003369
C105  C     C_R   0.986988 0.662667 0.083374 -0.001001
C106  C     C_R   0.499578 0.279100 0.962903 0.033336
C107  C     C_R   0.496152 0.276679 0.038092 0.028485
C108  C     C_R   0.960259 0.780079 0.976290 0.028482
Cr1   Cr    Cr6+3 0.772000 0.169640 0.250110 1.010563
Cr2   Cr    Cr6+3 0.383330 0.010620 0.749160 1.042024
Cr3   Cr    Cr6+3 0.116670 0.510620 0.250840 1.038138
Cr4   Cr    Cr6+3 0.883330 0.510620 0.749160 1.037332
Cr5   Cr    Cr6+3 0.228000 0.169640 0.749890 1.021287
Cr6   Cr    Cr6+3 0.272000 0.669640 0.250110 1.013855
Cr7   Cr    Cr6+3 0.728000 0.669640 0.749890 1.007989
Cr8   Cr    Cr6+3 0.614960 0.323350 0.249260 1.022961
Cr9   Cr    Cr6+3 0.385040 0.323350 0.750740 1.018447
Cr10  Cr    Cr6+3 0.114960 0.823350 0.249260 1.021877
Cr11  Cr    Cr6+3 0.885040 0.823350 0.750740 1.009913
Cr12  Cr    Cr6+3 0.616670 0.010620 0.250840 1.039119
H1    H     H_    0.514361 0.964815 0.059430 0.141441
H2    H     H_    0.133518 0.972107 0.443560 0.158298
H3    H     H_    0.312353 0.589230 0.584249 0.144898
H4    H     H_    0.633519 0.472113 0.443561 0.158245
H5    H     H_    0.685243 0.762885 0.557359 0.143175
H6    H     H_    0.348456 0.842875 0.427542 0.133004
H7    H     H_    0.185235 0.262894 0.557360 0.143045
H8    H     H_    0.848455 0.342872 0.427544 0.132765
H9    H     H_    0.515751 0.402198 0.872599 0.131836
H10   H     H_    0.472819 0.389679 0.131265 0.137394
H11   H     H_    0.954686 0.916440 0.889052 0.171206
H12   H     H_    0.505680 0.967341 0.934489 0.138298
H13   H     H_    0.964024 0.884023 0.148688 0.137434
H14   H     H_    0.955201 0.094963 0.960087 0.096651
H15   H     H_    0.957552 0.082122 0.090322 0.108574
H16   H     H_    0.498733 0.591102 0.939448 0.100457
H17   H     H_    0.475777 0.584823 0.068450 0.104354
H18   H     H_    0.671966 0.793086 0.072167 0.118241
H19   H     H_    0.345662 0.824433 0.932294 0.118257
H20   H     H_    0.160787 0.310850 0.069298 0.119869
H21   H     H_    0.849268 0.332701 0.933042 0.111554
H22   H     H_    0.677766 0.761466 0.943750 0.128656
H23   H     H_    0.983931 0.464301 0.070793 0.138029
H24   H     H_    0.339566 0.798633 0.061350 0.115956
H25   H     H_    0.166573 0.282862 0.940454 0.123921
H26   H     H_    0.843653 0.312306 0.062507 0.110423
H27   H     H_    0.816874 0.075626 0.923568 0.122370
H28   H     H_    0.157589 0.039001 0.068203 0.135966
H29   H     H_    0.333252 0.555355 0.928444 0.131727
H30   H     H_    0.647344 0.516231 0.063342 0.143086
H31   H     H_    0.813915 0.102537 0.050239 0.134206
H32   H     H_    0.159159 0.054102 0.942819 0.132419
H33   H     H_    0.331246 0.575882 0.054219 0.131428
H34   H     H_    0.952705 0.466777 0.949111 0.133520
H35   H     H_    0.650414 0.528508 0.938242 0.132432
H36   H     H_    0.571346 0.970714 0.455256 0.139116
H37   H     H_    0.539515 0.974828 0.579596 0.157138
H38   H     H_    0.071337 0.470716 0.455251 0.139212
H39   H     H_    0.039502 0.474827 0.579588 0.157874
H40   H     H_    0.483680 0.358821 0.561520 0.138569
H41   H     H_    0.520487 0.355966 0.437210 0.137795
H42   H     H_    0.983647 0.858814 0.561506 0.138860
H43   H     H_    0.020460 0.855961 0.437199 0.137641
H44   H     H_    0.800135 0.135185 0.458857 0.133890
H45   H     H_    0.142122 0.985883 0.568758 0.141450
H46   H     H_    0.300141 0.635180 0.458855 0.133833
H47   H     H_    0.642121 0.485878 0.568760 0.140510
H48   H     H_    0.812341 0.089242 0.584254 0.144885
N1    N     N_1   0.635334 0.710371 0.387115 -0.293958
N2    N     N_1   0.426227 0.803005 0.588368 -0.310102
N3    N     N_1   0.135309 0.210390 0.387122 -0.294507
N4    N     N_1   0.926220 0.302984 0.588373 -0.309062
O1    O     O_R   0.787540 0.042690 0.170470 -0.524227
O2    O     O_R   0.454130 0.051100 0.669160 -0.502226
O3    O     O_R   0.045870 0.551100 0.330840 -0.508339
O4    O     O_R   0.954130 0.551100 0.669160 -0.497186
O5    O     O_R   0.681340 0.959300 0.325510 -0.498023
O6    O     O_R   0.318660 0.959300 0.674490 -0.486689
O7    O     O_R   0.181340 0.459300 0.325510 -0.498385
O8    O     O_R   0.818660 0.459300 0.674490 -0.485582
O9    O     O_3   0.667880 0.167870 0.250070 -0.285486
O10   O     O_3   0.332120 0.167870 0.749930 -0.245042
O11   O     O_3   0.167880 0.667870 0.250070 -0.284093
O12   O     O_R   0.212460 0.042690 0.829530 -0.527533
O13   O     O_3   0.832120 0.667870 0.749930 -0.260244
O14   O     O_R   0.765660 0.292160 0.175050 -0.505586
O15   O     O_R   0.234340 0.292160 0.824950 -0.506509
O16   O     O_R   0.265660 0.792160 0.175050 -0.504211
O17   O     O_R   0.734340 0.792160 0.824950 -0.508185
O18   O     O_R   0.670190 0.408980 0.168550 -0.518863
O19   O     O_R   0.329810 0.408980 0.831450 -0.522347
O20   O     O_R   0.170190 0.908980 0.168550 -0.516141
O21   O     O_R   0.829810 0.908980 0.831450 -0.542474
O22   O     O_R   0.556580 0.251450 0.175160 -0.502573
O23   O     O_R   0.287540 0.542690 0.170470 -0.524763
O24   O     O_R   0.443420 0.251450 0.824840 -0.510192
O25   O     O_R   0.056580 0.751450 0.175160 -0.501758
O26   O     O_R   0.943420 0.751450 0.824840 -0.522696
O27   O     O_R   0.545920 0.049510 0.170320 -0.516811
O28   O     O_R   0.454080 0.049510 0.829680 -0.522828
O29   O     O_R   0.045920 0.549510 0.170320 -0.517334
O30   O     O_R   0.954080 0.549510 0.829680 -0.515792
O31   O     O_R   0.681390 0.957840 0.176710 -0.493937
O32   O     O_R   0.318610 0.957840 0.823290 -0.504161
O33   O     O_R   0.181390 0.457840 0.176710 -0.492761
O34   O     O_R   0.712460 0.542690 0.829530 -0.531320
O35   O     O_R   0.818610 0.457840 0.823290 -0.520320
O36   O     O_R   0.787500 0.044280 0.330990 -0.503487
O37   O     O_R   0.212500 0.044280 0.669010 -0.525645
O38   O     O_R   0.287500 0.544280 0.330990 -0.503057
O39   O     O_R   0.712500 0.544280 0.669010 -0.525826
O40   O     O_R   0.765610 0.293630 0.323860 -0.523142
O41   O     O_R   0.234390 0.293630 0.676140 -0.506078
O42   O     O_R   0.265610 0.793630 0.323860 -0.523354
O43   O     O_R   0.734390 0.793630 0.676140 -0.504355
O44   O     O_R   0.670140 0.410570 0.329080 -0.513819
O45   O     O_R   0.556540 0.252920 0.323970 -0.501983
O46   O     O_R   0.329860 0.410570 0.670920 -0.516580
O47   O     O_R   0.170140 0.910570 0.329080 -0.514487
O48   O     O_R   0.829860 0.910570 0.670920 -0.514969
O49   O     O_R   0.443460 0.252920 0.676030 -0.506656
O50   O     O_R   0.056540 0.752920 0.323970 -0.504972
O51   O     O_R   0.943460 0.752920 0.676030 -0.498911
O52   O     O_R   0.545870 0.051100 0.330840 -0.506256

loop_
_geom_bond_atom_site_label_1
_geom_bond_atom_site_label_2
_ccdc_geom_bond_type
C58   C62   A    
C62   H48   S    
C19   H24   S    
C48   C95   S    
C80   C97   S    
Cr10  O50   S    
Cr11  O26   S    
C14   C18   A    
Cr9   O49   S    
Cr5   O41   S    
Cr8   O44   S    
C58   H44   S    
Cr3   O29   S    
C24   C32   S    
C65   H10   S    
C10   C78   S    
Cr6   O16   S    
C48   C57   A    
C13   C65   A    
Cr10  O11   S    
C101  O39   A    
C15   C19   A    
C46   C93   S    
Cr12  O52   S    
C62   C67   A    
C38   C86   S    
Cr3   O3    S    
C37   C85   S    
C16   C20   A    
C35   H35   S    
C91   O42   A    
C14   C36   A    
C87   H13   S    
Cr7   O13   S    
C76   H11   S    
Cr1   O1    S    
C30   H30   S    
Cr5   O12   S    
C20   C25   A    
Cr2   O6    S    
C76   C98   A    
Cr6   O11   S    
Cr5   O15   S    
C4    C103  A    
C56   H42   S    
Cr12  O27   S    
C23   C43   S    
C56   C57   A    
C32   O20   A    
C92   O43   A    
C93   O45   A    
C17   C39   A    
C92   O48   A    
Cr6   O42   S    
C15   C37   A    
C43   O17   A    
Cr8   O18   S    
Cr9   O19   S    
C85   O32   A    
C5    C102  A    
C60   C82   A    
C61   C66   A    
C5    H12   S    
C74   H8    S    
C14   H18   S    
C53   H40   S    
C46   C55   A    
C70   C74   A    
C94   O49   A    
C12   H16   S    
C73   C78   A    
C69   C73   A    
C17   C22   A    
Cr4   O30   S    
Cr1   O40   S    
C51   O25   A    
Cr12  O9    S    
Cr3   O33   S    
C67   C71   A    
C59   H45   S    
C44   C47   A    
C58   C80   A    
C84   O1    A    
Cr4   O8    S    
Cr8   O22   S    
C1    O18   A    
C53   C55   A    
C45   C53   A    
C11   N4    T    
C76   C108  A    
Cr3   O7    S    
C9    N2    T    
C16   H20   S    
C42   C44   A    
C39   C88   S    
C45   C94   S    
C86   O33   A    
Cr11  O51   S    
C21   O15   A    
C89   O40   A    
C15   H19   S    
Cr2   O2    S    
C25   C29   A    
C28   H28   S    
C95   O50   A    
Cr6   O23   S    
C32   O16   A    
C27   C31   A    
C18   C23   A    
C22   H26   S    
C18   H22   S    
C55   H41   S    
C99   O6    A    
C61   C83   A    
Cr4   O13   S    
C50   O28   A    
Cr9   O10   S    
C9    C77   S    
C81   C99   S    
C10   N3    T    
C73   H7    S    
C3    C87   A    
C29   C34   A    
C8    C75   S    
C3    C105  A    
C72   H6    S    
C68   C72   A    
Cr11  O21   S    
C13   H17   S    
Cr1   O36   S    
C35   C39   A    
Cr12  O5    S    
Cr11  O13   S    
C49   C103  S    
C72   C77   A    
C86   O23   A    
C31   H31   S    
C78   C82   A    
C97   O5    A    
Cr5   O10   S    
C57   H43   S    
C77   C81   A    
C68   C91   S    
C47   C96   S    
C96   O51   A    
Cr8   O9    S    
Cr3   O11   S    
Cr7   O43   S    
Cr9   O46   S    
C20   H25   S    
C42   C48   A    
C64   C69   A    
C12   C13   A    
C54   C106  A    
Cr2   O10   S    
C6    C7    A    
C11   C79   S    
C94   O2    A    
C89   O44   A    
C41   H37   S    
C30   C35   A    
C84   O31   A    
C40   C41   A    
Cr4   O4    S    
C28   C33   A    
C50   C102  S    
C85   O12   A    
C23   C27   A    
C74   C79   A    
C22   C26   A    
C1    C26   S    
Cr1   O14   S    
C66   H4    S    
C70   C89   S    
C52   O26   A    
C40   C46   A    
C88   O35   A    
C69   C90   S    
C104  C108  A    
C63   H2    S    
C8    N1    T    
C24   C28   A    
C33   C37   A    
C49   O27   A    
C34   H33   S    
Cr1   O9    S    
Cr12  O31   S    
C54   H9    S    
C21   C25   S    
C63   C68   A    
C42   H38   S    
Cr2   O32   S    
C83   C101  S    
C34   C38   A    
C82   C100  S    
C71   H5    S    
C59   C81   A    
Cr4   O35   S    
C88   O34   A    
C4    C5    A    
C33   H32   S    
C96   O4    A    
C26   C30   A    
C49   O22   A    
Cr7   O17   S    
C3    C108  A    
C64   H3    S    
C43   O21   A    
C98   H14   S    
C59   C63   A    
C2    H15   S    
Cr2   O28   S    
Cr7   O39   S    
C60   C64   A    
Cr6   O38   S    
C19   C24   A    
Cr8   O45   S    
Cr5   O37   S    
C101  O8    A    
C95   O3    A    
C71   C75   A    
C100  O7    A    
C1    O14   A    
Cr11  O48   S    
C7    H34   S    
C36   C84   S    
C7    C104  A    
Cr10  O20   S    
C100  O38   A    
C67   C92   S    
C6    C105  A    
C52   C104  S    
C4    H1    S    
C102  C106  A    
C93   O52   A    
C52   O30   A    
C97   O36   A    
C91   O47   A    
C17   H21   S    
C60   H46   S    
C51   C105  S    
C90   O46   A    
C21   O19   A    
C29   H29   S    
C79   C83   A    
C2    C87   A    
C75   C80   A    
C66   C70   A    
C2    C98   A    
C27   H27   S    
C106  C107  A    
Cr7   O34   S    
C50   O24   A    
Cr10  O47   S    
Cr9   O24   S    
C44   H39   S    
C41   C45   A    
C31   C36   A    
C40   H36   S    
C103  C107  A    
C61   H47   S    
C6    H23   S    
Cr10  O25   S    
C65   C107  A    
C90   O41   A    
C12   C54   A    
C51   O29   A    
C16   C38   A    
C47   C56   A    
C99   O37   A    
