data_mof_unit_57033.cif
_audit_creation_date              2012-12-11T15:23:56-0500
_audit_creation_method            fapswitch 2.2
_symmetry_space_group_name_H-M    P1
_symmetry_Int_Tables_number       1
_space_group_crystal_system       triclinic
_cell_length_a                    17.477535
_cell_length_b                    24.695514
_cell_length_c                    14.924379
_cell_angle_alpha                 90.220169
_cell_angle_beta                  125.852491
_cell_angle_gamma                 90.085064
_cell_volume                      5221.00964961

loop_
_atom_site_label
_atom_site_type_symbol
_atom_type_description
_atom_site_fract_x
_atom_site_fract_y
_atom_site_fract_z
_atom_type_partial_charge
C1    C     C_R   0.313821 0.372676 0.907777 -0.117679
C2    C     C_R   0.554221 0.499280 0.729883 0.168649
C3    C     C_3   0.988669 0.721755 0.217897 -0.934048
C4    C     C_3   0.510756 0.368889 0.444419 -0.932547
C5    C     C_3   0.734806 0.407970 0.825837 -0.816805
C6    C     C_3   0.760833 0.914105 0.168149 -0.812688
C7    C     C_3   0.971607 0.865558 0.542443 -0.946026
C8    C     C_3   0.301985 0.683188 0.768752 -0.897101
C9    C     C_3   0.651683 0.665532 0.254106 -0.863404
C10   C     C_3   0.824946 0.180885 0.764869 -0.892894
C11   C     C_3   0.165800 0.168195 0.253284 -0.900003
C12   C     C_R   0.950506 0.999643 0.275422 0.158141
C13   C     C_R   0.939744 0.998217 0.633317 0.200215
C14   C     C_R   0.207356 0.496563 0.627337 0.084121
C15   C     C_R   0.825862 0.499315 0.309603 0.052922
C16   C     C_R   0.704064 0.996127 0.629153 0.066034
C17   C     C_R   0.323491 0.999631 0.273747 0.047970
C18   C     C_2   0.977863 0.462868 0.374228 -0.222699
C19   C     C_2   0.076869 0.453343 0.463452 -0.201668
C20   C     C_2   0.476205 0.956326 0.361402 -0.174414
C21   C     C_R   0.652626 0.350815 0.091375 -0.028647
C22   C     C_2   0.564722 0.956247 0.472575 -0.257474
C23   C     C_2   0.928068 0.499442 0.387369 0.146637
C24   C     C_2   0.139951 0.494192 0.506520 0.224942
C25   C     C_2   0.424877 0.001975 0.322620 0.183355
C26   C     C_2   0.636237 0.991157 0.508701 0.195407
C27   C     C_R   0.167656 0.683090 0.937507 -0.219660
C28   C     C_R   0.777291 0.706181 0.053296 -0.217538
C29   C     C_R   0.682090 0.189500 0.940947 -0.215311
C30   C     C_R   0.260755 0.212994 0.982314 -0.254451
C31   C     C_R   0.629135 0.231059 0.939818 0.143338
C32   C     C_R   0.831975 0.857384 0.905461 -0.031919
C33   C     C_R   0.306162 0.259542 0.986843 0.142910
C34   C     C_R   0.120777 0.729782 0.931998 0.134509
C35   C     C_R   0.834440 0.743467 0.051553 0.150128
C36   C     C_R   0.676902 0.278024 0.000238 -0.187981
C37   C     C_R   0.274519 0.309471 0.999432 -0.197125
C38   C     C_R   0.174826 0.774013 0.000076 -0.179782
C39   C     C_R   0.793048 0.791588 0.994441 -0.189187
C40   C     C_R   0.774547 0.284734 0.057931 0.736020
C41   C     C_R   0.200925 0.313051 0.010654 0.748383
C42   C     C_R   0.273149 0.771572 0.073335 0.736950
C43   C     C_R   0.154132 0.850979 0.089947 -0.056286
C44   C     C_R   0.696947 0.802967 0.939996 0.732203
C45   C     C_R   0.318347 0.725623 0.077575 -0.316043
C46   C     C_R   0.640896 0.765731 0.943727 -0.314129
C47   C     C_R   0.825846 0.243688 0.057221 -0.305610
C48   C     C_R   0.157536 0.265981 0.008823 -0.317365
C49   C     C_R   0.402905 0.622368 0.092829 -0.191176
C50   C     C_R   0.561616 0.648848 0.908815 -0.163520
C51   C     C_R   0.914937 0.136923 0.091034 -0.165275
C52   C     C_R   0.075918 0.141431 0.906150 -0.172583
C53   C     C_R   0.265910 0.681972 0.008587 0.041124
C54   C     C_R   0.316695 0.639000 0.001979 0.046024
C55   C     C_R   0.682276 0.718397 0.001697 0.027300
C56   C     C_R   0.779086 0.196798 0.999038 0.047952
C57   C     C_R   0.188218 0.216767 0.994525 0.028867
C58   C     C_R   0.617956 0.546847 0.638852 0.594496
C59   C     C_R   0.617560 0.545435 0.545806 0.577914
C60   C     C_R   0.893353 0.047345 0.461502 0.555147
C61   C     C_R   0.888942 0.048314 0.366319 0.600892
C62   C     C_R   0.598702 0.496371 0.487278 -0.266603
C63   C     C_R   0.605101 0.498867 0.678231 -0.236678
C64   C     C_R   0.898289 0.000091 0.324769 -0.236866
C65   C     C_R   0.626146 0.678062 0.000766 0.061701
C66   C     C_R   0.905616 0.997694 0.515390 -0.254712
C67   C     C_R   0.608636 0.447110 0.543299 0.068438
C68   C     C_R   0.622915 0.449467 0.646548 0.065566
C69   C     C_R   0.875443 0.951299 0.352006 0.062007
C70   C     C_R   0.888418 0.948722 0.454468 0.072382
C71   C     C_R   0.549998 0.453660 0.303174 -0.146019
C72   C     C_R   0.519373 0.454013 0.751304 -0.127226
C73   C     C_R   0.982653 0.954250 0.251403 -0.123893
C74   C     C_R   0.953401 0.953660 0.697985 -0.147084
C75   C     C_R   0.250107 0.542535 0.691069 -0.152918
C76   C     C_R   0.832331 0.155195 0.998553 0.057534
C77   C     C_R   0.769278 0.544775 0.270739 -0.124711
C78   C     C_R   0.747707 0.042383 0.692058 -0.155382
C79   C     C_R   0.267746 0.044626 0.249772 -0.148967
C80   C     C_R   0.546727 0.543509 0.303980 -0.128313
C81   C     C_R   0.522107 0.544675 0.754274 -0.119019
C82   C     C_R   0.984998 0.044582 0.254077 -0.104234
C83   C     C_R   0.956069 0.043903 0.698547 -0.134406
C84   C     C_R   0.250516 0.452767 0.695362 -0.154796
C85   C     C_R   0.768311 0.453696 0.268800 -0.122964
C86   C     C_R   0.748850 0.952524 0.696908 -0.109306
C87   C     C_R   0.148308 0.168079 0.997585 0.033057
C88   C     C_R   0.267029 0.954022 0.247893 -0.117277
C89   C     C_R   0.312287 0.626616 0.908335 0.185344
C90   C     C_R   0.652772 0.649299 0.092106 0.151309
C91   C     C_R   0.821024 0.135166 0.906079 0.165165
C92   C     C_R   0.163603 0.145456 0.090561 0.162990
C93   C     C_R   0.405953 0.372848 0.093209 -0.106004
C94   C     C_R   0.561129 0.350537 0.906742 -0.110621
C95   C     C_R   0.926766 0.854857 0.091082 -0.131950
C96   C     C_R   0.065162 0.852299 0.905331 -0.125757
C97   C     C_R   0.319433 0.357207 0.000158 0.203048
C98   C     C_R   0.564320 0.497778 0.369034 0.204984
C99   C     C_R   0.627046 0.322417 0.999147 0.120676
C100  C     C_R   0.850033 0.831968 0.996789 0.133210
C101  C     C_R   0.132179 0.823636 0.997365 0.139640
C102  C     C_3   0.982255 0.589301 0.471670 -0.922079
C103  C     C_3   0.214299 0.549377 0.443388 -0.918445
C104  C     C_3   0.456016 0.081462 0.254926 -0.925730
C105  C     C_3   0.691834 0.067979 0.453730 -0.830340
C106  C     C_3   0.476751 0.220576 0.764167 -0.930583
C107  C     C_3   0.472333 0.242727 0.082107 -0.897515
C108  C     C_3   0.978443 0.728078 0.744936 -0.897159
F1    F     F_    0.819347 0.331676 0.111146 -0.715172
F2    F     F_    0.172120 0.361611 0.023665 -0.692920
F3    F     F_    0.325920 0.814785 0.136493 -0.716811
F4    F     F_    0.658800 0.850636 0.887039 -0.704769
F5    F     F_    0.627732 0.595486 0.687052 -0.674628
F6    F     F_    0.630968 0.592942 0.511724 -0.680179
F7    F     F_    0.891752 0.096038 0.502159 -0.694260
F8    F     F_    0.880785 0.096893 0.319379 -0.676939
H1    H     H_    0.259206 0.362594 0.822371 0.101728
H2    H     H_    0.566358 0.773528 0.902484 0.166298
H3    H     H_    0.881524 0.208779 0.827382 0.259115
H4    H     H_    0.278079 0.180528 0.237334 0.159993
H5    H     H_    0.206375 0.193501 0.329347 0.249182
H6    H     H_    0.167547 0.125617 0.277454 0.246891
H7    H     H_    0.092237 0.183130 0.201839 0.253587
H8    H     H_    0.901371 0.248660 0.100094 0.162015
H9    H     H_    0.100901 0.267552 0.018747 0.172039
H10   H     H_    0.431690 0.629039 0.178727 0.133741
H11   H     H_    0.522060 0.661903 0.823744 0.129295
H12   H     H_    0.949873 0.152320 0.174060 0.137741
H13   H     H_    0.038627 0.153174 0.820532 0.136912
H14   H     H_    0.572160 0.412571 0.327267 0.137647
H15   H     H_    0.525131 0.412141 0.736525 0.125900
H16   H     H_    0.976985 0.912760 0.267884 0.123248
H17   H     H_    0.697374 0.337744 0.176493 0.103021
H18   H     H_    0.934600 0.912097 0.674311 0.142862
H19   H     H_    0.242471 0.582445 0.657910 0.130488
H20   H     H_    0.792273 0.586188 0.290023 0.124099
H21   H     H_    0.737448 0.082516 0.659560 0.123818
H22   H     H_    0.290593 0.085992 0.262850 0.121492
H23   H     H_    0.560021 0.585202 0.329882 0.187307
H24   H     H_    0.532437 0.586492 0.744549 0.184459
H25   H     H_    0.985303 0.085603 0.277217 0.176496
H26   H     H_    0.942519 0.085718 0.674918 0.184567
H27   H     H_    0.245164 0.411326 0.668444 0.094582
H28   H     H_    0.780742 0.846975 0.819275 0.114186
H29   H     H_    0.789967 0.411897 0.287847 0.119518
H30   H     H_    0.742253 0.911012 0.669700 0.095035
H31   H     H_    0.287724 0.912241 0.256919 0.124462
H32   H     H_    0.435988 0.362960 0.178274 0.102453
H33   H     H_    0.521655 0.337375 0.821643 0.108872
H34   H     H_    0.963410 0.840673 0.174924 0.115210
H35   H     H_    0.026612 0.840353 0.819537 0.123554
H36   H     H_    0.942642 0.434779 0.304748 0.181615
H37   H     H_    0.088601 0.417710 0.512320 0.131574
H38   H     H_    0.440746 0.917379 0.336341 0.158228
H39   H     H_    0.195189 0.836207 0.173963 0.111611
H40   H     H_    0.562651 0.932032 0.531891 0.151053
H41   H     H_    0.945103 0.525533 0.530029 0.179665
H42   H     H_    0.054163 0.602774 0.540637 0.255969
H43   H     H_    0.930090 0.613476 0.474439 0.242925
H44   H     H_    0.972511 0.597540 0.392377 0.244062
H45   H     H_    0.070830 0.539749 0.361091 0.197696
H46   H     H_    0.203072 0.586318 0.394926 0.254607
H47   H     H_    0.227045 0.514614 0.406253 0.259967
H48   H     H_    0.277785 0.556076 0.529142 0.252634
H49   H     H_    0.456641 0.078150 0.394473 0.161460
H50   H     H_    0.128472 0.648518 0.885188 0.140893
H51   H     H_    0.496801 0.119949 0.283002 0.250543
H52   H     H_    0.380436 0.091173 0.192372 0.241013
H53   H     H_    0.481071 0.056023 0.215474 0.263262
H54   H     H_    0.610760 0.001714 0.352721 0.195884
H55   H     H_    0.692185 0.081030 0.382842 0.267415
H56   H     H_    0.765439 0.069153 0.528621 0.269649
H57   H     H_    0.647929 0.096622 0.462871 0.242375
H58   H     H_    0.512944 0.194470 0.915577 0.180110
H59   H     H_    0.400179 0.223211 0.726785 0.250873
H60   H     H_    0.490685 0.181076 0.740484 0.247376
H61   H     H_    0.806037 0.667389 0.092801 0.135704
H62   H     H_    0.495671 0.253877 0.730576 0.252058
H63   H     H_    0.369680 0.232095 0.914864 0.174172
H64   H     H_    0.530403 0.246926 0.072557 0.246743
H65   H     H_    0.470422 0.200271 0.105233 0.246220
H66   H     H_    0.487527 0.270329 0.149661 0.249806
H67   H     H_    0.990058 0.705002 0.885606 0.180549
H68   H     H_    0.902121 0.737693 0.697205 0.257677
H69   H     H_    0.986072 0.686492 0.722516 0.250439
H70   H     H_    0.012312 0.757427 0.721866 0.246992
H71   H     H_    0.939255 0.702306 0.057087 0.179967
H72   H     H_    0.648527 0.151879 0.897478 0.136917
H73   H     H_    0.064110 0.720667 0.249619 0.254514
H74   H     H_    0.969916 0.682234 0.235752 0.244802
H75   H     H_    0.979395 0.754564 0.261878 0.252306
H76   H     H_    0.658555 0.370760 0.543582 0.170861
H77   H     H_    0.509304 0.331322 0.402329 0.243381
H78   H     H_    0.452781 0.395599 0.381574 0.272419
H79   H     H_    0.498399 0.358028 0.507112 0.248081
H80   H     H_    0.644060 0.365444 0.679916 0.174371
H81   H     H_    0.746014 0.370491 0.872978 0.255541
H82   H     H_    0.729477 0.442381 0.869983 0.264964
H83   H     H_    0.283702 0.173958 0.972762 0.146317
H84   H     H_    0.796421 0.414272 0.823209 0.249095
H85   H     H_    0.842374 0.868473 0.309933 0.175484
H86   H     H_    0.743999 0.876638 0.118445 0.252405
H87   H     H_    0.772803 0.947161 0.127403 0.268025
H88   H     H_    0.699717 0.924278 0.169723 0.242733
H89   H     H_    0.825046 0.875778 0.445048 0.174570
H90   H     H_    0.966208 0.828159 0.579411 0.246006
H91   H     H_    0.034551 0.888822 0.608416 0.267745
H92   H     H_    0.981603 0.853920 0.478058 0.249099
H93   H     H_    0.193707 0.633280 0.746512 0.156605
H94   H     H_    0.394859 0.725424 0.130538 0.166357
H95   H     H_    0.249518 0.704798 0.690979 0.250468
H96   H     H_    0.342522 0.654988 0.753287 0.234368
H97   H     H_    0.351201 0.713546 0.832032 0.261617
H98   H     H_    0.768515 0.675220 0.247057 0.152794
H99   H     H_    0.688831 0.690554 0.330616 0.255647
H100  H     H_    0.655741 0.622669 0.277439 0.245011
H101  H     H_    0.577117 0.678903 0.200362 0.251936
H102  H     H_    0.705428 0.144696 0.743348 0.154353
H103  H     H_    0.778543 0.203315 0.686283 0.249734
H104  H     H_    0.857523 0.146502 0.750676 0.238770
N1    N     N_R   0.395440 0.396300 0.944370 -0.046770
N2    N     N_R   0.474910 0.470990 0.794360 -0.050094
N3    N     N_R   0.025090 0.970990 0.205640 -0.051087
N4    N     N_R   0.974910 0.970990 0.794360 -0.049092
N5    N     N_R   0.320240 0.527820 0.794510 -0.044092
N6    N     N_R   0.679760 0.527820 0.205490 -0.043879
N7    N     N_R   0.820240 0.027820 0.794510 -0.040569
N8    N     N_R   0.179760 0.027820 0.205490 -0.042127
N9    N     N_R   0.524580 0.527810 0.205160 -0.053969
N10   N     N_R   0.475420 0.527810 0.794840 -0.059120
N11   N     N_R   0.024580 0.027810 0.205160 -0.058519
N12   N     N_R   0.604560 0.396300 0.055630 -0.051806
N13   N     N_R   0.975420 0.027810 0.794840 -0.054346
N14   N     N_R   0.320750 0.470990 0.794990 -0.034976
N15   N     N_R   0.679250 0.470990 0.205010 -0.043145
N16   N     N_R   0.820750 0.970990 0.794990 -0.037290
N17   N     N_R   0.179250 0.970990 0.205010 -0.042841
N18   N     N_R   0.393580 0.602500 0.942610 -0.055878
N19   N     N_R   0.606420 0.602500 0.057390 -0.054770
N20   N     N_R   0.893580 0.102500 0.942610 -0.055250
N21   N     N_R   0.106420 0.102500 0.057390 -0.051399
N22   N     N_R   0.451750 0.396300 0.057540 -0.051666
N23   N     N_R   0.895440 0.896300 0.944370 -0.056437
N24   N     N_R   0.548250 0.396300 0.942460 -0.048372
N25   N     N_R   0.951750 0.896300 0.057540 -0.049779
N26   N     N_R   0.048250 0.896300 0.942460 -0.051194
N27   N     N_2   0.971492 0.532263 0.484713 -0.093544
N28   N     N_2   0.131471 0.539126 0.440868 -0.102872
N29   N     N_2   0.469761 0.053709 0.348739 -0.096951
N30   N     N_2   0.654581 0.013559 0.434460 -0.106521
N31   N     N_2   0.529919 0.225075 0.883168 -0.105565
N32   N     N_2   0.383536 0.256403 0.979218 -0.099141
N33   N     N_2   0.020459 0.731766 0.861988 -0.108445
N34   N     N_R   0.104560 0.896300 0.055630 -0.054834
N35   N     N_2   0.931020 0.731689 0.100061 -0.104622
N36   N     N_2   0.601209 0.395744 0.495613 -0.110232
N37   N     N_2   0.649351 0.402536 0.714688 -0.120322
N38   N     N_2   0.844068 0.905367 0.279480 -0.119879
N39   N     N_2   0.886746 0.897458 0.496096 -0.108064
N40   N     N_2   0.253752 0.654112 0.806238 -0.112370
N41   N     N_2   0.695852 0.673286 0.198246 -0.119997
N42   N     N_2   0.769972 0.161805 0.802501 -0.114988
N43   N     N_2   0.206469 0.173486 0.192927 -0.116955
N44   N     N_R   0.449890 0.602500 0.055780 -0.050849
N45   N     N_R   0.550110 0.602500 0.944220 -0.055810
N46   N     N_R   0.949890 0.102500 0.055780 -0.054114
N47   N     N_R   0.050110 0.102500 0.944220 -0.052724
N48   N     N_R   0.525090 0.470990 0.205640 -0.049311
Ni1   Ni    Ni4+2 0.435420 0.434250 0.870220 0.216996
Ni2   Ni    Ni4+2 0.564580 0.434250 0.129780 0.213957
Ni3   Ni    Ni4+2 0.935420 0.934250 0.870220 0.214167
Ni4   Ni    Ni4+2 0.064580 0.934250 0.129780 0.216617
Ni5   Ni    Ni4+2 0.563400 0.564580 0.128670 0.213837
Ni6   Ni    Ni4+2 0.436600 0.564580 0.871330 0.205678
Ni7   Ni    Ni4+2 0.063400 0.064580 0.128670 0.211167
Ni8   Ni    Ni4+2 0.936600 0.064580 0.871330 0.208927

loop_
_geom_bond_atom_site_label_1
_geom_bond_atom_site_label_2
_ccdc_geom_bond_type
C40   C47   A    
C35   N35   S    
C82   N11   A    
C30   C57   A    
C8    N40   S    
C71   N48   A    
C56   C76   S    
C105  H56   S    
C93   C97   A    
C107  H64   S    
C81   H24   S    
C17   C88   A    
C104  H51   S    
N5    Ni6   S    
H98   N41   S    
C7    N39   S    
C14   C84   A    
C80   N9    A    
N7    Ni8   S    
C102  H42   S    
C37   C97   S    
H80   N37   S    
C39   C100  S    
C10   N42   S    
C10   H104  S    
C48   C57   A    
C22   H40   S    
C67   N36   S    
C9    H99   S    
C94   H33   S    
C4    H78   S    
N7    N16   A    
C46   H2    S    
C103  H48   S    
C20   H38   S    
C62   C67   A    
C107  H65   S    
C34   N33   S    
H49   N29   S    
N5    N14   A    
N22   Ni2   S    
C108  H70   S    
C85   H29   S    
C105  N30   S    
C6    H86   S    
C38   C101  S    
C93   N22   A    
C3    H73   S    
C68   N37   S    
C108  N33   S    
C103  N28   S    
C75   H19   S    
H58   N31   S    
C20   C25   D    
N8    Ni7   S    
C49   C54   A    
C51   N46   A    
C74   N4    A    
C17   C79   A    
H54   N30   S    
C93   H32   S    
C1    N1    A    
C18   C19   S    
C14   C24   S    
C90   N41   S    
C12   C73   A    
H85   N38   S    
C94   N24   A    
C10   H3    S    
C26   N30   S    
C48   H9    S    
C62   C98   S    
N2    Ni1   S    
C25   N29   S    
C28   C55   A    
N4    Ni3   S    
C83   N13   A    
C28   C35   A    
C44   C46   A    
N23   N25   A    
C9    N41   S    
C46   C55   A    
C58   F5    S    
C76   C91   A    
C106  H59   S    
N21   N47   A    
C77   H20   S    
C11   N43   S    
C36   C99   S    
C8    H95   S    
C85   N15   A    
C28   H61   S    
C15   C85   A    
C103  H46   S    
C15   C23   S    
C30   H83   S    
C15   C77   A    
C50   N45   A    
C45   C53   A    
C77   N6    A    
C9    H100  S    
C34   C38   A    
C87   C92   A    
N10   Ni6   S    
C16   C86   A    
C4    H77   S    
C89   N40   S    
C7    H90   S    
C2    C72   A    
C86   H30   S    
C21   H17   S    
C55   C65   S    
N9    N48   A    
N3    N11   A    
C10   H103  S    
C5    H84   S    
C3    N35   S    
C13   C66   S    
C27   C34   A    
C16   C26   S    
C65   C90   A    
C71   C98   A    
N47   Ni8   S    
C69   N38   S    
C32   H28   S    
C108  H68   S    
C107  H66   S    
N11   Ni7   S    
C67   C68   A    
N20   N46   A    
C108  H69   S    
C36   C40   A    
N25   Ni4   S    
C96   C101  A    
C51   C76   A    
C43   H39   S    
H45   N28   S    
C7    H91   S    
N26   Ni3   S    
C3    H74   S    
C102  H44   S    
C21   C99   A    
C73   N3    A    
C95   C100  A    
C7    H92   S    
H93   N40   S    
C5    H81   S    
N26   N34   A    
C84   H27   S    
H76   N36   S    
C58   C59   A    
C53   C54   S    
C21   N12   A    
N14   Ni1   S    
N16   Ni3   S    
C86   N16   A    
N6    N15   A    
C32   C100  A    
C60   C61   A    
N15   Ni2   S    
C42   C45   A    
C106  N31   S    
C91   N20   A    
C61   C64   A    
C35   C39   A    
N4    N13   A    
C43   C101  A    
C6    H88   S    
C49   H10   S    
C3    H75   S    
C104  H52   S    
C92   N21   A    
C18   C23   D    
C96   N26   A    
C75   N5    A    
N46   Ni7   S    
H4    N43   S    
C72   N2    A    
C79   H22   S    
C61   F8    S    
C5    N37   S    
N18   N44   A    
C40   F1    S    
C31   N31   S    
C52   H13   S    
C95   H34   S    
C1    H1    S    
C64   C69   A    
C13   C74   A    
C58   C63   A    
H41   N27   S    
C39   C44   A    
C91   N42   S    
C54   C89   A    
C107  N32   S    
C43   N34   A    
C11   H5    S    
C70   N39   S    
N6    Ni5   S    
C20   C22   S    
C8    H97   S    
C41   F2    S    
N19   Ni5   S    
C32   N23   A    
C41   C48   A    
H102  N42   S    
N12   Ni2   S    
C24   N28   S    
C11   H6    S    
C51   H12   S    
C1    C97   A    
C80   H23   S    
C78   H21   S    
C44   F4    S    
C79   N8    A    
C96   H35   S    
C33   N32   S    
N1    Ni1   S    
C2    C63   S    
H67   N33   S    
C72   H15   S    
C33   C37   A    
H89   N39   S    
C9    H101  S    
C78   N7    A    
C63   C68   A    
N9    Ni5   S    
C59   C62   A    
C106  H60   S    
C104  N29   S    
C105  H55   S    
C30   C33   A    
C80   C98   A    
N12   N24   A    
C89   N18   A    
C52   C87   A    
C11   H7    S    
C102  N27   S    
N44   Ni5   S    
N48   Ni2   S    
C84   N14   A    
C60   F7    S    
C102  H43   S    
C83   H26   S    
C27   C53   A    
C38   C42   A    
C5    H82   S    
C29   C56   A    
N1    N22   A    
C13   C83   A    
C103  H47   S    
C45   H94   S    
C29   H72   S    
C6    N38   S    
C17   C25   S    
C14   C75   A    
N21   Ni7   S    
N19   N45   A    
C105  H57   S    
C19   C24   D    
N20   Ni8   S    
C6    H87   S    
C29   C31   A    
N18   Ni6   S    
C95   N25   A    
C71   H14   S    
H63   N32   S    
N13   Ni8   S    
N8    N17   A    
C47   H8    S    
C66   C70   A    
C94   C99   A    
C59   F6    S    
C12   C64   S    
C88   N17   A    
C74   H18   S    
N34   Ni4   S    
C88   H31   S    
N17   Ni4   S    
C16   C78   A    
N24   Ni1   S    
C42   F3    S    
C23   N27   S    
C69   C70   A    
C50   C65   A    
N23   Ni3   S    
C73   H16   S    
C92   N43   S    
C4    H79   S    
C27   H50   S    
C60   C66   A    
C19   H37   S    
C57   C87   S    
N45   Ni6   S    
C12   C82   A    
C52   N47   A    
C37   C41   A    
N2    N10   A    
C49   N44   A    
C22   C26   D    
C4    N36   S    
C31   C36   A    
C47   C56   A    
C2    C81   A    
N3    Ni4   S    
C50   H11   S    
C8    H96   S    
H71   N35   S    
C82   H25   S    
C106  H62   S    
C81   N10   A    
C104  H53   S    
C18   H36   S    
C90   N19   A    
