data_mof_unit_33898.cif
_audit_creation_date              2012-12-10T18:02:14-0500
_audit_creation_method            fapswitch 2.2
_symmetry_space_group_name_H-M    P1
_symmetry_Int_Tables_number       1
_space_group_crystal_system       triclinic
_cell_length_a                    10.792799
_cell_length_b                    9.519245
_cell_length_c                    23.506509
_cell_angle_alpha                 89.734108
_cell_angle_beta                  90.285001
_cell_angle_gamma                 89.983189
_cell_volume                      2414.98622806

loop_
_atom_site_label
_atom_site_type_symbol
_atom_type_description
_atom_site_fract_x
_atom_site_fract_y
_atom_site_fract_z
_atom_type_partial_charge
C1    C     C_R   0.262590 0.500013 0.500070 0.743137
C2    C     C_R   0.737448 0.499973 0.500010 0.749880
C3    C     C_R   0.576619 0.597964 0.238039 -0.061589
C4    C     C_R   0.424320 0.402920 0.762094 -0.059726
C5    C     C_R   0.581243 0.599691 0.297734 -0.063408
C6    C     C_R   0.419418 0.400947 0.702405 -0.059818
C7    C     C_R   0.509117 0.500842 0.328564 -0.124782
C8    C     C_R   0.491863 0.499231 0.671444 -0.123400
C9    C     C_R   0.438730 0.400475 0.299040 -0.185388
C10   C     C_R   0.562929 0.599233 0.700822 -0.190762
C11   C     C_R   0.436465 0.399465 0.239849 -0.069783
C12   C     C_R   0.565431 0.600534 0.760012 -0.071701
C13   C     C_R   0.504842 0.498502 0.209185 0.291570
C14   C     C_R   0.496665 0.502103 0.790815 0.292545
C15   C     C_R   0.064783 0.436325 0.454286 -0.021169
C16   C     C_R   0.935363 0.566350 0.545010 -0.012276
C17   C     C_R   0.934558 0.433109 0.455305 -0.045619
C18   C     C_R   0.065695 0.563302 0.546099 -0.046703
C19   C     C_R   0.871707 0.499868 0.500094 -0.206500
C20   C     C_R   0.128458 0.500001 0.500144 -0.196023
C21   C     C_R   0.424202 0.074865 0.463976 0.018000
C22   C     C_R   0.575678 0.925156 0.536060 0.021183
C23   C     C_R   0.575727 0.073978 0.536043 0.024012
C24   C     C_R   0.424250 0.926027 0.463960 0.013704
C25   C     C_R   0.503968 0.500362 0.391056 0.753482
C26   C     C_R   0.496591 0.499637 0.608953 0.753090
C27   C     C_R   0.605445 0.468604 0.880168 0.547977
C28   C     C_R   0.396205 0.532421 0.119835 0.548395
C29   C     C_R   0.392746 0.538641 0.880540 0.547183
C30   C     C_R   0.608937 0.462512 0.119468 0.547072
C31   C     C_R   0.391395 0.537768 0.940211 -0.018450
C32   C     C_R   0.610317 0.463480 0.059796 -0.018144
C33   C     C_R   0.500456 0.501523 0.969980 -0.015164
C34   C     C_R   0.501255 0.499723 0.030026 -0.015212
C35   C     C_R   0.608695 0.466992 0.939849 -0.018208
C36   C     C_R   0.393000 0.534201 0.060155 -0.018544
C37   C     C_R   0.283952 0.572039 0.970675 -0.149813
C38   C     C_R   0.717769 0.429247 0.029332 -0.149964
C39   C     C_R   0.284738 0.570241 0.030028 -0.151551
C40   C     C_R   0.716970 0.431001 0.969978 -0.151590
Cu1   Cu    Cu3+1 0.500000 0.640660 0.500000 0.971497
Cu2   Cu    Cu3+1 0.500000 0.359340 0.500000 0.972588
H1    H     H_    0.198905 0.600228 0.948787 0.195012
H2    H     H_    0.802818 0.401068 0.051220 0.194993
H3    H     H_    0.200312 0.597213 0.052178 0.194745
H4    H     H_    0.801390 0.404007 0.947827 0.194789
H5    H     H_    0.630514 0.672371 0.213442 0.185143
H6    H     H_    0.370179 0.328954 0.786793 0.185035
H7    H     H_    0.383844 0.323672 0.321905 0.169410
H8    H     H_    0.618119 0.675534 0.677832 0.169637
H9    H     H_    0.381475 0.321637 0.217715 0.161205
H10   H     H_    0.620882 0.678138 0.782034 0.160889
H11   H     H_    0.363438 0.131326 0.435135 0.139567
H12   H     H_    0.636175 0.868725 0.564989 0.158614
H13   H     H_    0.636398 0.129716 0.564917 0.140160
H14   H     H_    0.363559 0.870280 0.435098 0.138734
N1    N     N_R   0.498539 0.503823 0.851850 -0.469145
N2    N     N_R   0.503095 0.497152 0.148152 -0.469053
N3    N     N_R   0.500000 0.852070 0.500000 -0.175380
N4    N     N_R   0.500000 0.147930 0.500000 -0.172599
O1    O     O_R   0.319640 0.618740 0.500000 -0.568595
O2    O     O_R   0.680360 0.381260 0.500000 -0.561007
O3    O     O_R   0.680360 0.618740 0.500000 -0.573786
O4    O     O_R   0.319640 0.381260 0.500000 -0.582430
O5    O     O_R   0.499960 0.618810 0.417880 -0.591895
O6    O     O_R   0.500040 0.381190 0.582120 -0.593224
O7    O     O_R   0.500040 0.618810 0.582120 -0.570171
O8    O     O_R   0.499960 0.381190 0.417880 -0.568197
O9    O     O_2   0.707795 0.433852 0.850638 -0.517266
O10   O     O_2   0.293815 0.567013 0.149368 -0.516253
O11   O     O_2   0.289438 0.574693 0.851363 -0.509595
O12   O     O_2   0.712251 0.426519 0.148652 -0.511405
C41   C     C_2   0.666667 0.699625 0.326459 0.402205
H15   H     H_    0.692137 0.685655 0.370766 0.083422
O13   O     O_2   0.711766 0.798432 0.300504 -0.500550
C42   C     C_2   0.333397 0.301386 0.673835 0.400835
H16   H     H_    0.308013 0.315083 0.629507 0.080433
O14   O     O_2   0.287729 0.203170 0.699943 -0.502795
C43   C     C_2   0.136607 0.384788 0.404152 0.397820
H17   H     H_    0.225449 0.431610 0.394037 0.042978
O15   O     O_2   0.100007 0.288702 0.374343 -0.486716
C44   C     C_2   0.862938 0.628310 0.592244 0.479552
H18   H     H_    0.800090 0.562567 0.616502 0.018907
O16   O     O_2   0.866734 0.754260 0.601584 -0.491677
C45   C     C_2   0.861511 0.370326 0.408131 0.535168
H19   H     H_    0.799054 0.435760 0.383239 -0.007703
O17   O     O_2   0.864457 0.244028 0.399509 -0.450251
C46   C     C_2   0.138641 0.614608 0.596316 0.445697
H20   H     H_    0.229162 0.570466 0.605559 0.023242
O18   O     O_2   0.100988 0.707469 0.627328 -0.458532

loop_
_geom_bond_atom_site_label_1
_geom_bond_atom_site_label_2
_ccdc_geom_bond_type
C30   C32   A    
C8    C26   S    
C41   H15   S    
C46   O18   D    
Cu1   O1    S    
C22   H12   S    
C45   H19   S    
C40   H4    S    
C17   C45   S    
C26   O7    A    
C38   C40   A    
C42   O14   D    
C24   N3    A    
C15   C17   A    
Cu1   Cu2   S    
C33   C35   A    
C15   C43   S    
C31   C33   A    
C32   C38   A    
Cu2   O2    S    
C34   C36   A    
C3    C13   A    
C39   H3    S    
Cu2   O8    S    
C41   O13   D    
C23   N4    A    
C25   O8    A    
C12   H10   S    
C45   O17   D    
C15   C20   A    
C37   C39   A    
C26   O6    A    
C25   O5    A    
C42   H16   S    
Cu1   N3    S    
C21   N4    A    
Cu1   O7    S    
C27   N1    A    
Cu2   N4    S    
C22   N3    A    
C43   O15   D    
Cu1   O5    S    
C13   N2    S    
C27   C35   A    
C18   C46   S    
C31   C37   A    
C1    O1    A    
C32   C34   A    
C37   H1    S    
C38   H2    S    
C30   O12   S    
C16   C44   S    
C33   C34   A    
C9    H7    S    
C16   C18   A    
C6    C42   S    
C9    C11   A    
C10   C12   A    
C4    C6    A    
C29   N1    A    
C44   O16   D    
Cu1   O3    S    
C10   H8    S    
C1    O4    A    
Cu2   O4    S    
C2    O3    A    
C5    C7    A    
C4    H6    S    
C7    C9    A    
C14   N1    S    
C1    C20   S    
C2    C19   S    
C36   C39   A    
C28   O10   S    
C12   C14   A    
C3    C5    A    
C27   O9    S    
C6    C8    A    
C23   H13   S    
C28   N2    A    
C24   H14   S    
C7    C25   S    
C35   C40   A    
C29   C31   A    
C4    C14   A    
C21   H11   S    
C11   C13   A    
C16   C19   A    
C30   N2    A    
C3    H5    S    
C17   C19   A    
C18   C20   A    
C5    C41   S    
C11   H9    S    
C43   H17   S    
C46   H20   S    
C28   C36   A    
C8    C10   A    
C44   H18   S    
C21   C24   A    
Cu2   O6    S    
C22   C23   A    
C2    O2    A    
C29   O11   S    
