data_mof_unit_38023.cif
_audit_creation_date              2012-12-10T16:46:46-0500
_audit_creation_method            fapswitch 2.2
_symmetry_space_group_name_H-M    P1
_symmetry_Int_Tables_number       1
_space_group_crystal_system       triclinic
_cell_length_a                    15.866817
_cell_length_b                    8.728872
_cell_length_c                    7.566783
_cell_angle_alpha                 103.861838
_cell_angle_beta                  93.768242
_cell_angle_gamma                 94.49826
_cell_volume                      1010.46537422

loop_
_atom_site_label
_atom_site_type_symbol
_atom_type_description
_atom_site_fract_x
_atom_site_fract_y
_atom_site_fract_z
_atom_type_partial_charge
C1    C     C_R   0.500577 0.200461 0.453201 0.875517
C2    C     C_3   0.945511 0.372850 0.591032 -0.220023
C3    C     C_3   0.916864 0.505886 0.498862 0.082854
C4    C     C_3   0.962760 0.675592 0.592661 -0.149753
C5    C     C_3   0.060902 0.667920 0.606887 -0.409445
C6    C     C_1   0.824166 0.504517 0.489265 -0.017065
C7    C     C_1   0.176023 0.498580 0.514767 -0.031228
C8    C     C_1   0.251388 0.498577 0.510452 -0.088393
C9    C     C_2   0.500820 0.032074 0.431474 -0.391184
C10   C     C_2   0.522539 0.969516 0.573092 -0.218911
C11   C     C_R   0.340689 0.499022 0.502793 0.800670
C12   C     C_R   0.506406 0.800404 0.547463 0.837544
C13   C     C_R   0.659282 0.500521 0.497243 0.870841
C14   C     C_3   0.044213 0.384074 0.619530 -0.227922
C15   C     C_3   0.042841 0.451781 0.307978 -0.133088
C16   C     C_3   0.945343 0.464569 0.302046 -0.441187
C17   C     C_1   0.748613 0.502404 0.490494 -0.063687
C18   C     C_3   0.083417 0.499410 0.510505 0.073987
Cu1   Cu    Cu3+1 0.509300 0.517380 0.684380 1.030804
Cu2   Cu    Cu3+1 0.490700 0.482620 0.315620 1.023160
H1    H     H_    0.063954 0.438150 0.766230 0.204936
H2    H     H_    0.052107 0.325514 0.249429 0.195490
H3    H     H_    0.927155 0.557125 0.232397 0.250125
H4    H     H_    0.088560 0.697692 0.751068 0.219815
H5    H     H_    0.091913 0.759286 0.546089 0.209793
N1    N     N_2   0.476670 0.456430 0.038530 -0.223756
N2    N     N_2   0.523330 0.543570 0.961470 -0.215568
O1    O     O_R   0.506050 0.286130 0.619770 -0.591315
O2    O     O_R   0.490330 0.256780 0.308370 -0.557137
O3    O     O_R   0.387300 0.514690 0.655770 -0.591413
O4    O     O_R   0.371580 0.485340 0.344370 -0.564039
O5    O     O_R   0.509670 0.743220 0.691630 -0.542308
O6    O     O_R   0.493950 0.713870 0.380230 -0.558315
O7    O     O_R   0.628420 0.514660 0.655630 -0.546704
O8    O     O_R   0.612700 0.485310 0.344230 -0.551479
H6    H     H_    0.922616 0.257605 0.493137 0.178813
C19   C     C_2   0.904989 0.367121 0.764918 0.842678
O9    O     O_2   0.916342 0.480081 0.897455 -0.606282
O10   O     O_R   0.854694 0.230632 0.773313 -0.722875
H7    H     H_    0.831688 0.239779 0.896881 0.336040
H8    H     H_    0.949947 0.753452 0.498700 0.151567
H9    H     H_    0.474595 0.957514 0.299784 0.191227
C20   C     C_2   0.569608 0.061840 0.748334 0.943849
O11   O     O_2   0.545315 0.048333 0.894426 -0.571998
O12   O     O_R   0.642264 0.162466 0.745025 -0.725769
H10   H     H_    0.667899 0.220106 0.872103 0.332249
H11   H     H_    0.434167 0.373556 0.949932 0.234083
C21   C     C_2   0.588560 0.670480 0.045055 1.092968
O13   O     O_2   0.620999 0.746704 0.947320 -0.553179
O14   O     O_R   0.620332 0.710129 0.226328 -0.752453
H12   H     H_    0.666439 0.802131 0.257864 0.317786
C22   C     C_2   0.076473 0.220954 0.577298 0.844545
O15   O     O_2   0.120773 0.181873 0.694401 -0.555412
O16   O     O_R   0.054857 0.114406 0.407443 -0.774340
H13   H     H_    0.080257 0.010135 0.398077 0.356659
C23   C     C_2   0.086271 0.544675 0.188446 0.890039
O17   O     O_2   0.133903 0.480005 0.079547 -0.589168
O18   O     O_R   0.075340 0.704765 0.207550 -0.761424
H14   H     H_    0.112177 0.754759 0.127895 0.355240
H15   H     H_    0.911339 0.350333 0.221077 0.183857
C24   C     C_2   0.928806 0.760725 0.769659 0.947738
O19   O     O_2   0.854961 0.791748 0.768469 -0.563428
O20   O     O_R   0.981668 0.811770 0.931780 -0.728109
H16   H     H_    0.951027 0.868968 0.037963 0.363486

loop_
_geom_bond_atom_site_label_1
_geom_bond_atom_site_label_2
_ccdc_geom_bond_type
N2    C21   S    
C15   C16   S    
C15   C18   S    
C20   O11   D    
C19   O9    D    
C1    O1    A    
Cu1   N2    S    
C9    C10   D    
C14   C18   S    
Cu1   Cu2   S    
C13   C17   S    
C3    C6    S    
C15   C23   S    
C7    C18   S    
C21   O14   S    
C2    C3    S    
C9    H9    S    
C11   O4    A    
C13   O7    A    
C19   O10   S    
O12   H10   S    
C12   O5    A    
Cu1   O1    S    
C20   O12   S    
C2    C19   S    
N1    N2    D    
Cu1   O3    S    
C5    H4    S    
C10   C12   S    
N1    H11   S    
C12   O6    A    
C8    C11   S    
C5    H5    S    
Cu1   O5    S    
C14   H1    S    
C1    O2    A    
C21   O13   D    
C22   O16   S    
C13   O8    A    
C16   H3    S    
Cu2   O2    S    
C24   O19   D    
C2    C14   S    
O18   H14   S    
C4    H8    S    
Cu2   O6    S    
C3    C4    S    
C7    C8    T    
C1    C9    S    
C22   O15   D    
C24   O20   S    
C16   H15   S    
C2    H6    S    
O10   H7    S    
C23   O17   D    
C6    C17   T    
O16   H13   S    
C5    C18   S    
O14   H12   S    
C10   C20   S    
Cu2   O8    S    
C4    C24   S    
Cu2   O4    S    
C15   H2    S    
C14   C22   S    
C3    C16   S    
O20   H16   S    
C11   O3    A    
C23   O18   S    
C4    C5    S    
Cu2   N1    S    
Cu1   O7    S    
