data_mof_unit_9502.cif
_audit_creation_date              2012-12-10T18:31:51-0500
_audit_creation_method            fapswitch 2.2
_symmetry_space_group_name_H-M    P1
_symmetry_Int_Tables_number       1
_space_group_crystal_system       triclinic
_cell_length_a                    10.625438
_cell_length_b                    14.939827
_cell_length_c                    15.414598
_cell_angle_alpha                 81.933746
_cell_angle_beta                  89.506478
_cell_angle_gamma                 103.512181
_cell_volume                      2353.49845496

loop_
_atom_site_label
_atom_site_type_symbol
_atom_type_description
_atom_site_fract_x
_atom_site_fract_y
_atom_site_fract_z
_atom_type_partial_charge
C1    C     C_R   0.476726 0.441472 0.662419 0.873721
C2    C     C_3   0.120952 0.499579 0.503981 0.007709
C3    C     C_3   0.094675 0.568083 0.423834 0.391068
C4    C     C_3   0.080947 0.530600 0.591456 0.191754
C5    C     C_R   0.439505 0.406525 0.755092 -0.162319
C6    C     C_R   0.512283 0.593733 0.244845 -0.078141
C7    C     C_R   0.340956 0.287123 0.875438 -0.275507
C8    C     C_R   0.378076 0.312975 0.786320 0.448781
C9    C     C_R   0.454671 0.472545 0.811981 -0.335223
C10   C     C_R   0.407456 0.449389 0.898705 0.025145
C11   C     C_R   0.355933 0.354315 0.932295 0.000309
C12   C     C_R   0.741476 0.499182 0.502445 0.897104
C13   C     C_R   0.419790 0.518517 0.953975 0.090567
C14   C     C_R   0.402777 0.490289 0.044981 0.005718
C15   C     C_R   0.343456 0.396487 0.077164 -0.356936
C16   C     C_R   0.322628 0.327999 0.022105 0.502591
C17   C     C_R   0.449080 0.614918 0.921514 -0.230003
C18   C     C_R   0.477379 0.681169 0.977965 -0.253034
C19   C     C_R   0.483117 0.652860 0.067551 0.174704
C20   C     C_R   0.447698 0.556832 0.101097 0.113283
C21   C     C_R   0.526622 0.718615 0.124005 -0.209543
C22   C     C_R   0.539818 0.689143 0.212780 -0.216792
C23   C     C_R   0.517392 0.558415 0.337670 0.859966
C24   C     C_R   0.468628 0.528961 0.188596 -0.281538
C25   C     C_R   0.707037 0.844217 0.630422 0.408621
C26   C     C_R   0.670822 0.753780 0.607959 -0.158400
C27   C     C_R   0.506763 0.792417 0.516729 -0.081515
C28   C     C_R   0.534899 0.883474 0.536520 -0.077884
C29   C     C_R   0.638827 0.909544 0.592562 0.082569
C30   C     C_R   0.464786 0.949380 0.501364 0.103053
C31   C     C_R   0.510252 0.043658 0.513695 0.100012
C32   C     C_R   0.609923 0.066723 0.572137 -0.229207
C33   C     C_R   0.672583 0.000942 0.610904 -0.199654
C34   C     C_R   0.257821 0.499214 0.502142 0.847297
C35   C     C_R   0.348339 0.923885 0.457205 -0.252249
C36   C     C_R   0.279194 0.989377 0.426650 -0.180982
C37   C     C_R   0.327856 0.082832 0.434141 0.116708
C38   C     C_R   0.448245 0.111409 0.472412 -0.121609
C39   C     C_R   0.258004 0.148532 0.403861 -0.334629
C40   C     C_R   0.306853 0.240885 0.414619 -0.107785
C41   C     C_R   0.502562 0.207939 0.466659 0.553030
C42   C     C_3   0.897988 0.402929 0.488594 -0.322258
C43   C     C_3   0.038436 0.399909 0.499024 -0.488411
C44   C     C_3   0.952561 0.574468 0.431201 -0.542828
C45   C     C_3   0.931722 0.519446 0.595714 0.277703
C46   C     C_3   0.878087 0.498837 0.505003 -0.006581
H1    H     H_    0.872337 0.392920 0.420473 0.205367
H2    H     H_    0.949086 0.644844 0.445677 0.161206
H3    H     H_    0.157242 0.638848 0.427329 0.101933
H4    H     H_    0.454236 0.455961 0.213417 0.166984
H5    H     H_    0.571974 0.740532 0.255901 0.161318
H6    H     H_    0.300227 0.214275 0.899521 0.189927
H7    H     H_    0.508675 0.542444 0.788403 0.179065
H8    H     H_    0.836198 0.345012 0.534710 0.246218
H9    H     H_    0.308922 0.375594 0.144790 0.156344
H10   H     H_    0.448147 0.640636 0.852712 0.146317
H11   H     H_    0.551374 0.792414 0.099392 0.141228
H12   H     H_    0.748523 0.022699 0.655239 0.195426
H13   H     H_    0.249340 0.290921 0.396784 0.173171
H14   H     H_    0.718314 0.699642 0.632589 0.138921
H15   H     H_    0.434601 0.767987 0.471402 0.144364
H16   H     H_    0.047768 0.352513 0.559890 0.172249
H17   H     H_    0.637591 0.135039 0.591701 0.204830
H18   H     H_    0.304208 0.852926 0.449505 0.139046
H19   H     H_    0.164382 0.128094 0.375765 0.159270
H20   H     H_    0.905605 0.566036 0.367551 0.195769
H21   H     H_    0.911026 0.586899 0.607859 0.098178
H22   H     H_    0.108638 0.483664 0.647434 0.079927
N1    N     N_R   0.573860 0.731700 0.552730 -0.115569
N2    N     N_R   0.426060 0.268290 0.447230 -0.135321
O1    O     O_R   0.462770 0.383110 0.605620 -0.559320
O2    O     O_R   0.510160 0.531900 0.639510 -0.641974
O3    O     O_R   0.661510 0.425600 0.483070 -0.573961
O4    O     O_R   0.708900 0.574390 0.516960 -0.641281
O5    O     O_R   0.489840 0.468100 0.360490 -0.617946
O6    O     O_R   0.537230 0.616890 0.394380 -0.617940
O7    O     O_R   0.291100 0.425610 0.483040 -0.634949
O8    O     O_R   0.338490 0.574400 0.516930 -0.608651
Zn1   Zn    Zn3+2 0.468350 0.400660 0.477370 0.972251
Zn2   Zn    Zn3+2 0.531650 0.599340 0.522630 0.919451
O9    O     O_3   0.141483 0.626121 0.592068 -0.675731
C47   C     C_3   0.200771 0.641914 0.671972 0.079973
H23   H     H_    0.293007 0.618713 0.673972 0.185648
H24   H     H_    0.137133 0.604399 0.729755 0.108376
C48   C     C_3   0.228667 0.746144 0.677062 -0.305123
H25   H     H_    0.274918 0.785959 0.614169 0.241670
H26   H     H_    0.135863 0.766080 0.687498 0.200583
C49   C     C_3   0.317891 0.772656 0.750966 -0.979652
H27   H     H_    0.274925 0.732676 0.814815 0.266274
H28   H     H_    0.331623 0.848075 0.754282 0.271484
H29   H     H_    0.414178 0.758861 0.738266 0.260115
O10   O     O_3   0.262770 0.236154 0.054411 -0.654302
C50   C     C_3   0.340164 0.196913 0.116309 0.077585
H30   H     H_    0.275898 0.134959 0.155909 0.172016
H31   H     H_    0.382770 0.243937 0.163917 0.127824
C51   C     C_3   0.447049 0.165061 0.070313 -0.366795
H32   H     H_    0.402593 0.114856 0.026032 0.228900
H33   H     H_    0.512860 0.225891 0.030216 0.216483
C52   C     C_3   0.526526 0.118715 0.136743 -0.954071
H34   H     H_    0.574647 0.168681 0.180136 0.257370
H35   H     H_    0.602254 0.095687 0.101634 0.267329
H36   H     H_    0.463366 0.056997 0.177380 0.265535
H37   H     H_    0.500843 0.754385 0.950978 0.152415
O11   O     O_3   0.361634 0.245318 0.732020 -0.631190
C53   C     C_3   0.232147 0.226530 0.705652 0.081716
H38   H     H_    0.214156 0.288494 0.662850 0.141624
H39   H     H_    0.161880 0.207833 0.763204 0.126056
C54   C     C_3   0.209587 0.144319 0.654190 -0.291453
H40   H     H_    0.284632 0.158754 0.600414 0.236601
H41   H     H_    0.218861 0.080824 0.698301 0.216692
C55   C     C_3   0.075929 0.126529 0.615260 -0.946324
H42   H     H_    0.998939 0.112744 0.667929 0.265443
H43   H     H_    0.062039 0.064927 0.580438 0.280350
H44   H     H_    0.067135 0.187489 0.567489 0.254769
O12   O     O_3   0.634917 0.242086 0.465509 -0.658514
C56   C     C_3   0.688382 0.238262 0.381588 0.069893
H45   H     H_    0.718467 0.310260 0.345918 0.162237
H46   H     H_    0.619994 0.197925 0.338334 0.110793
C57   C     C_3   0.805105 0.194415 0.392339 -0.360908
H47   H     H_    0.867550 0.223270 0.443952 0.229762
H48   H     H_    0.770342 0.118215 0.413134 0.231425
C58   C     C_3   0.885850 0.211364 0.306709 -0.954014
H49   H     H_    0.825460 0.182645 0.253992 0.270292
H50   H     H_    0.967232 0.176491 0.316000 0.259318
H51   H     H_    0.926582 0.287116 0.286602 0.272184
H52   H     H_    0.187692 0.966831 0.396382 0.142069
O13   O     O_3   0.809138 0.874903 0.684250 -0.665245
C59   C     C_3   0.855684 0.804594 0.736242 0.082338
H53   H     H_    0.944942 0.840259 0.766050 0.176195
H54   H     H_    0.888487 0.757122 0.696546 0.110502
C60   C     C_3   0.758651 0.752783 0.811503 -0.374450
H55   H     H_    0.729774 0.804067 0.848471 0.235403
H56   H     H_    0.670204 0.711771 0.785250 0.201584
C61   C     C_3   0.817503 0.686857 0.874234 -0.955752
H57   H     H_    0.849209 0.636067 0.838306 0.253968
H58   H     H_    0.744239 0.648204 0.926303 0.282510
H59   H     H_    0.902097 0.726613 0.905631 0.267083
H60   H     H_    0.070158 0.370288 0.442534 0.231265
O14   O     O_3   0.115780 0.533857 0.344630 -0.651510
C62   C     C_3   0.194033 0.603228 0.281951 0.080486
H61   H     H_    0.228570 0.567066 0.231735 0.189078
H62   H     H_    0.281944 0.642356 0.311010 0.126118
C63   C     C_3   0.116584 0.669501 0.236054 -0.385926
H63   H     H_    0.028298 0.628428 0.209287 0.235481
H64   H     H_    0.086253 0.710450 0.283785 0.207220
C64   C     C_3   0.197176 0.736819 0.161294 -0.928817
H65   H     H_    0.285669 0.779049 0.186714 0.264529
H66   H     H_    0.139237 0.784452 0.129910 0.261921
H67   H     H_    0.225586 0.697941 0.110993 0.271749
O15   O     O_3   0.872577 0.443988 0.661227 -0.665835
C65   C     C_3   0.840381 0.475918 0.738511 0.035241
H68   H     H_    0.767143 0.518186 0.725321 0.144499
H69   H     H_    0.928323 0.518330 0.764411 0.131605
C66   C     C_3   0.782687 0.392023 0.807560 -0.288817
H70   H     H_    0.690424 0.352160 0.784460 0.231848
H71   H     H_    0.850973 0.345638 0.816775 0.225833
C67   C     C_3   0.756838 0.421750 0.895514 -0.963261
H72   H     H_    0.849395 0.455941 0.922544 0.266935
H73   H     H_    0.708784 0.359675 0.942702 0.264861
H74   H     H_    0.692734 0.470958 0.887839 0.278401

loop_
_geom_bond_atom_site_label_1
_geom_bond_atom_site_label_2
_ccdc_geom_bond_type
C63   C64   S    
C67   H72   S    
C12   O4    A    
C44   H20   S    
C55   H42   S    
C62   C63   S    
C23   O6    A    
C60   C61   S    
C59   H53   S    
C61   H59   S    
O1    Zn1   S    
O9    C47   S    
C3    H3    S    
C7    C8    A    
C45   C46   S    
C54   H40   S    
C7    C11   A    
C53   H39   S    
C33   H12   S    
C40   N2    A    
C30   C35   A    
C1    C5    S    
C54   C55   S    
C36   C37   A    
C19   C21   A    
C62   H62   S    
C7    H6    S    
C18   C19   A    
C34   O7    A    
C30   C31   A    
O8    Zn2   S    
C48   C49   S    
C63   H63   S    
C6    C22   A    
C51   C52   S    
C29   C33   A    
C56   H45   S    
C43   H60   S    
C45   O15   S    
C42   C46   S    
C65   C66   S    
C27   H15   S    
C4    O9    S    
C20   C24   A    
C56   H46   S    
C51   H33   S    
C45   H21   S    
C65   H68   S    
C35   H18   S    
C9    C10   A    
C66   H71   S    
C27   N1    A    
C42   H1    S    
C2    C34   S    
C48   H26   S    
C67   H73   S    
C40   H13   S    
O4    Zn2   S    
C21   C22   A    
C24   H4    S    
C39   H19   S    
C41   O12   S    
C12   O3    A    
O11   C53   S    
C44   C46   S    
C64   H66   S    
C4    C45   S    
C57   H48   S    
C25   C29   A    
C37   C39   A    
C53   C54   S    
C3    C44   S    
C1    O2    A    
C14   C20   A    
C62   H61   S    
C66   C67   S    
C12   C46   S    
C39   C40   A    
C4    H22   S    
C61   H58   S    
C25   C26   A    
C48   H25   S    
C35   C36   A    
C15   H9    S    
C2    C4    S    
C5    C9    A    
C37   C38   A    
C64   H67   S    
C11   C16   A    
C31   C32   A    
C49   H29   S    
C2    C43   S    
O14   C62   S    
C6    C24   A    
C51   H32   S    
C17   C18   A    
O3    Zn1   S    
O7    Zn1   S    
C55   H43   S    
C50   H30   S    
C1    O1    A    
C8    O11   S    
C17   H10   S    
C66   H70   S    
C38   C41   A    
C52   H35   S    
C49   H28   S    
C16   O10   S    
C67   H74   S    
C47   H24   S    
C9    H7    S    
C42   C43   S    
C58   H50   S    
O13   C59   S    
C59   C60   S    
C64   H65   S    
C53   H38   S    
C57   C58   S    
C63   H64   S    
C28   C29   A    
N2    Zn1   S    
C14   C15   A    
C36   H52   S    
O6    Zn2   S    
C32   H17   S    
C23   O5    A    
C60   H56   S    
C10   C13   A    
C59   H54   S    
C5    C8    A    
C57   H47   S    
C31   C38   A    
C61   H57   S    
C50   C51   S    
C47   C48   S    
C21   H11   S    
C56   C57   S    
C13   C17   A    
C32   C33   A    
C19   C20   A    
C28   C30   A    
C2    C3    S    
C25   O13   S    
O2    Zn2   S    
C52   H34   S    
C34   O8    A    
O12   C56   S    
C26   H14   S    
C58   H51   S    
C6    C23   S    
O10   C50   S    
C54   H41   S    
C55   H44   S    
C18   H37   S    
C65   H69   S    
C60   H55   S    
C10   C11   A    
C44   H2    S    
C52   H36   S    
C3    O14   S    
C49   H27   S    
C50   H31   S    
C47   H23   S    
C27   C28   A    
C26   N1    A    
O15   C65   S    
C41   N2    A    
N1    Zn2   S    
C58   H49   S    
C13   C14   A    
O5    Zn1   S    
C42   H8    S    
C15   C16   A    
C43   H16   S    
C22   H5    S    
