data_mof_unit_58303.cif
_audit_creation_date              2013-03-05T16:45:09-0500
_audit_creation_method            fapswitch 2.2
_symmetry_space_group_name_H-M    P1
_symmetry_Int_Tables_number       1
_space_group_crystal_system       triclinic
_cell_length_a                    14.810075
_cell_length_b                    15.537681
_cell_length_c                    9.925123
_cell_angle_alpha                 91.070302
_cell_angle_beta                  91.211193
_cell_angle_gamma                 89.957984
_cell_volume                      2283.00314003

loop_
_atom_site_label
_atom_site_type_symbol
_atom_site_description
_atom_site_fract_x
_atom_site_fract_y
_atom_site_fract_z
_atom_type_partial_charge
O1    O     O_R   0.408400 0.908380 0.614690 -0.626162
O2    O     O_R   0.408400 0.091620 0.614690 -0.630630
O3    O     O_R   0.908400 0.408380 0.614690 -0.626336
O4    O     O_R   0.908400 0.591620 0.614690 -0.630616
O5    O     O_R   0.408370 0.908370 0.385350 -0.622742
O6    O     O_R   0.408370 0.091630 0.385350 -0.619081
O7    O     O_R   0.908370 0.408370 0.385350 -0.622693
O8    O     O_R   0.908370 0.591630 0.385350 -0.619057
C1    C     C_R   0.378057 0.882087 0.498483 0.867827
C2    C     C_R   0.381682 0.121452 0.499722 0.861182
C3    C     C_R   0.878050 0.382095 0.498482 0.867862
C4    C     C_R   0.881711 0.621480 0.499727 0.861213
Zn1   Zn    Zn3+2 0.500010 0.000000 0.653130 1.027281
Zn2   Zn    Zn3+2 0.000010 0.500000 0.653130 1.027055
Zn3   Zn    Zn3+2 0.499980 0.000000 0.346870 0.969420
Zn4   Zn    Zn3+2 0.999980 0.500000 0.346870 0.969391
O9    O     O_R   0.591610 0.091610 0.614650 -0.572719
O10   O     O_R   0.591610 0.908390 0.614650 -0.553770
O11   O     O_R   0.091610 0.591610 0.614650 -0.572657
O12   O     O_R   0.091610 0.408390 0.614650 -0.553881
O13   O     O_R   0.591590 0.091600 0.385310 -0.634838
O14   O     O_R   0.591590 0.908400 0.385310 -0.627773
O15   O     O_R   0.091590 0.591600 0.385310 -0.634967
O16   O     O_R   0.091590 0.408400 0.385310 -0.627772
C5    C     C_R   0.617782 0.122095 0.500960 0.896440
C6    C     C_R   0.621367 0.881443 0.499772 0.920406
C7    C     C_R   0.117799 0.622080 0.500951 0.896538
C8    C     C_R   0.121354 0.381436 0.499772 0.920531
C9    C     C_R   0.315256 0.248550 0.609767 0.093605
C10   C     C_R   0.270394 0.796648 0.618899 0.037139
C11   C     C_R   0.815132 0.748448 0.609989 0.093772
C12   C     C_R   0.770638 0.296441 0.618945 0.036975
C13   C     C_R   0.324616 0.195304 0.496392 -0.127132
C14   C     C_R   0.302844 0.825196 0.496988 -0.059020
C15   C     C_R   0.824735 0.695406 0.496431 -0.127393
C16   C     C_R   0.802836 0.325204 0.497015 -0.058710
C17   C     C_R   0.281252 0.217271 0.374805 -0.183591
C18   C     C_R   0.259314 0.800138 0.375945 -0.188509
C19   C     C_R   0.781657 0.717630 0.374746 -0.183674
C20   C     C_R   0.759077 0.300350 0.376051 -0.188283
H1    H     H_    0.291880 0.181225 0.282054 0.178353
H2    H     H_    0.279400 0.825351 0.280143 0.161969
H3    H     H_    0.792505 0.681779 0.281879 0.178787
H4    H     H_    0.778992 0.325719 0.280272 0.161688
C21   C     C_R   0.717025 0.781645 0.374895 -0.205381
C22   C     C_R   0.693979 0.236266 0.377753 -0.175311
C23   C     C_R   0.216637 0.281295 0.374961 -0.205515
C24   C     C_R   0.194235 0.736042 0.377628 -0.175431
H5    H     H_    0.679729 0.793638 0.282033 0.186527
H6    H     H_    0.665041 0.213422 0.282527 0.179043
H7    H     H_    0.179121 0.293097 0.282219 0.186426
H8    H     H_    0.165490 0.713041 0.282368 0.179100
C25   C     C_R   0.695581 0.823302 0.496764 -0.123649
C26   C     C_R   0.673089 0.197629 0.500548 -0.069569
C27   C     C_R   0.195503 0.323231 0.496738 -0.123370
C28   C     C_R   0.173130 0.697592 0.500481 -0.069705
C29   C     C_R   0.750643 0.811782 0.610458 0.193290
C30   C     C_R   0.705307 0.234396 0.620747 0.068782
C31   C     C_R   0.250808 0.311927 0.610242 0.192948
C32   C     C_R   0.205105 0.734561 0.620656 0.068763
C33   C     C_3   0.727949 0.797221 0.754410 -0.472826
C34   C     C_3   0.746725 0.193419 0.741585 -0.391217
C35   C     C_3   0.228416 0.297638 0.754388 -0.472612
C36   C     C_3   0.246295 0.693800 0.741848 -0.391265
C37   C     C_3   0.300083 0.227801 0.753766 -0.295806
C38   C     C_3   0.318877 0.762211 0.740717 -0.261879
C39   C     C_3   0.799714 0.727468 0.753844 -0.295740
C40   C     C_3   0.819408 0.261725 0.740292 -0.261863
H9    H     H_    0.745131 0.852741 0.821985 0.265200
H10   H     H_    0.771804 0.127552 0.718641 0.275569
H11   H     H_    0.245840 0.353235 0.821663 0.265296
H12   H     H_    0.271548 0.627954 0.719193 0.275911
H13   H     H_    0.658512 0.771609 0.765716 0.230135
H14   H     H_    0.701978 0.200831 0.829444 0.223687
H15   H     H_    0.158976 0.272142 0.766166 0.230547
H16   H     H_    0.201326 0.701226 0.829461 0.223407
H17   H     H_    0.270260 0.163197 0.765536 0.146668
H18   H     H_    0.316103 0.806199 0.829812 0.147672
H19   H     H_    0.769971 0.662795 0.765290 0.146483
H20   H     H_    0.816995 0.305561 0.829597 0.147849
C41   C     C_R   0.428660 0.967023 0.067714 0.212992
C42   C     C_R   0.928727 0.466897 0.067706 0.212837
N1    N     N_R   0.499140 0.000000 0.142800 -0.134351
N2    N     N_R   0.999140 0.500000 0.142800 -0.134278
C43   C     C_R   0.574448 0.021563 0.077732 -0.163052
C44   C     C_R   0.074409 0.521688 0.077730 -0.163012
H21   H     H_    0.633535 0.038788 0.138078 0.202093
H22   H     H_    0.133470 0.539004 0.138069 0.202019
C45   C     C_R   0.576923 0.019410 0.934661 0.337133
C46   C     C_R   0.076888 0.519523 0.934658 0.337023
N3    N     N_R   0.499160 0.000000 0.857150 -0.144158
N4    N     N_R   0.999160 0.500000 0.857150 -0.144183
C47   C     C_R   0.428585 0.966826 0.925880 0.193522
C48   C     C_R   0.928663 0.466677 0.925877 0.192480
C49   C     C_3   0.332461 0.994949 0.919381 -0.483519
C50   C     C_3   0.832457 0.494525 0.919296 -0.482978
C51   C     C_3   0.332825 0.995374 0.072449 -0.469641
C52   C     C_3   0.832822 0.495056 0.072376 -0.469192
H23   H     H_    0.325043 0.059319 0.877131 0.235527
H24   H     H_    0.286517 0.945990 0.872987 0.190425
H25   H     H_    0.824810 0.558833 0.876883 0.235499
H26   H     H_    0.786696 0.445372 0.873000 0.190333
H27   H     H_    0.325240 0.060751 0.118136 0.229111
H28   H     H_    0.288345 0.945304 0.114050 0.188831
H29   H     H_    0.825087 0.560446 0.117962 0.229257
H30   H     H_    0.788447 0.444929 0.114046 0.188638
C53   C     C_2   0.381416 0.248615 0.842681 0.991522
O17   O     O_2   0.404741 0.199108 0.931046 -0.664478
O18   O     O_R   0.429838 0.324649 0.824345 -0.775650
H31   H     H_    0.482983 0.331043 0.889835 0.341189
C54   C     C_2   0.412090 0.726954 0.714818 0.999992
O19   O     O_2   0.474625 0.746787 0.791516 -0.645303
O20   O     O_R   0.427032 0.672436 0.603700 -0.799145
H32   H     H_    0.492559 0.654164 0.597185 0.337639
C55   C     C_2   0.880854 0.748284 0.843162 0.991538
O21   O     O_2   0.904055 0.698726 0.931518 -0.664728
O22   O     O_R   0.929229 0.824390 0.825223 -0.775493
H33   H     H_    0.982234 0.830785 0.890969 0.341219
C56   C     C_2   0.912451 0.226349 0.713556 0.999781
O23   O     O_2   0.975215 0.245706 0.790090 -0.645262
O24   O     O_R   0.926963 0.172235 0.601855 -0.799292
H34   H     H_    0.992408 0.153826 0.594782 0.337783
N5    N     N_R   0.663875 0.034160 0.877448 0.176873
O25   O     O_R   0.686696 0.995256 0.767184 -0.392616
O26   O     O_R   0.728936 0.065857 0.953594 -0.453204
N6    N     N_R   0.163820 0.534328 0.877434 0.176813
O27   O     O_R   0.186669 0.495387 0.767211 -0.392726
O28   O     O_R   0.228851 0.566114 0.953550 -0.453398

loop_
_geom_bond_atom_site_label_1
_geom_bond_atom_site_label_2
_geom_bond_distance
_ccdc_geom_bond_type
C30   C34   1.488921 S    
C35   C37   1.517363 S    
C40   H20   1.108865 S    
N6    O27   1.291517 A    
C42   C48   1.407589 A    
C27   C31   1.392479 A    
C53   O18   1.399240 S    
C54   O19   1.222303 D    
O10   C6    1.293311 A    
C12   C30   1.366972 A    
N5    O25   1.291487 A    
O7    C3    1.291435 A    
C52   H29   1.111283 S    
C35   H15   1.111589 S    
Zn1   O10   2.002770 S    
C12   C16   1.391599 A    
C3    C16   1.422215 S    
N2    C44   1.346257 A    
C18   H2    1.082643 S    
C24   H8    1.083261 S    
C50   H26   1.108253 S    
C40   C56   1.510048 S    
C44   H22   1.080886 S    
N5    O26   1.303140 A    
C55   O21   1.221529 D    
C9    C13   1.393387 A    
Zn4   N2    2.025196 S    
C34   H10   1.109732 S    
O8    Zn4   2.003089 S    
O2    Zn1   2.002108 S    
C39   C55   1.509752 S    
O6    Zn3   2.003089 S    
Zn3   O14   2.001886 S    
C9    C31   1.370895 A    
C55   O22   1.399219 S    
C10   C32   1.366967 A    
C53   O17   1.221565 D    
O15   C7    1.285849 A    
C38   C54   1.510154 S    
C17   C23   1.379835 A    
O11   C7    1.298755 A    
C18   C24   1.387001 A    
C12   C40   1.500045 S    
C43   H21   1.080893 S    
C21   C25   1.403409 A    
Zn4   O16   2.001886 S    
C14   C18   1.400222 A    
C50   H25   1.096343 S    
Zn1   N3    2.025230 S    
C17   H1    1.082877 S    
C42   C52   1.487320 S    
C41   N1    1.364215 A    
C8    C27   1.422555 S    
C56   O24   1.399012 S    
C46   N6    1.438506 S    
C38   H18   1.108910 S    
C37   H17   1.106154 S    
C10   C14   1.391662 A    
Zn2   O12   2.002770 S    
C16   C20   1.400242 A    
C39   H19   1.106217 S    
C5    C26   1.431808 S    
C44   C46   1.421033 A    
C43   C45   1.421024 A    
C49   H24   1.108209 S    
C19   H3    1.082870 S    
C45   N5    1.438582 S    
C33   H13   1.111596 S    
C13   C17   1.402694 A    
C28   C32   1.388442 A    
C50   C52   1.519100 S    
C36   C38   1.512649 S    
C15   C19   1.402700 A    
O5    C1    1.291447 A    
N3    C47   1.366592 A    
C41   C47   1.407646 A    
C33   C39   1.517453 S    
C46   N4    1.401190 A    
C21   H5    1.083529 S    
O8    C4    1.287904 A    
C22   C26   1.408904 A    
N4    C48   1.366575 A    
C36   H16   1.110689 S    
O1    C1    1.288352 A    
C54   O20   1.399269 S    
C10   C38   1.500205 S    
C4    C15   1.425234 S    
C48   C50   1.489234 S    
Zn2   N4    2.025230 S    
O24   H34   1.013855 S    
C51   H27   1.111246 S    
O3    Zn2   1.993369 S    
C9    C37   1.492637 S    
O7    Zn4   2.014612 S    
N1    C43   1.346224 A    
C35   H11   1.109127 S    
Zn4   O15   1.993148 S    
C42   N2    1.364236 A    
C1    C14   1.422205 S    
C11   C15   1.393431 A    
O4    C4    1.293778 A    
C20   C22   1.387074 A    
O2    C2    1.293782 A    
C6    C25   1.422657 S    
C23   C27   1.403440 A    
O20   H32   1.013971 S    
C26   C30   1.388563 A    
C33   H9    1.109164 S    
C24   C28   1.408885 A    
O13   C5    1.285938 A    
N6    O28   1.303147 A    
C7    C28   1.431756 S    
Zn2   O11   2.014290 S    
O16   C8    1.287164 A    
C25   C29   1.392406 A    
O6    C2    1.287845 A    
C23   H7    1.083575 S    
C56   O23   1.222104 D    
C49   C51   1.519005 S    
C29   C33   1.495981 S    
Zn1   O9    2.014290 S    
O12   C8    1.293281 A    
C22   H6    1.083285 S    
C31   C35   1.496027 S    
C52   H30   1.110773 S    
C19   C21   1.379913 A    
C32   C36   1.488936 S    
O9    C5    1.298690 A    
C11   C29   1.370856 A    
O22   H33   1.013875 S    
Zn3   O13   1.993148 S    
C41   C51   1.487242 S    
Zn3   N1    2.025196 S    
C2    C13   1.425109 S    
C49   H23   1.096274 S    
C34   C40   1.512633 S    
C36   H12   1.109763 S    
O4    Zn2   2.002108 S    
O5    Zn3   2.014612 S    
C51   H28   1.110820 S    
O3    C3    1.288365 A    
C11   C39   1.492725 S    
C20   H4    1.082614 S    
O1    Zn1   1.993370 S    
C47   C49   1.489292 S    
C45   N3    1.401257 A    
O14   C6    1.287185 A    
C34   H14   1.110592 S    
O18   H31   1.013867 S    
C37   C53   1.509732 S    
