data_mof_unit_44194.cif
_audit_creation_date              2012-12-11T14:15:50-0500
_audit_creation_method            fapswitch 2.2
_symmetry_space_group_name_H-M    P1
_symmetry_Int_Tables_number       1
_space_group_crystal_system       triclinic
_cell_length_a                    11.099935
_cell_length_b                    12.698531
_cell_length_c                    23.4212
_cell_angle_alpha                 90.184005
_cell_angle_beta                  96.492378
_cell_angle_gamma                 69.026693
_cell_volume                      3060.32633298

loop_
_atom_site_label
_atom_site_type_symbol
_atom_type_description
_atom_site_fract_x
_atom_site_fract_y
_atom_site_fract_z
_atom_type_partial_charge
C1    C     C_R   0.150181 0.617183 0.429163 0.542460
C2    C     C_2   0.178171 0.230713 0.226597 -0.070665
C3    C     C_2   0.156663 0.160464 0.263697 0.102059
C4    C     C_R   0.747702 0.604718 0.404122 0.561913
C5    C     C_1   0.133181 0.195476 0.321471 -0.054931
C6    C     C_1   0.208663 0.197503 0.169408 -0.021325
C7    C     C_1   0.116581 0.229998 0.369047 -0.019372
C8    C     C_1   0.166017 0.747624 0.123060 -0.002603
C9    C     C_2   0.144963 0.677864 0.226587 0.104891
C10   C     C_2   0.232558 0.680734 0.271005 -0.120403
C11   C     C_1   0.218579 0.655025 0.329387 -0.055592
C12   C     C_R   0.647532 0.563674 0.310241 0.076254
C13   C     C_1   0.154738 0.715035 0.169763 0.020806
C14   C     C_1   0.195545 0.636258 0.376599 -0.002561
C15   C     C_1   0.630779 0.755743 0.865285 0.000468
C16   C     C_R   0.101285 0.281647 0.423597 0.540357
C17   C     C_2   0.700447 0.711407 0.760916 -0.126315
C18   C     C_2   0.612832 0.701202 0.719029 -0.129924
C19   C     C_1   0.649961 0.668551 0.662724 -0.054204
C20   C     C_1   0.666205 0.736238 0.818285 -0.058310
C21   C     C_1   0.688814 0.639158 0.617087 -0.008320
C22   C     C_R   0.265284 0.062285 0.838701 0.039205
C23   C     C_R   0.710062 0.729090 0.317964 -0.161550
C24   C     C_R   0.113286 0.201269 0.634366 0.013996
C25   C     C_R   0.013233 0.155486 0.713089 -0.160855
C26   C     C_R   0.001907 0.202654 0.658205 -0.182194
C27   C     C_R   0.236990 0.138562 0.662513 0.261938
C28   C     C_R   0.153133 0.617887 0.589565 0.567839
C29   C     C_R   0.247870 0.101968 0.719785 0.038401
C30   C     C_R   0.135290 0.111888 0.745632 -0.003919
C31   C     C_R   0.145590 0.087099 0.804553 -0.151336
C32   C     C_R   0.378058 0.050846 0.812089 0.073086
C33   C     C_R   0.368658 0.066376 0.752897 -0.113275
C34   C     C_R   0.703094 0.736960 0.258238 -0.058209
C35   C     C_R   0.135971 0.761443 0.846981 -0.000841
C36   C     C_R   0.206696 0.641854 0.645869 0.020529
C37   C     C_R   0.307862 0.561454 0.741037 0.083521
C38   C     C_R   0.295192 0.552515 0.681352 -0.141344
C39   C     C_R   0.144247 0.746587 0.669093 0.084905
C40   C     C_R   0.749078 0.602182 0.565899 0.543237
C41   C     C_R   0.140276 0.750986 0.728430 0.024670
C42   C     C_R   0.223466 0.658213 0.764851 0.051117
C43   C     C_R   0.221079 0.665180 0.824266 -0.106557
C44   C     C_R   0.044866 0.846812 0.810162 -0.136885
C45   C     C_R   0.684373 0.649703 0.225533 0.029042
C46   C     C_R   0.050000 0.843651 0.751684 -0.145245
C47   C     C_R   0.265347 0.110704 0.069191 0.548315
C48   C     C_R   0.602733 0.774084 0.080762 0.562131
C49   C     C_R   0.189158 0.787500 0.069623 0.547001
C50   C     C_R   0.274076 0.052662 0.901824 0.587129
C51   C     C_R   0.575002 0.776290 0.918399 0.540910
C52   C     C_R   0.100115 0.275815 0.584426 0.560826
C53   C     C_R   0.165091 0.788643 0.906025 0.531748
C54   C     C_R   0.677491 0.751787 0.138321 0.028643
C55   C     C_R   0.690846 0.638192 0.344451 0.049516
C56   C     C_R   0.693713 0.649287 0.166995 0.233434
C57   C     C_R   0.651162 0.566535 0.251276 -0.105998
C58   C     C_3   0.823518 0.503223 0.120561 -0.099958
C59   C     C_3   0.379298 0.026573 0.606198 -0.121116
C60   C     C_3   0.621148 0.035332 0.163645 -0.083248
C61   C     C_R   0.697179 0.840359 0.170120 0.243845
C62   C     C_R   0.718538 0.828184 0.230654 -0.136712
C63   C     C_1   0.234766 0.163301 0.122605 -0.010942
Cr1   Cr    Cr6+3 0.189770 0.415650 0.511620 1.046594
Cr2   Cr    Cr6+3 0.930400 0.667320 0.496770 1.023821
Cr3   Cr    Cr6+3 0.879870 0.417010 0.491650 1.033759
Cr4   Cr    Cr6+3 0.149500 0.973980 0.985330 1.031390
Cr5   Cr    Cr6+3 0.457000 0.976510 0.994660 1.062071
Cr6   Cr    Cr6+3 0.411170 0.724270 0.995270 1.040751
H1    H     H_    0.514335 0.713768 0.727339 0.138351
H2    H     H_    0.348038 0.473247 0.662987 0.143978
H3    H     H_    0.626343 0.504162 0.225801 0.159353
H4    H     H_    0.739638 0.892188 0.256087 0.114380
H5    H     H_    0.737671 0.789766 0.343723 0.129293
H6    H     H_    0.175703 0.313621 0.239613 0.090644
H7    H     H_    0.311791 0.708504 0.263873 0.115616
H8    H     H_    0.828991 0.424571 0.098425 0.146986
H9    H     H_    0.899016 0.479537 0.158672 0.123945
H10   H     H_    0.844520 0.559200 0.089792 0.122776
H11   H     H_    0.984911 0.691721 0.264442 0.245675
H12   H     H_    0.799209 0.697916 0.752701 0.145166
H13   H     H_    0.077907 0.558087 0.250975 0.226013
H14   H     H_    0.572951 0.968776 0.826338 0.216798
H15   H     H_    0.522009 0.105652 0.841628 0.235094
H16   H     H_    0.300622 0.031418 0.571150 0.120397
H17   H     H_    0.400421 0.951180 0.635223 0.111900
H18   H     H_    0.468447 0.015612 0.585958 0.146493
H19   H     H_    0.673994 0.057426 0.202154 0.103769
H20   H     H_    0.527095 0.031272 0.173739 0.118540
H21   H     H_    0.597807 0.104722 0.130826 0.159830
H22   H     H_    0.444123 0.400870 0.752946 0.234599
H23   H     H_    0.058952 0.096078 0.824360 0.126147
H24   H     H_    0.470718 0.496779 0.796723 0.229692
H25   H     H_    0.979526 0.871852 0.633023 0.238567
H26   H     H_    0.112745 0.909436 0.646058 0.223815
H27   H     H_    0.511539 0.494364 0.316912 0.223654
H28   H     H_    0.666216 0.401167 0.324316 0.232952
H29   H     H_    0.070898 0.044785 0.252999 0.237577
H30   H     H_    0.231731 0.990835 0.275278 0.228584
H31   H     H_    0.925952 0.162227 0.731803 0.118354
H32   H     H_    0.455686 0.059427 0.733889 0.154758
H33   H     H_    0.905536 0.246580 0.636102 0.147151
H34   H     H_    0.289389 0.598828 0.853179 0.160004
H35   H     H_    0.976897 0.921779 0.826636 0.136574
H36   H     H_    0.982658 0.914607 0.725313 0.112238
N1    N     N_3   0.039272 0.641262 0.234230 -0.620438
N2    N     N_3   0.501360 0.031948 0.845128 -0.578863
N3    N     N_3   0.397986 0.469455 0.777432 -0.630252
N4    N     N_3   0.079811 0.845263 0.631717 -0.610772
N5    N     N_3   0.606370 0.481201 0.335296 -0.595025
N6    N     N_3   0.160329 0.050571 0.247116 -0.606966
O1    O     O_R   0.196340 0.303200 0.448500 -0.508315
O2    O     O_R   0.555390 0.700940 0.062700 -0.464531
O3    O     O_R   0.295020 0.731920 0.049950 -0.490769
O4    O     O_R   0.199310 0.519670 0.454880 -0.493034
O5    O     O_R   0.094290 0.884230 0.921550 -0.528436
O6    O     O_R   0.168980 0.069410 0.926940 -0.514088
O7    O     O_R   0.358400 0.089990 0.927950 -0.469000
O8    O     O_R   0.544850 0.873850 0.939920 -0.489502
O9    O     O_R   0.536020 0.701900 0.936430 -0.513130
O10   O     O_R   0.277070 0.732810 0.932890 -0.506337
O11   O     O_3   0.339220 0.891590 0.991750 -0.287788
O12   O     O_R   0.811960 0.658090 0.547150 -0.497192
O13   O     O_R   0.045660 0.691380 0.441680 -0.510817
O14   O     O_R   0.811930 0.659460 0.430950 -0.518059
O15   O     O_R   0.757900 0.507620 0.421760 -0.468207
O16   O     O_R   0.988630 0.322990 0.439840 -0.495945
O17   O     O_R   0.196380 0.301720 0.573850 -0.453728
O18   O     O_R   0.199350 0.518300 0.571080 -0.512282
O19   O     O_R   0.045700 0.689900 0.567030 -0.477534
O20   O     O_3   0.697896 0.553882 0.137129 -0.557914
O21   O     O_3   0.347553 0.126493 0.637032 -0.562540
O22   O     O_3   0.700505 0.934307 0.141000 -0.539897
O23   O     O_R   0.757930 0.506140 0.547110 -0.508018
O24   O     O_R   0.988670 0.321620 0.556040 -0.518400
O25   O     O_3   0.000020 0.499990 0.500010 -0.254731
O26   O     O_R   0.113660 0.883270 0.047820 -0.489845
O27   O     O_R   0.186930 0.068530 0.043990 -0.482107
O28   O     O_R   0.377770 0.089040 0.054220 -0.511520
O29   O     O_R   0.562800 0.872960 0.056970 -0.461551

loop_
_geom_bond_atom_site_label_1
_geom_bond_atom_site_label_2
_ccdc_geom_bond_type
C24   C52   S    
Cr1   O25   S    
C18   H1    S    
C8    C13   T    
C49   O26   A    
C35   C53   S    
C50   O6    A    
C41   C42   A    
C24   C27   A    
H15   N2    S    
C12   N5    S    
Cr2   O19   S    
C44   H35   S    
C61   O22   S    
C39   C41   A    
C60   H20   S    
C48   C54   S    
Cr6   O2    S    
C29   C30   A    
C22   C32   A    
C4    O14   A    
C33   H32   S    
C19   C21   T    
C24   C26   A    
C18   C19   S    
Cr5   O8    S    
C47   C63   S    
C30   C31   A    
C11   C14   T    
Cr1   O1    S    
C27   C29   A    
C46   H36   S    
H11   N1    S    
C45   C57   A    
C34   C62   A    
C17   C20   S    
Cr3   O16   S    
C28   O18   A    
Cr2   O13   S    
C37   C42   A    
Cr4   O27   S    
C9    C13   S    
C58   H8    S    
Cr5   O7    S    
Cr3   O23   S    
C10   H7    S    
C60   H19   S    
C29   C33   A    
C3    N6    S    
Cr1   O17   S    
C32   N2    S    
C51   O8    A    
C41   C46   A    
C62   H4    S    
C15   C51   S    
C35   C43   A    
C9    C10   D    
C17   H12   S    
C53   O5    A    
C22   C50   S    
Cr2   O12   S    
C49   O3    A    
Cr1   O4    S    
C27   O21   S    
C2    C6    S    
C44   C46   A    
C51   O9    A    
C59   H18   S    
C52   O17   A    
C15   C20   T    
Cr6   O3    S    
C54   C56   A    
C59   O21   S    
C22   C31   A    
C48   O29   A    
C56   O20   S    
Cr2   O25   S    
C45   C56   A    
C37   N3    S    
H26   N4    S    
Cr5   O11   S    
C5    C7    T    
C25   C26   A    
H27   N5    S    
Cr3   O15   S    
Cr2   O14   S    
C6    C63   T    
Cr4   O5    S    
C59   H16   S    
C37   C38   A    
C25   H31   S    
Cr6   O10   S    
C58   O20   S    
C23   C34   A    
H30   N6    S    
C17   C18   D    
C34   C45   A    
C35   C44   A    
Cr4   O6    S    
C58   H10   S    
Cr3   O25   S    
C12   C57   A    
C7    C16   S    
C4    C55   S    
Cr5   O29   S    
C42   C43   A    
C23   H5    S    
Cr4   O11   S    
C16   O1    A    
C25   C30   A    
C40   O12   A    
C38   H2    S    
H29   N6    S    
H25   N4    S    
C50   O7    A    
H22   N3    S    
C36   C39   A    
C3    C5    S    
C23   C55   A    
C54   C61   A    
C60   H21   S    
Cr6   O9    S    
C4    O15   A    
C32   C33   A    
C36   C38   A    
C2    C3    D    
C9    N1    S    
C1    O13   A    
H24   N3    S    
C53   O10   A    
C26   H33   S    
H28   N5    S    
C21   C40   S    
C40   O23   A    
Cr6   O11   S    
C60   O22   S    
C47   O27   A    
H14   N2    S    
C28   O19   A    
H13   N1    S    
C57   H3    S    
C61   C62   A    
Cr4   O26   S    
C16   O16   A    
C43   H34   S    
C59   H17   S    
C12   C55   A    
C10   C11   S    
C58   H9    S    
Cr3   O24   S    
C39   N4    S    
Cr1   O18   S    
C28   C36   S    
C31   H23   S    
C47   O28   A    
C52   O24   A    
Cr5   O28   S    
C1    C14   S    
C1    O4    A    
C8    C49   S    
C2    H6    S    
C48   O2    A    
