data_mof_unit_41156.cif
_audit_creation_date              2012-12-10T16:58:26-0500
_audit_creation_method            fapswitch 2.2
_symmetry_space_group_name_H-M    P1
_symmetry_Int_Tables_number       1
_space_group_crystal_system       triclinic
_cell_length_a                    15.878141
_cell_length_b                    10.945401
_cell_length_c                    9.709668
_cell_angle_alpha                 89.877727
_cell_angle_beta                  90.649541
_cell_angle_gamma                 91.050859
_cell_volume                      1687.07328086

loop_
_atom_site_label
_atom_site_type_symbol
_atom_type_description
_atom_site_fract_x
_atom_site_fract_y
_atom_site_fract_z
_atom_type_partial_charge
C1    C     C_R   0.498109 0.265372 0.500317 0.875580
C2    C     C_3   0.083911 0.498327 0.503236 -0.025406
C3    C     C_3   0.974768 0.554457 0.619097 0.214487
C4    C     C_3   0.916273 0.505196 0.504111 -0.051369
C5    C     C_3   0.032730 0.618289 0.511855 -0.247824
C6    C     C_3   0.973803 0.566656 0.396168 0.209990
C7    C     C_1   0.175250 0.496856 0.499630 -0.006276
C8    C     C_1   0.824811 0.505386 0.503288 0.024206
C9    C     C_2   0.477387 0.934175 0.387162 0.293105
C10   C     C_2   0.500660 0.867346 0.498218 -0.343845
C11   C     C_2   0.488591 0.067827 0.387225 -0.224321
C12   C     C_R   0.340023 0.499067 0.499331 0.815846
C13   C     C_2   0.490286 0.133461 0.503305 -0.357067
C14   C     C_2   0.445242 0.439244 0.921820 0.010834
C15   C     C_2   0.452648 0.425510 0.077113 0.350537
C16   C     C_R   0.498920 0.734717 0.499456 0.840337
C17   C     C_R   0.659987 0.501235 0.500699 0.806221
C18   C     C_3   0.968718 0.387699 0.496841 0.342748
C19   C     C_3   0.024792 0.449395 0.387170 0.160631
C20   C     C_1   0.250596 0.497491 0.498304 -0.200213
C21   C     C_1   0.749437 0.503760 0.502271 -0.167433
C22   C     C_3   0.026715 0.437894 0.612726 0.146729
Cu1   Cu    Cu3+1 0.500020 0.500020 0.638630 0.965999
Cu2   Cu    Cu3+1 0.499980 0.499980 0.361370 0.971871
H1    H     H_    0.481587 0.091557 0.603482 0.148110
H2    H     H_    0.391265 0.396973 0.870409 0.100683
H3    H     H_    0.518742 0.579366 0.109681 0.202654
H4    H     H_    0.061071 0.711363 0.519329 0.158969
H5    H     H_    0.526119 0.909872 0.590706 0.111438
H6    H     H_    0.492205 0.113375 0.287956 0.167467
N1    N     N_2   0.499090 0.498660 0.846910 -0.022914
N2    N     N_2   0.499070 0.498630 0.153040 -0.270731
O1    O     O_R   0.500010 0.321960 0.617040 -0.577988
O2    O     O_R   0.499990 0.321920 0.382900 -0.547418
O3    O     O_R   0.379090 0.500010 0.617050 -0.595439
O4    O     O_R   0.379060 0.499970 0.382910 -0.557186
O5    O     O_R   0.500010 0.678080 0.617100 -0.621620
O6    O     O_R   0.499990 0.678040 0.382960 -0.544302
O7    O     O_R   0.620940 0.500030 0.617090 -0.561300
O8    O     O_R   0.620910 0.499990 0.382950 -0.574493
N3    N     N_2   0.055236 0.392988 0.262780 -0.438356
H7    H     H_    0.103851 0.441120 0.217073 0.254912
C23   C     C_3   0.991452 0.349720 0.166209 -0.699940
H8    H     H_    0.021092 0.290999 0.088071 0.224156
H9    H     H_    0.961721 0.427621 0.112466 0.225653
H10   H     H_    0.942260 0.294514 0.219230 0.262492
O9    O     O_3   0.576411 0.513361 0.904679 -0.524044
C24   C     C_3   0.601663 0.636990 0.888166 0.175901
H11   H     H_    0.550982 0.699707 0.920370 0.102995
H12   H     H_    0.617829 0.657719 0.780248 0.186791
C25   C     C_3   0.680470 0.661880 0.976557 -0.397609
H13   H     H_    0.666908 0.640976 0.086235 0.232036
H14   H     H_    0.731811 0.601522 0.942567 0.231199
C26   C     C_3   0.710249 0.794801 0.964782 -0.941183
H15   H     H_    0.725442 0.817462 0.856172 0.252570
H16   H     H_    0.767818 0.809332 0.029131 0.265112
H17   H     H_    0.660682 0.856825 0.001461 0.260914
N4    N     N_2   0.405592 0.330094 0.141597 -0.375136
H18   H     H_    0.423720 0.244808 0.109781 0.223335
C27   C     C_3   0.315009 0.342691 0.134387 -0.708358
H19   H     H_    0.285054 0.278012 0.208080 0.235229
H20   H     H_    0.290962 0.321024 0.029217 0.192637
H21   H     H_    0.296599 0.436906 0.161936 0.242619
O10   O     O_3   0.927704 0.272429 0.489925 -0.611116
C28   C     C_3   0.987205 0.178516 0.488807 0.062220
H22   H     H_    0.017471 0.169477 0.591934 0.158841
H23   H     H_    0.036712 0.195283 0.410481 0.179493
C29   C     C_3   0.941223 0.058627 0.454242 -0.316894
H24   H     H_    0.893949 0.037883 0.535014 0.224433
H25   H     H_    0.907560 0.067865 0.353824 0.227961
C30   C     C_3   0.002112 0.953161 0.445369 -0.969798
H26   H     H_    0.047138 0.968779 0.360118 0.260693
H27   H     H_    0.965723 0.867491 0.425084 0.287913
H28   H     H_    0.037690 0.943288 0.543786 0.250802
N5    N     N_2   0.941677 0.637418 0.281537 -0.418406
H29   H     H_    0.893390 0.594261 0.227785 0.256554
C31   C     C_3   0.004476 0.694060 0.194263 -0.695251
H30   H     H_    0.973584 0.760150 0.124020 0.231043
H31   H     H_    0.035780 0.624282 0.131068 0.225636
H32   H     H_    0.052661 0.744261 0.256869 0.234338
N6    N     N_2   0.946390 0.607448 0.746551 -0.419703
H33   H     H_    0.911942 0.546711 0.805689 0.251825
C32   C     C_3   0.908136 0.725747 0.733985 -0.686653
H34   H     H_    0.892385 0.759884 0.837977 0.226146
H35   H     H_    0.849395 0.719146 0.671051 0.227809
H36   H     H_    0.952646 0.792198 0.686317 0.240376
N7    N     N_2   0.054104 0.367634 0.731242 -0.435312
H37   H     H_    0.004993 0.321863 0.778550 0.250375
C33   C     C_3   0.108947 0.431053 0.828454 -0.675137
H38   H     H_    0.131946 0.365267 0.906855 0.215204
H39   H     H_    0.074363 0.503949 0.881922 0.236941
H40   H     H_    0.164547 0.471498 0.776136 0.245766
N8    N     N_2   0.444270 0.877650 0.265206 -0.399364
H41   H     H_    0.459544 0.923678 0.175824 0.231624
C34   C     C_3   0.355272 0.847390 0.270934 -0.656438
H42   H     H_    0.335797 0.797779 0.175809 0.214997
H43   H     H_    0.318035 0.932074 0.278716 0.211157
H44   H     H_    0.341529 0.787347 0.360621 0.226699

loop_
_geom_bond_atom_site_label_1
_geom_bond_atom_site_label_2
_ccdc_geom_bond_type
N7    H37   S    
N8    H41   S    
N3    H7    S    
C34   H42   S    
C14   N1    D    
C4    C8    S    
N6    H33   S    
C34   H44   S    
C1    O1    A    
C15   N2    D    
C31   H30   S    
C6    C19   S    
Cu2   O4    S    
C27   H21   S    
C5    C6    S    
N4    C27   S    
C27   H20   S    
C18   C19   S    
C17   O7    A    
C2    C7    S    
C24   C25   S    
O9    C24   S    
C11   H6    S    
C29   H24   S    
C28   H23   S    
C2    C22   S    
Cu2   O6    S    
Cu1   Cu2   S    
C33   H39   S    
C9    C10   D    
C16   O5    A    
C4    C18   S    
C24   H12   S    
C2    C19   S    
N8    C34   S    
N1    O9    S    
N3    C23   S    
C13   H1    S    
N6    C32   S    
C1    O2    A    
C31   H31   S    
C26   H16   S    
C25   H13   S    
C6    N5    S    
C4    C6    S    
C30   H27   S    
Cu1   O1    S    
N4    H18   S    
Cu1   O5    S    
Cu2   O2    S    
C27   H19   S    
C33   H40   S    
C17   O8    A    
Cu1   N1    S    
N5    H29   S    
Cu2   N2    S    
C3    N6    S    
C5    H4    S    
C9    C11   S    
C32   H34   S    
C28   C29   S    
C12   C20   S    
C8    C21   T    
C22   N7    S    
C14   H2    S    
C12   O3    A    
N5    C31   S    
C24   H11   S    
C32   H35   S    
C28   H22   S    
Cu1   O3    S    
N7    C33   S    
C23   H8    S    
C15   N4    S    
C2    C5    S    
C12   O4    A    
C3    C4    S    
C9    N8    S    
C31   H32   S    
C26   H15   S    
H3    N2    S    
C18   C22   S    
C3    C5    S    
C30   H28   S    
C34   H43   S    
C25   C26   S    
O10   C28   S    
C30   H26   S    
C23   H9    S    
C10   C16   S    
C11   C13   D    
C10   H5    S    
C18   O10   S    
C29   C30   S    
Cu1   O7    S    
Cu2   O8    S    
C23   H10   S    
C17   C21   S    
C32   H36   S    
C1    C13   S    
C29   H25   S    
C7    C20   T    
C14   C15   S    
C3    C22   S    
C25   H14   S    
C33   H38   S    
C19   N3    S    
C16   O6    A    
C26   H17   S    
