data_mof_unit_14704.cif
_audit_creation_date              2012-12-11T15:35:29-0500
_audit_creation_method            fapswitch 2.2
_symmetry_space_group_name_H-M    P1
_symmetry_Int_Tables_number       1
_space_group_crystal_system       triclinic
_cell_length_a                    17.372159
_cell_length_b                    24.166453
_cell_length_c                    14.848405
_cell_angle_alpha                 89.924623
_cell_angle_beta                  124.639469
_cell_angle_gamma                 90.140837
_cell_volume                      5128.73728338

loop_
_atom_site_label
_atom_site_type_symbol
_atom_type_description
_atom_site_fract_x
_atom_site_fract_y
_atom_site_fract_z
_atom_type_partial_charge
C1    C     C_R   0.309975 0.124838 0.908584 -0.146162
C2    C     C_R   0.598794 0.123963 0.907973 -0.127183
C3    C     C_R   0.255832 0.545758 0.302197 -0.157536
C4    C     C_R   0.058816 0.347586 0.910184 -0.125069
C5    C     C_R   0.098726 0.624137 0.908052 -0.126616
C6    C     C_R   0.431000 0.999668 0.630985 0.055770
C7    C     C_R   0.937011 0.499617 0.633117 0.049998
C8    C     C_R   0.803882 0.999954 0.363165 0.003543
C9    C     C_R   0.305665 0.499358 0.360319 0.001555
C10   C     C_R   0.687938 0.136141 0.998813 0.039941
C11   C     C_R   0.687471 0.863483 0.998939 0.040536
C12   C     C_R   0.187836 0.636271 0.998935 0.039901
C13   C     C_R   0.348159 0.848732 0.907979 -0.129141
C14   C     C_R   0.119350 0.316172 0.001897 0.043200
C15   C     C_3   0.045424 0.946760 0.587836 -0.381490
C16   C     C_3   0.046133 0.050714 0.593320 -0.383167
C17   C     C_3   0.546144 0.447821 0.589265 -0.379296
C18   C     C_3   0.546210 0.551817 0.589175 -0.379046
C19   C     C_3   0.938771 0.947195 0.513380 -0.431091
C20   C     C_3   0.939241 0.050774 0.518107 -0.429091
C21   C     C_3   0.439482 0.448369 0.514828 -0.432132
C22   C     C_3   0.439708 0.551981 0.512038 -0.432811
C23   C     C_3   0.055587 0.001565 0.449473 -0.423720
C24   C     C_R   0.847900 0.651082 0.907918 -0.129539
C25   C     C_3   0.557467 0.499906 0.449008 -0.425223
C26   C     C_3   0.086708 0.999591 0.569176 0.404310
C27   C     C_3   0.587552 0.499880 0.568424 0.402596
C28   C     C_3   0.905399 0.999876 0.441499 0.408096
C29   C     C_3   0.406687 0.499630 0.439251 0.410145
C30   C     C_R   0.442178 0.847027 0.090445 -0.140765
C31   C     C_R   0.406159 0.132021 0.091148 -0.124650
C32   C     C_R   0.942437 0.346907 0.090353 -0.140831
C33   C     C_R   0.941998 0.652845 0.090447 -0.142091
C34   C     C_3   0.948670 0.001486 0.373876 -0.369139
C35   C     C_R   0.848470 0.348634 0.907915 -0.129379
C36   C     C_3   0.450710 0.498883 0.372522 -0.371244
C37   C     C_R   0.289916 0.731416 0.899099 -0.174597
C38   C     C_R   0.160717 0.187060 0.903931 -0.174522
C39   C     C_R   0.790267 0.231247 0.898894 -0.173399
C40   C     C_R   0.788759 0.768013 0.899094 -0.174539
C41   C     C_R   0.743149 0.184985 0.898884 -0.168749
C42   C     C_R   0.742043 0.814295 0.899099 -0.169953
C43   C     C_R   0.243071 0.685041 0.899098 -0.170036
C44   C     C_R   0.110785 0.231302 0.904266 -0.168845
C45   C     C_R   0.761309 0.165398 0.998077 0.143982
C46   C     C_R   0.689100 0.123409 0.090851 -0.126737
C47   C     C_R   0.760378 0.833917 0.998286 0.144808
C48   C     C_R   0.261196 0.665490 0.998279 0.144725
C49   C     C_R   0.142871 0.258313 0.003129 0.143817
C50   C     C_R   0.841114 0.184035 0.096933 -0.172641
C51   C     C_R   0.839810 0.815136 0.097182 -0.173941
C52   C     C_R   0.340825 0.684217 0.097170 -0.174295
C53   C     C_R   0.210445 0.232888 0.102493 -0.172538
C54   C     C_R   0.387499 0.730709 0.097311 -0.171800
C55   C     C_R   0.260104 0.188437 0.102110 -0.170188
C56   C     C_R   0.888065 0.230413 0.097068 -0.169960
C57   C     C_R   0.688822 0.876407 0.090961 -0.126656
C58   C     C_R   0.886355 0.768739 0.097310 -0.171951
C59   C     C_R   0.355475 0.757814 0.998378 0.144215
C60   C     C_R   0.242482 0.170217 0.002500 0.145693
C61   C     C_R   0.856056 0.257566 0.998179 0.143463
C62   C     C_R   0.854440 0.741723 0.998369 0.144327
C63   C     C_R   0.389359 0.948703 0.465202 -0.179092
C64   C     C_R   0.386455 0.048948 0.462170 -0.180776
C65   C     C_R   0.892096 0.449324 0.464472 -0.179412
C66   C     C_R   0.891196 0.549541 0.463667 -0.179573
C67   C     C_R   0.397507 0.948402 0.378004 -0.170058
C68   C     C_R   0.189010 0.623515 0.090934 -0.125880
C69   C     C_R   0.393834 0.048612 0.374289 -0.167374
C70   C     C_R   0.891506 0.449374 0.370903 -0.169173
C71   C     C_R   0.890604 0.549528 0.370108 -0.169990
C72   C     C_R   0.411247 0.998507 0.341602 0.148256
C73   C     C_R   0.902273 0.499515 0.331630 0.145426
C74   C     C_R   0.491681 0.044826 0.263139 -0.124873
C75   C     C_R   0.483251 0.953201 0.252354 -0.128204
C76   C     C_R   0.978641 0.545892 0.247420 -0.124901
C77   C     C_R   0.978672 0.453809 0.247370 -0.125544
C78   C     C_R   0.395658 0.999094 0.515656 0.138561
C79   C     C_R   0.149222 0.348994 0.092327 -0.128925
C80   C     C_R   0.902106 0.499466 0.517530 0.140872
C81   C     C_R   0.242059 0.953437 0.700077 0.035440
C82   C     C_R   0.242957 0.045439 0.697927 0.012797
C83   C     C_R   0.742476 0.453775 0.699530 0.036347
C84   C     C_R   0.742614 0.546139 0.699443 0.036070
C85   C     C_R   0.315617 0.141917 0.001061 0.045848
C86   C     C_R   0.379323 0.815919 0.999022 0.043688
C87   C     C_R   0.878850 0.683814 0.998995 0.044004
C88   C     C_R   0.879841 0.315723 0.998896 0.044211
C89   C     C_R   0.457572 0.998807 0.285282 0.037678
C90   C     C_R   0.598512 0.875777 0.908027 -0.127496
C91   C     C_R   0.946493 0.499736 0.272408 0.036980
C92   C     C_R   0.189981 0.999359 0.641279 -0.075909
C93   C     C_R   0.690584 0.499933 0.641440 -0.088315
C94   C     C_R   0.448784 0.045515 0.695261 -0.145467
C95   C     C_R   0.449470 0.954154 0.696006 -0.145608
C96   C     C_R   0.951842 0.545483 0.696471 -0.148264
C97   C     C_R   0.953607 0.453961 0.697724 -0.129161
C98   C     C_R   0.754681 0.953916 0.302797 -0.154790
C99   C     C_R   0.755060 0.046046 0.302911 -0.155333
C100  C     C_R   0.256772 0.453265 0.299692 -0.143486
H1    H     H_    0.250730 0.127664 0.824787 0.105816
H2    H     H_    0.909518 0.049931 0.567618 0.161239
H3    H     H_    0.410162 0.449270 0.564770 0.162039
H4    H     H_    0.408387 0.553358 0.559811 0.161107
H5    H     H_    0.915999 0.909048 0.462753 0.148181
H6    H     H_    0.916834 0.090028 0.470817 0.147672
H7    H     H_    0.416219 0.409210 0.467300 0.148867
H8    H     H_    0.418719 0.590283 0.461949 0.149100
H9    H     H_    0.083381 0.965221 0.430690 0.155363
H10   H     H_    0.083382 0.039500 0.434725 0.159254
H11   H     H_    0.586363 0.463199 0.432778 0.156200
H12   H     H_    0.307944 0.835351 0.823962 0.095081
H13   H     H_    0.584583 0.537452 0.432257 0.156910
H14   H     H_    0.924957 0.964961 0.318462 0.156051
H15   H     H_    0.925019 0.039160 0.321423 0.155048
H16   H     H_    0.428240 0.461080 0.320531 0.158669
H17   H     H_    0.426531 0.535299 0.316756 0.155352
H18   H     H_    0.267764 0.748954 0.820938 0.106247
H19   H     H_    0.140411 0.170688 0.825632 0.106066
H20   H     H_    0.768106 0.248819 0.820751 0.105346
H21   H     H_    0.766570 0.750508 0.820930 0.106221
H22   H     H_    0.686266 0.168882 0.820861 0.107136
H23   H     H_    0.807406 0.664366 0.823817 0.094764
H24   H     H_    0.685409 0.830467 0.821070 0.107428
H25   H     H_    0.186374 0.668827 0.821072 0.107481
H26   H     H_    0.054130 0.247410 0.826232 0.104374
H27   H     H_    0.861548 0.167139 0.174993 0.102999
H28   H     H_    0.860325 0.831997 0.175254 0.103227
H29   H     H_    0.361264 0.667325 0.175232 0.103153
H30   H     H_    0.232356 0.250292 0.180656 0.103575
H31   H     H_    0.441993 0.747851 0.175561 0.104409
H32   H     H_    0.317908 0.172692 0.179880 0.101825
H33   H     H_    0.942752 0.247478 0.175302 0.103868
H34   H     H_    0.808418 0.335294 0.823853 0.093659
H35   H     H_    0.940820 0.751645 0.175557 0.104510
H36   H     H_    0.389416 0.909313 0.499715 0.104710
H37   H     H_    0.384246 0.088504 0.494492 0.104110
H38   H     H_    0.894029 0.409841 0.499915 0.104881
H39   H     H_    0.892464 0.589048 0.498445 0.104910
H40   H     H_    0.489044 0.832289 0.173354 0.084398
H41   H     H_    0.437361 0.147251 0.172820 0.082032
H42   H     H_    0.989355 0.332179 0.173265 0.083223
H43   H     H_    0.988684 0.667584 0.173415 0.085031
H44   H     H_    0.403317 0.908874 0.348415 0.106973
H45   H     H_    0.068812 0.944317 0.674810 0.161785
H46   H     H_    0.395814 0.087878 0.340634 0.102436
H47   H     H_    0.893351 0.409942 0.337930 0.107121
H48   H     H_    0.891738 0.588976 0.336493 0.107308
H49   H     H_    0.496268 0.086196 0.292064 0.082598
H50   H     H_    0.471743 0.910094 0.259921 0.093007
H51   H     H_    0.968556 0.588866 0.257460 0.093005
H52   H     H_    0.968586 0.410758 0.257240 0.093238
H53   H     H_    0.430505 0.087899 0.668244 0.079996
H54   H     H_    0.432133 0.911579 0.670086 0.078161
H55   H     H_    0.933840 0.587821 0.669136 0.079595
H56   H     H_    0.069278 0.050213 0.680312 0.157068
H57   H     H_    0.938097 0.411226 0.672233 0.078647
H58   H     H_    0.767755 0.911131 0.328106 0.086764
H59   H     H_    0.769192 0.088817 0.328311 0.086656
H60   H     H_    0.272539 0.410087 0.320885 0.086727
H61   H     H_    0.269620 0.588400 0.328467 0.087899
H62   H     H_    0.746230 0.128646 0.175303 0.088331
H63   H     H_    0.745814 0.871147 0.175462 0.087974
H64   H     H_    0.246043 0.628816 0.175408 0.088228
H65   H     H_    0.187384 0.336105 0.176855 0.081551
H66   H     H_    0.571673 0.870722 0.822818 0.093562
H67   H     H_    0.569554 0.446471 0.676324 0.160378
H68   H     H_    0.572037 0.128812 0.822725 0.094263
H69   H     H_    0.013720 0.333699 0.826380 0.081107
H70   H     H_    0.071954 0.629212 0.822868 0.093685
H71   H     H_    0.069130 0.908649 0.568941 0.162306
H72   H     H_    0.070857 0.090057 0.579289 0.163460
H73   H     H_    0.569780 0.409151 0.571911 0.163782
H74   H     H_    0.571543 0.590704 0.574551 0.162981
H75   H     H_    0.214077 0.907327 0.571021 0.088029
H76   H     H_    0.305631 0.885832 0.690804 0.096015
H77   H     H_    0.237842 0.089817 0.579827 0.095738
H78   H     H_    0.567737 0.552313 0.675553 0.161105
H79   H     H_    0.298266 0.120185 0.702420 0.102533
H80   H     H_    0.715882 0.408228 0.570467 0.088806
H81   H     H_    0.806130 0.386116 0.690613 0.093458
H82   H     H_    0.717729 0.591351 0.570742 0.089133
H83   H     H_    0.806519 0.614158 0.691318 0.096376
H84   H     H_    0.909351 0.945811 0.563198 0.161663
N1    N     N_R   0.392140 0.102630 0.941800 -0.041652
N2    N     N_R   0.525160 0.972040 0.206160 -0.037758
N3    N     N_R   0.025160 0.527960 0.206160 -0.038846
N4    N     N_R   0.025160 0.472040 0.206160 -0.039219
N5    N     N_R   0.317870 0.971120 0.792790 -0.053576
N6    N     N_R   0.317870 0.028880 0.792790 -0.054357
N7    N     N_R   0.817870 0.471120 0.792790 -0.055925
N8    N     N_R   0.817870 0.528880 0.792790 -0.055605
N9    N     N_R   0.473480 0.027920 0.793480 -0.036429
N10   N     N_R   0.473480 0.972080 0.793480 -0.037218
N11   N     N_R   0.973480 0.527920 0.793480 -0.038151
N12   N     N_R   0.392140 0.897370 0.941800 -0.039941
N13   N     N_R   0.973480 0.472080 0.793480 -0.038518
N14   N     N_R   0.681610 0.971120 0.207570 -0.033097
N15   N     N_R   0.681610 0.028880 0.207570 -0.032937
N16   N     N_R   0.181610 0.471120 0.207570 -0.033589
N17   N     N_R   0.181610 0.528880 0.207570 -0.033684
N18   N     N_R   0.605410 0.102620 0.056870 -0.040538
N19   N     N_R   0.605410 0.897380 0.056870 -0.038997
N20   N     N_R   0.105410 0.602620 0.056870 -0.038863
N21   N     N_R   0.105410 0.397380 0.056870 -0.037752
N22   N     N_R   0.549680 0.896430 0.944180 -0.041219
N23   N     N_R   0.892140 0.602630 0.941800 -0.039874
N24   N     N_R   0.549680 0.103570 0.944180 -0.042374
N25   N     N_R   0.049680 0.396430 0.944180 -0.039034
N26   N     N_R   0.049680 0.603570 0.944180 -0.041118
N27   N     N_3   0.237574 0.900891 0.652500 -0.232677
N28   N     N_3   0.237264 0.097685 0.648657 -0.237292
N29   N     N_3   0.738086 0.401417 0.651414 -0.232011
N30   N     N_3   0.738599 0.598409 0.651085 -0.232788
N31   N     N_R   0.892140 0.397370 0.941800 -0.038993
N32   N     N_R   0.450890 0.896450 0.057150 -0.038622
N33   N     N_R   0.450890 0.103550 0.057150 -0.038970
N34   N     N_R   0.950890 0.396450 0.057150 -0.037537
N35   N     N_R   0.950890 0.603550 0.057150 -0.038432
N36   N     N_R   0.525160 0.027960 0.206160 -0.036549
Ni1   Ni    Ni4+2 0.433410 0.064680 0.868830 0.201112
Ni2   Ni    Ni4+2 0.433410 0.935320 0.868830 0.201617
Ni3   Ni    Ni4+2 0.933410 0.564680 0.868830 0.200084
Ni4   Ni    Ni4+2 0.933410 0.435320 0.868830 0.199041
Ni5   Ni    Ni4+2 0.565650 0.934380 0.131170 0.209283
Ni6   Ni    Ni4+2 0.565650 0.065620 0.131170 0.212123
Ni7   Ni    Ni4+2 0.065650 0.434380 0.131170 0.206206
Ni8   Ni    Ni4+2 0.065650 0.565620 0.131170 0.208258

loop_
_geom_bond_atom_site_label_1
_geom_bond_atom_site_label_2
_ccdc_geom_bond_type
C44   C49   A    
C58   C62   A    
N17   Ni8   S    
N23   Ni3   S    
C31   C85   A    
C22   C29   S    
C99   H59   S    
C68   N20   A    
C94   N9    A    
N34   Ni7   S    
C11   C47   S    
C12   C48   S    
N4    Ni7   S    
N31   Ni4   S    
C43   H25   S    
N1    Ni1   S    
C56   H33   S    
C40   C62   A    
N18   Ni6   S    
C33   H43   S    
C15   C19   S    
C7    C96   A    
C12   C68   A    
C29   C36   S    
C44   H26   S    
C32   C88   A    
N1    N33   A    
C3    C9    A    
C52   H29   S    
H77   N28   S    
C83   N7    A    
H80   N29   S    
C8    C99   A    
C55   H32   S    
C13   H12   S    
N12   N32   A    
C22   H8    S    
C6    C78   S    
C14   C49   S    
C20   H2    S    
C75   H50   S    
C26   C92   S    
C39   H20   S    
C83   C93   A    
C77   N4    A    
C82   C92   A    
C77   H52   S    
C67   C72   A    
C23   C26   S    
C8    C98   A    
C1    H1    S    
C5    N26   A    
C90   N22   A    
C81   C92   A    
N21   Ni7   S    
C96   N11   A    
C37   H18   S    
C98   H58   S    
C17   H73   S    
N16   N17   A    
C6    C94   A    
C13   N12   A    
C13   C86   A    
C16   H56   S    
C76   C91   A    
C5    H70   S    
C74   H49   S    
C40   H21   S    
N14   N15   A    
H75   N27   S    
N35   Ni8   S    
C30   C86   A    
C43   C48   A    
C82   N28   S    
N14   Ni5   S    
C9    C29   S    
N33   Ni6   S    
N10   Ni2   S    
N13   Ni4   S    
H83   N30   S    
C53   C55   A    
C71   H48   S    
C46   N18   A    
C28   C34   S    
C65   C80   A    
N18   N24   A    
C55   C60   A    
C82   N6    A    
C16   C26   S    
C69   H46   S    
C64   C78   A    
C70   C73   A    
C39   C61   A    
C67   H44   S    
C35   H34   S    
C42   C47   A    
C83   N29   S    
C84   N30   S    
C20   H6    S    
C54   C59   A    
C33   N35   A    
C1    C85   A    
C34   H14   S    
C23   H9    S    
N19   N22   A    
C63   C67   A    
C30   H40   S    
C4    H69   S    
C98   N14   A    
C42   H24   S    
N7    N8    A    
C17   C27   S    
C97   N13   A    
C73   C91   S    
C5    C12   A    
C39   C41   A    
C17   H67   S    
N31   N34   A    
C71   C73   A    
C25   H11   S    
N5    Ni2   S    
C15   C26   S    
C47   C51   A    
C20   C28   S    
C76   H51   S    
C34   H15   S    
C79   N21   A    
N2    N36   A    
H79   N28   S    
C24   H23   S    
C17   C21   S    
C4    N25   A    
N16   Ni7   S    
C97   H57   S    
C41   H22   S    
C37   C43   A    
C69   C72   A    
C38   C44   A    
C54   H31   S    
C61   C88   S    
C25   H13   S    
C18   H74   S    
C35   C88   A    
C16   H72   S    
C40   C42   A    
C66   C71   A    
C57   H63   S    
N21   N25   A    
C16   C20   S    
C23   C34   S    
C57   N19   A    
C10   C45   S    
C9    C100  A    
C15   H71   S    
C51   C58   A    
C37   C59   A    
C64   C69   A    
C79   H65   S    
C36   H17   S    
C81   N5    A    
C74   N36   A    
C21   H7    S    
C76   N3    A    
C38   C60   A    
C65   H38   S    
C19   H5    S    
C31   H41   S    
C81   N27   S    
N9    N10   A    
C95   N10   A    
C19   C28   S    
C3    N17   A    
C27   C93   S    
C75   N2    A    
N20   Ni8   S    
C51   H28   S    
N20   N26   A    
C2    C10   A    
C2    H68   S    
C10   C46   A    
N19   Ni5   S    
C74   C89   A    
C15   H45   S    
C72   C89   S    
C23   H10   S    
C77   C91   A    
N26   Ni3   S    
C7    C97   A    
C18   C22   S    
C38   H19   S    
C32   H42   S    
N12   Ni2   S    
C18   C27   S    
C90   H66   S    
N8    Ni3   S    
C53   H30   S    
C100  H60   S    
C19   H84   S    
C24   C87   A    
C60   C85   S    
C70   H47   S    
C1    N1    A    
C58   H35   S    
C25   C27   S    
C66   C80   A    
C62   C87   S    
C24   N23   A    
N23   N35   A    
N32   Ni5   S    
H76   N27   S    
C95   H54   S    
C63   H36   S    
N24   Ni1   S    
C22   H4    S    
N3    N4    A    
C4    C14   A    
N11   Ni3   S    
N3    Ni8   S    
C11   C90   A    
N2    Ni5   S    
C21   C29   S    
C45   C50   A    
N22   Ni2   S    
C94   H53   S    
C49   C53   A    
N36   Ni6   S    
N9    Ni1   S    
C68   H64   S    
C52   C54   A    
C84   N8    A    
C84   C93   A    
C33   C87   A    
N5    N6    A    
C66   H39   S    
N15   Ni6   S    
C50   C56   A    
C59   C86   S    
C14   C79   A    
C100  N16   A    
C3    H61   S    
C25   C36   S    
C30   N32   A    
C21   H3    S    
C48   C52   A    
C2    N24   A    
C96   H55   S    
C18   H78   S    
C8    C28   S    
C6    C95   A    
C46   H62   S    
C75   C89   A    
C99   N15   A    
C64   H37   S    
H82   N30   S    
N25   Ni4   S    
C41   C45   A    
C56   C61   A    
H81   N29   S    
C50   H27   S    
C31   N33   A    
C11   C57   A    
C35   N31   A    
N7    Ni4   S    
N6    Ni1   S    
C32   N34   A    
C65   C70   A    
C7    C80   S    
N11   N13   A    
C63   C78   A    
C36   H16   S    
