data_mof_unit_34789.cif
_audit_creation_date              2012-12-10T17:06:43-0500
_audit_creation_method            fapswitch 2.2
_symmetry_space_group_name_H-M    P1
_symmetry_Int_Tables_number       1
_space_group_crystal_system       triclinic
_cell_length_a                    15.854809
_cell_length_b                    11.109849
_cell_length_c                    9.860773
_cell_angle_alpha                 111.486813
_cell_angle_beta                  98.730013
_cell_angle_gamma                 90.749503
_cell_volume                      1593.02429433

loop_
_atom_site_label
_atom_site_type_symbol
_atom_type_description
_atom_site_fract_x
_atom_site_fract_y
_atom_site_fract_z
_atom_type_partial_charge
C1    C     C_R   0.496226 0.254685 0.440805 0.858063
C2    C     C_R   0.504635 0.745505 0.559182 0.859425
C3    C     C_2   0.514657 0.068683 0.515929 0.375912
C4    C     C_2   0.490578 0.931682 0.484021 0.394310
C5    C     C_2   0.506863 0.509864 0.080945 0.089749
C6    C     C_2   0.493050 0.490276 0.919098 0.089880
C7    C     C_R   0.339860 0.500167 0.500545 0.805335
C8    C     C_R   0.660099 0.498954 0.499247 0.809076
C9    C     C_3   0.979691 0.428164 0.575589 0.548542
C10   C     C_3   0.019945 0.564095 0.421793 0.554254
C11   C     C_3   0.022421 0.373109 0.437135 -0.294351
C12   C     C_3   0.977308 0.619389 0.560184 -0.295377
C13   C     C_1   0.250249 0.500591 0.501495 -0.184014
C14   C     C_1   0.749591 0.496095 0.497649 -0.181847
C15   C     C_3   0.041014 0.552031 0.640503 -0.308863
C16   C     C_3   0.958508 0.440402 0.357021 -0.306640
C17   C     C_3   0.082933 0.498201 0.500572 0.075116
C18   C     C_3   0.916694 0.494388 0.497135 0.070927
C19   C     C_1   0.174666 0.500166 0.501273 -0.007904
C20   C     C_1   0.825066 0.494277 0.497144 -0.012121
C21   C     C_2   0.493885 0.116363 0.408532 -0.462412
C22   C     C_2   0.510315 0.883970 0.591215 -0.431863
Cu1   Cu    Cu3+1 0.514700 0.521810 0.644910 0.944393
Cu2   Cu    Cu3+1 0.485300 0.478190 0.355090 0.943949
H1    H     H_    0.042938 0.273542 0.387521 0.143209
H2    H     H_    0.957520 0.719791 0.607461 0.150235
H3    H     H_    0.922992 0.395717 0.242300 0.148134
H4    H     H_    0.075578 0.595534 0.756086 0.148680
H5    H     H_    0.535489 0.947334 0.704178 0.159242
H6    H     H_    0.470219 0.052787 0.295110 0.154285
H7    H     H_    0.443641 0.418183 0.844140 0.160482
H8    H     H_    0.556207 0.582056 0.155934 0.162266
N1    N     N_2   0.463210 0.445420 0.137360 -0.151084
N2    N     N_2   0.536790 0.554580 0.862640 -0.147711
O1    O     O_R   0.507840 0.332340 0.577400 -0.542850
O2    O     O_R   0.492160 0.667660 0.422600 -0.532679
O3    O     O_R   0.483020 0.295500 0.332650 -0.584584
O4    O     O_R   0.516980 0.704500 0.667350 -0.588220
O5    O     O_R   0.391490 0.518400 0.622350 -0.579526
O6    O     O_R   0.608510 0.481600 0.377650 -0.581088
O7    O     O_R   0.366660 0.481570 0.377600 -0.588760
O8    O     O_R   0.633340 0.518430 0.622400 -0.584609
O9    O     O_3   0.952898 0.356628 0.655939 -0.622044
C23   C     C_3   0.023416 0.304060 0.715555 0.048552
H9    H     H_    0.019071 0.324170 0.833143 0.159430
H10   H     H_    0.087197 0.347772 0.715409 0.130340
C24   C     C_3   0.018774 0.156910 0.632840 -0.345593
H11   H     H_    0.958294 0.112483 0.643536 0.224847
H12   H     H_    0.019126 0.134218 0.513579 0.210050
C25   C     C_3   0.093943 0.096658 0.693854 -0.926157
H13   H     H_    0.155356 0.137010 0.680834 0.257052
H14   H     H_    0.088202 0.990030 0.632243 0.263185
H15   H     H_    0.094157 0.116122 0.812737 0.254998
O10   O     O_3   0.047759 0.637398 0.344258 -0.625598
C26   C     C_3   0.977445 0.669925 0.260724 0.038731
H16   H     H_    0.987083 0.774780 0.281265 0.163246
H17   H     H_    0.914266 0.656201 0.292132 0.131771
C27   C     C_3   0.975350 0.592124 0.095766 -0.345690
H18   H     H_    0.036343 0.613578 0.063569 0.220725
H19   H     H_    0.968937 0.486720 0.073771 0.210451
C28   C     C_3   0.900992 0.625220 0.000851 -0.902234
H20   H     H_    0.839051 0.600923 0.027942 0.251067
H21   H     H_    0.901933 0.568328 0.882186 0.285818
H22   H     H_    0.906581 0.730064 0.019515 0.248916
O11   O     O_3   0.453609 0.851425 0.341295 -0.599626
C29   C     C_3   0.364427 0.865894 0.317139 0.021055
H23   H     H_    0.349046 0.885343 0.213657 0.159716
H24   H     H_    0.342063 0.948249 0.406368 0.119067
C30   C     C_3   0.314760 0.739886 0.296632 -0.279722
H25   H     H_    0.339676 0.656896 0.213172 0.243972
H26   H     H_    0.323848 0.725574 0.403435 0.212962
C31   C     C_3   0.219332 0.742406 0.245450 -0.914245
H27   H     H_    0.191860 0.820943 0.330072 0.270871
H28   H     H_    0.186477 0.647934 0.228423 0.288653
H29   H     H_    0.208120 0.757590 0.139086 0.240938
O12   O     O_3   0.550674 0.147760 0.659992 -0.611533
C32   C     C_3   0.638194 0.182857 0.667926 0.123001
H30   H     H_    0.652969 0.282730 0.752234 0.182122
H31   H     H_    0.653949 0.186442 0.562834 0.119260
C33   C     C_3   0.695643 0.091584 0.716920 -0.412806
H32   H     H_    0.680004 0.088516 0.821791 0.229712
H33   H     H_    0.684336 0.992177 0.630824 0.212741
C34   C     C_3   0.789909 0.136665 0.740698 -0.892638
H34   H     H_    0.806496 0.141107 0.637087 0.267122
H35   H     H_    0.830265 0.067311 0.772759 0.248027
H36   H     H_    0.803759 0.234178 0.830121 0.264113
N3    N     N_3   0.600831 0.646254 0.957544 -0.533621
H37   H     H_    0.587483 0.734532 0.947023 0.246512
H38   H     H_    0.658047 0.619779 0.918111 0.236527
N4    N     N_3   0.399228 0.353661 0.042436 -0.534979
H39   H     H_    0.342015 0.379985 0.081939 0.234619
H40   H     H_    0.412686 0.265384 0.052871 0.247353

loop_
_geom_bond_atom_site_label_1
_geom_bond_atom_site_label_2
_ccdc_geom_bond_type
C29   H24   S    
C26   H16   S    
C1    C21   S    
C22   H5    S    
C28   H22   S    
N3    H37   S    
C15   H4    S    
C24   H12   S    
C32   H30   S    
Cu2   O2    S    
Cu1   O8    S    
C8    O8    A    
C31   H29   S    
C4    O11   S    
C29   C30   S    
C11   H1    S    
C10   C17   S    
C27   H19   S    
C30   H26   S    
C28   H21   S    
Cu2   O6    S    
C24   H11   S    
C5    N1    D    
C2    C22   S    
C25   H14   S    
Cu1   Cu2   S    
C23   C24   S    
C1    O3    A    
C5    H8    S    
C16   H3    S    
C29   H23   S    
Cu2   O7    S    
C28   H20   S    
C33   C34   S    
C23   H10   S    
Cu2   O3    S    
C24   C25   S    
C32   H31   S    
C9    O9    S    
C25   H15   S    
C13   C19   T    
C14   C20   T    
O12   C32   S    
C31   H28   S    
C33   H32   S    
C27   H18   S    
C6    N2    D    
C12   H2    S    
C30   C31   S    
O9    C23   S    
C4    C22   D    
C11   C16   S    
C2    O4    A    
N4    H40   S    
C34   H34   S    
C12   C15   S    
Cu1   N2    S    
C25   H13   S    
C3    O12   S    
C9    C11   S    
C10   C12   S    
C33   H33   S    
C34   H35   S    
Cu1   O1    S    
C26   H17   S    
C3    C21   D    
C3    C4    S    
C23   H9    S    
C1    O1    A    
C32   C33   S    
C2    O2    A    
C15   C17   S    
O10   C26   S    
C11   C17   S    
C8    C14   S    
C31   H27   S    
Cu1   O4    S    
C21   H6    S    
Cu2   N1    S    
N3    H38   S    
C9    C15   S    
C10   C16   S    
N1    N4    S    
N4    H39   S    
C5    C6    S    
C27   C28   S    
Cu1   O5    S    
C17   C19   S    
C6    H7    S    
C18   C20   S    
N2    N3    S    
C7    O7    A    
C30   H25   S    
C10   O10   S    
C9    C18   S    
C7    C13   S    
C34   H36   S    
C16   C18   S    
O11   C29   S    
C26   C27   S    
C12   C18   S    
C7    O5    A    
C8    O6    A    
