data_mof_unit_43735.cif
_audit_creation_date              2012-10-26T21:21:03-0400
_audit_creation_method            fapswitch 2.2
_symmetry_space_group_name_H-M    P1
_symmetry_Int_Tables_number       1
_space_group_crystal_system       triclinic
_cell_length_a                    10.780544
_cell_length_b                    10.916627
_cell_length_c                    9.729052
_cell_angle_alpha                 90.382522
_cell_angle_beta                  87.632525
_cell_angle_gamma                 90.770301
_cell_volume                      1143.88250278

loop_
_atom_site_label
_atom_site_type_symbol
_atom_type_description
_atom_site_fract_x
_atom_site_fract_y
_atom_site_fract_z
_atom_type_partial_charge
Br1   Br    Br    0.236348 0.734543 0.724789 -0.569044
Br2   Br    Br    0.773882 0.753654 0.312417 -0.533338
C1    C     C_R   0.494448 0.265658 0.499846 0.550863
C2    C     C_2   0.477038 0.134379 0.501625 -0.130030
C3    C     C_2   0.422695 0.435154 0.927017 0.301750
C4    C     C_R   0.262462 0.506042 0.503729 0.599959
C5    C     C_2   0.409546 0.455543 0.081127 0.015953
C6    C     C_R   0.503019 0.734909 0.500474 0.625846
C7    C     C_R   0.737569 0.505861 0.496349 0.568539
C8    C     C_R   0.114034 0.729766 0.587977 0.145562
C9    C     C_R   0.055795 0.841349 0.567915 -0.115819
C10   C     C_R   0.948343 0.845665 0.494611 -0.111023
C11   C     C_R   0.889507 0.737396 0.454994 0.161581
C12   C     C_R   0.062459 0.619673 0.533841 -0.017139
C13   C     C_R   0.938872 0.622817 0.491281 0.001300
C14   C     C_3   0.150950 0.219535 0.585311 -0.307949
C15   C     C_3   0.384720 0.220028 0.895549 -0.319134
C16   C     C_3   0.671783 0.629766 0.885046 -0.248934
C17   C     C_3   0.573408 0.924562 0.737986 -0.302384
C18   C     C_R   0.127619 0.507867 0.514499 0.046685
C19   C     C_R   0.062833 0.398310 0.485552 0.104678
C20   C     C_R   0.934208 0.399910 0.480562 -0.141716
C21   C     C_R   0.872002 0.510899 0.485203 0.000249
C22   C     C_2   0.478075 0.932489 0.396639 -0.112655
C23   C     C_2   0.522636 0.867065 0.500482 0.175673
C24   C     C_2   0.491042 0.065720 0.388156 -0.162066
Cu1   Cu    Cu3+1 0.500020 0.500020 0.638630 1.010513
Cu2   Cu    Cu3+1 0.499980 0.499980 0.361370 0.994103
H1    H     H_    0.449619 0.093128 0.599325 0.124193
H2    H     H_    0.204819 0.136283 0.558036 0.138983
H3    H     H_    0.062280 0.191211 0.639052 0.133111
H4    H     H_    0.206189 0.276913 0.655129 0.192181
H5    H     H_    0.253624 0.355738 0.893020 0.228856
H6    H     H_    0.328477 0.154158 0.835955 0.139053
H7    H     H_    0.370786 0.199235 0.006873 0.124722
H8    H     H_    0.484105 0.208206 0.864317 0.161868
H9    H     H_    0.486540 0.681897 0.877271 0.288903
H10   H     H_    0.695661 0.668500 0.782223 0.180453
H11   H     H_    0.723502 0.543633 0.898945 0.154674
H12   H     H_    0.323789 0.426034 0.133671 0.139983
H13   H     H_    0.701090 0.696907 0.963890 0.152425
H14   H     H_    0.667466 0.987990 0.557217 0.261758
H15   H     H_    0.573404 0.021365 0.773182 0.116467
H16   H     H_    0.642172 0.875772 0.797916 0.155190
H17   H     H_    0.479434 0.884643 0.759719 0.188058
H18   H     H_    0.585488 0.503415 0.105895 0.246678
H19   H     H_    0.094849 0.925526 0.608005 0.134575
H20   H     H_    0.910871 0.933597 0.468238 0.137404
H21   H     H_    0.882796 0.314487 0.470100 0.109417
H22   H     H_    0.428173 0.887192 0.315418 0.135196
H23   H     H_    0.507908 0.106943 0.287696 0.152442
H24   H     H_    0.086560 0.230798 0.389069 0.251357
N1    N     N_2   0.498640 0.498660 0.846910 -0.105796
N2    N     N_2   0.498610 0.498630 0.153040 -0.343929
N3    N     N_2   0.126610 0.286243 0.461718 -0.514978
N4    N     N_2   0.346544 0.343630 0.867893 -0.480793
N5    N     N_2   0.539486 0.608063 0.902125 -0.439965
N6    N     N_2   0.609608 0.918218 0.593100 -0.519755
O1    O     O_R   0.500020 0.321960 0.617040 -0.487630
O2    O     O_R   0.499980 0.321920 0.382900 -0.500800
O3    O     O_R   0.319670 0.500020 0.617100 -0.450773
O4    O     O_R   0.319630 0.499980 0.382950 -0.499985
O5    O     O_R   0.500020 0.678080 0.617100 -0.477970
O6    O     O_R   0.499980 0.678040 0.382960 -0.475437
O7    O     O_R   0.680370 0.500020 0.617050 -0.514908
O8    O     O_R   0.680330 0.499980 0.382900 -0.467248

loop_
_geom_bond_atom_site_label_1
_geom_bond_atom_site_label_2
_ccdc_geom_bond_type
C2    C24   D    
C16   H11   S    
Cu1   N1    S    
Cu2   O4    S    
Cu1   O7    S    
C15   H8    S    
C14   H4    S    
C4    C18   S    
C16   N5    S    
Cu2   O8    S    
C2    H1    S    
H24   N3    S    
C10   H20   S    
C5    H12   S    
C1    O2    A    
C4    O4    A    
H5    N4    S    
C13   C21   A    
C16   H10   S    
C14   N3    S    
C17   N6    S    
Cu1   O1    S    
C19   C20   A    
C22   C23   D    
C14   H3    S    
C6    C23   S    
C15   N4    S    
H18   N2    S    
Cu1   O5    S    
C6    O6    A    
C20   H21   S    
Cu2   O6    S    
C4    O3    A    
C3    N1    D    
Cu1   O3    S    
C22   C24   S    
Cu2   O2    S    
C11   C13   A    
C22   H22   S    
C7    O7    A    
C24   H23   S    
C17   H17   S    
C15   H6    S    
C6    O5    A    
C14   H2    S    
C1    C2    S    
C17   H15   S    
C12   C18   A    
C15   H7    S    
C17   H16   S    
C3    C5    S    
C23   N6    S    
C8    C9    A    
C16   H13   S    
Cu1   Cu2   S    
C19   N3    S    
Br2   C11   S    
N1    N5    S    
C12   C13   A    
C7    C21   S    
Cu2   N2    S    
H14   N6    S    
C3    N4    S    
C5    N2    D    
C10   C11   A    
C18   C19   A    
C7    O8    A    
C9    H19   S    
C20   C21   A    
H9    N5    S    
Br1   C8    S    
C9    C10   A    
C8    C12   A    
C1    O1    A    
