data_mof_unit_53455.cif
_audit_creation_date              2013-03-05T15:55:20-0500
_audit_creation_method            fapswitch 2.2
_symmetry_space_group_name_H-M    P1
_symmetry_Int_Tables_number       1
_space_group_crystal_system       triclinic
_cell_length_a                    27.710142
_cell_length_b                    10.606061
_cell_length_c                    9.947451
_cell_angle_alpha                 90.471575
_cell_angle_beta                  89.084495
_cell_angle_gamma                 92.796844
_cell_volume                      2919.57423089

loop_
_atom_site_label
_atom_site_type_symbol
_atom_site_description
_atom_site_fract_x
_atom_site_fract_y
_atom_site_fract_z
_atom_type_partial_charge
O1    O     O_R   0.500000 0.316780 0.614690 -0.589619
O2    O     O_R   0.500000 0.316750 0.385360 -0.652778
C1    C     C_R   0.501467 0.260987 0.499544 0.904064
O3    O     O_R   0.428760 0.500030 0.614650 -0.565095
O4    O     O_R   0.428750 0.500010 0.385320 -0.592151
C2    C     C_R   0.405950 0.501093 0.500706 0.950055
Zn1   Zn    Zn3+2 0.500000 0.500020 0.653130 0.983211
Zn2   Zn    Zn3+2 0.500000 0.499980 0.346870 0.974377
O5    O     O_R   0.500000 0.683250 0.614640 -0.623450
O6    O     O_R   0.500000 0.683220 0.385310 -0.614355
O7    O     O_R   0.571250 0.499990 0.614680 -0.640780
O8    O     O_R   0.571240 0.499970 0.385350 -0.616071
C3    C     C_R   0.501240 0.739367 0.500362 0.859025
C4    C     C_R   0.593864 0.500252 0.499096 0.851975
C5    C     C_R   0.175120 0.395846 0.538276 0.531772
O9    O     O_2   0.198275 0.287004 0.544440 -0.520281
N1    N     N_R   0.201004 0.508578 0.534283 -0.351035
C6    C     C_R   0.179168 0.620948 0.528727 0.553565
C7    C     C_R   0.274434 0.497302 0.398959 -0.131127
C8    C     C_R   0.324471 0.495147 0.387063 0.365408
C9    C     C_R   0.329649 0.516019 0.630872 -0.189488
C10   C     C_R   0.279693 0.518019 0.640853 -0.083675
C11   C     C_R   0.252252 0.508307 0.524977 0.234415
C12   C     C_R   0.101208 0.507744 0.526854 -0.051968
C13   C     C_R   0.124688 0.393101 0.533868 -0.027354
C14   C     C_R   0.097560 0.278633 0.533890 -0.099641
C15   C     C_R   0.128757 0.622724 0.524756 -0.100265
C16   C     C_R   0.352865 0.503879 0.504591 -0.148975
H1    H     H_    0.262257 0.526765 0.738473 0.165607
H2    H     H_    0.114774 0.189454 0.541471 0.209109
C17   C     C_R   0.646563 0.499677 0.497451 -0.102011
C18   C     C_R   0.972897 0.390110 0.492212 0.045212
C19   C     C_R   0.975880 0.619824 0.532428 0.065341
C20   C     C_R   0.949167 0.504498 0.509474 0.080655
C21   C     C_R   0.945217 0.279472 0.457630 -0.200175
C22   C     C_R   0.895312 0.280451 0.447857 -0.110632
C23   C     C_R   0.871388 0.391170 0.474114 -0.031898
C24   C     C_R   0.898196 0.503317 0.506140 -0.053092
C25   C     C_R   0.874008 0.614043 0.536292 -0.031229
C26   C     C_R   0.823588 0.611088 0.531285 0.565760
N2    N     N_R   0.798469 0.501741 0.497541 -0.343452
C27   C     C_R   0.821020 0.392714 0.469687 0.571087
C28   C     C_R   0.721323 0.485697 0.617057 -0.162581
C29   C     C_R   0.671265 0.485389 0.618047 -0.224195
C30   C     C_R   0.672601 0.513785 0.375813 -0.248112
C31   C     C_R   0.722835 0.514385 0.374820 0.448238
C32   C     C_R   0.747102 0.500370 0.495986 0.232146
O10   O     O_2   0.794657 0.286337 0.438739 -0.528711
C33   C     C_R   0.023334 0.390159 0.510962 0.056047
C34   C     C_R   0.050317 0.507205 0.519840 0.036986
C35   C     C_R   0.026897 0.623487 0.519415 -0.047717
C36   C     C_R   0.047742 0.276933 0.522022 -0.184517
H3    H     H_    0.652002 0.473774 0.713076 0.180020
H4    H     H_    0.875515 0.193516 0.420967 0.201456
H5    H     H_    0.961359 0.191333 0.433882 0.174515
H6    H     H_    0.029042 0.185392 0.525410 0.184161
O11   O     O_2   0.206283 0.730165 0.525051 -0.527228
C37   C     C_R   0.105815 0.736011 0.510329 -0.145760
H7    H     H_    0.252411 0.490094 0.309922 0.175369
H8    H     H_    0.126931 0.824096 0.498686 0.225910
C38   C     C_R   0.950639 0.725492 0.575413 -0.130253
C39   C     C_R   0.900509 0.723526 0.574767 -0.127158
O12   O     O_2   0.799732 0.716296 0.559627 -0.534473
C40   C     C_R   0.055749 0.737433 0.503031 0.353608
H9    H     H_    0.654111 0.525266 0.281892 0.191709
H10   H     H_    0.437149 0.105696 0.393434 0.153562
C41   C     C_R   0.583564 0.142758 0.613442 -0.181473
H11   H     H_    0.585637 0.244693 0.612347 0.146061
C42   C     C_R   0.621963 0.082243 0.669324 -0.103524
C43   C     C_R   0.621785 0.951009 0.670153 -0.108636
H12   H     H_    0.651822 0.904155 0.712465 0.161907
C44   C     C_R   0.583201 0.879878 0.615127 -0.191511
C45   C     C_R   0.543706 0.939900 0.559362 0.094363
C46   C     C_R   0.543916 0.072017 0.558340 0.083568
C47   C     C_R   0.504693 0.129054 0.498726 -0.083860
C48   C     C_R   0.467003 0.059769 0.438304 -0.172556
C49   C     C_R   0.466838 0.930998 0.439048 -0.191170
C50   C     C_R   0.504263 0.872119 0.500821 -0.094546
C51   C     C_R   0.450041 0.308062 0.146076 -0.062334
H13   H     H_    0.438389 0.320349 0.247769 0.219766
C52   C     C_R   0.437304 0.193741 0.086208 -0.245011
C53   C     C_R   0.440987 0.182112 0.948640 -0.185680
H14   H     H_    0.425850 0.096049 0.903045 0.199020
C54   C     C_R   0.452010 0.289064 0.870726 0.415294
C55   C     C_R   0.475822 0.400102 0.929634 0.069651
C56   C     C_R   0.475629 0.403638 0.074194 0.140658
N3    N     N_R   0.499540 0.498800 0.142780 -0.113254
C57   C     C_R   0.523159 0.592987 0.070892 -0.085713
C58   C     C_R   0.522896 0.593429 0.928164 -0.098837
N4    N     N_R   0.499520 0.498720 0.857170 -0.112202
H15   H     H_    0.350029 0.524024 0.722795 0.216910
H16   H     H_    0.969070 0.808901 0.616017 0.197345
H17   H     H_    0.882637 0.807813 0.605850 0.196593
Cl1   Cl    Cl    0.754777 0.534268 0.221643 -0.571310
Cl2   Cl    Cl    0.033544 0.880354 0.444901 -0.652896
H18   H     H_    0.652135 0.137383 0.710980 0.156489
H19   H     H_    0.585018 0.778263 0.615216 0.146007
H20   H     H_    0.437026 0.876851 0.393707 0.166833
H21   H     H_    0.542315 0.668985 0.123934 0.148273
H22   H     H_    0.420792 0.117365 0.145117 0.177500
Cl3   Cl    Cl    0.411658 0.284069 0.737186 -0.597120
H23   H     H_    0.541798 0.669734 0.874555 0.145706
H24   H     H_    0.740244 0.474767 0.710362 0.172388
Cl4   Cl    Cl    0.348280 0.480756 0.222461 -0.595764

loop_
_geom_bond_atom_site_label_1
_geom_bond_atom_site_label_2
_geom_bond_distance
_ccdc_geom_bond_type
N3    C57   1.367718 A    
C10   H1    1.083014 S    
C58   H23   1.081895 S    
N2    C27   1.365318 A    
C21   C22   1.388378 A    
C12   C15   1.406913 A    
C4    C17   1.460425 S    
C47   C48   1.389194 A    
C42   H18   1.082627 S    
C52   C53   1.375601 A    
C55   C56   1.438109 A    
Zn1   O7    2.005060 S    
N1    C11   1.421771 S    
C26   O12   1.349977 S    
C22   C23   1.397156 A    
O4    C2    1.301553 A    
O7    C4    1.300584 A    
C5    C13   1.397733 A    
C37   H8    1.083906 S    
C5    O9    1.350091 S    
C5    N1    1.364475 A    
C45   C46   1.401086 A    
C23   C27   1.398017 A    
C33   C34   1.420434 A    
O5    C3    1.286688 A    
C3    C50   1.406349 S    
C54   C55   1.445968 A    
C2    C16   1.472612 S    
C7    C8    1.390961 A    
C45   C50   1.409725 A    
C43   H12   1.082543 S    
C1    C47   1.406428 S    
C38   H16   1.078516 S    
C49   C50   1.390287 A    
O1    Zn1   1.977624 S    
C9    C10   1.387456 A    
C37   C40   1.391209 A    
C54   Cl3   1.748773 S    
C38   C39   1.388346 A    
O3    Zn1   2.016842 S    
C29   H3    1.083073 S    
C34   C35   1.421429 A    
C44   H19   1.081372 S    
C12   C34   1.412777 A    
C17   C29   1.403551 A    
C35   C40   1.425158 A    
C21   H5    1.078681 S    
C41   H11   1.079993 S    
C18   C21   1.413346 A    
C12   C13   1.409495 A    
O3    C2    1.306951 A    
C46   C47   1.410529 A    
C25   C26   1.397639 A    
C51   C52   1.379289 A    
C56   N3    1.364194 A    
C8    C16   1.419495 A    
C7    H7    1.083659 S    
C13   C14   1.396415 A    
C30   C31   1.391559 A    
Zn1   N4    2.029664 S    
O6    C3    1.285952 A    
O1    C1    1.285878 A    
C18   C20   1.415815 A    
C7    C11   1.393856 A    
C28   C29   1.386839 A    
C23   C24   1.408250 A    
C14   C36   1.386596 A    
C6    O11   1.350024 S    
C31   Cl1   1.758868 S    
Zn2   O8    2.016839 S    
C33   C36   1.412611 A    
H10   C48   1.084228 S    
N1    C6    1.364582 A    
N2    C32   1.423098 S    
C49   H20   1.084900 S    
C41   C46   1.415074 A    
C27   O10   1.349962 S    
C48   C49   1.365618 A    
C19   C38   1.409662 A    
C26   N2    1.365441 A    
C9    C16   1.409969 A    
O8    C4    1.302196 A    
C14   H2    1.083602 S    
C53   C54   1.397785 A    
C30   H9    1.083269 S    
C9    H15   1.082954 S    
Zn1   O5    1.983797 S    
C25   C39   1.397340 A    
C31   C32   1.402001 A    
C20   C24   1.412786 A    
O2    Zn2   1.983795 S    
C6    C15   1.399137 A    
C40   Cl2   1.768482 S    
C44   C45   1.415600 A    
C15   C37   1.395971 A    
O4    Zn2   2.005063 S    
C55   N4    1.405383 A    
C8    Cl4   1.763727 S    
C52   H22   1.082581 S    
C19   C35   1.416190 A    
Zn2   N3    2.030351 S    
O2    C1    1.287034 A    
C24   C25   1.408167 A    
C19   C20   1.417261 A    
C42   C43   1.391730 A    
C28   H24   1.083067 S    
C18   C33   1.412947 A    
C57   H21   1.081684 S    
C22   H4    1.083478 S    
C51   H13   1.065842 S    
C57   C58   1.419961 A    
Zn2   O6    1.977624 S    
C53   H14   1.084773 S    
C17   C30   1.404135 A    
C39   H17   1.083410 S    
C10   C11   1.391343 A    
C43   C44   1.394654 A    
C41   C42   1.394469 A    
C58   N4    1.366296 A    
C28   C32   1.396316 A    
C51   C56   1.402559 A    
C36   H6    1.078507 S    
