data_mof_unit_65786.cif
_audit_creation_date              2012-12-10T20:05:42-0500
_audit_creation_method            fapswitch 2.2
_symmetry_space_group_name_H-M    P1
_symmetry_Int_Tables_number       1
_space_group_crystal_system       triclinic
_cell_length_a                    12.781683
_cell_length_b                    19.249459
_cell_length_c                    18.523359
_cell_angle_alpha                 89.9409
_cell_angle_beta                  97.703838
_cell_angle_gamma                 91.663008
_cell_volume                      4514.44017596

loop_
_atom_site_label
_atom_site_type_symbol
_atom_type_description
_atom_site_fract_x
_atom_site_fract_y
_atom_site_fract_z
_atom_type_partial_charge
C1    C     C_R   0.501912 0.365862 0.500163 0.957047
C2    C     C_R   0.505208 0.290836 0.500390 -0.128238
C3    C     C_R   0.566038 0.963902 0.553436 0.329021
C4    C     C_R   0.433968 0.036099 0.446564 0.329022
C5    C     C_R   0.568438 0.036317 0.553971 0.331030
C6    C     C_R   0.431568 0.963683 0.446029 0.331029
C7    C     C_R   0.502384 0.071926 0.500538 -0.263533
C8    C     C_R   0.497622 0.928075 0.499462 -0.263532
C9    C     C_R   0.568286 0.543951 0.732271 0.401507
C10   C     C_R   0.431715 0.456048 0.267730 0.401507
C11   C     C_R   0.570319 0.545313 0.808747 0.260593
C12   C     C_R   0.498088 0.634138 0.499837 0.957047
C13   C     C_R   0.429683 0.454685 0.191253 0.260592
C14   C     C_R   0.501297 0.501328 0.842048 -0.101798
C15   C     C_R   0.498703 0.498671 0.157952 -0.101796
C16   C     C_R   0.298387 0.501767 0.485335 1.040464
C17   C     C_R   0.701613 0.498233 0.514665 1.040463
C18   C     C_R   0.431891 0.456115 0.798042 0.318163
C19   C     C_R   0.568105 0.543887 0.201957 0.318162
C20   C     C_R   0.432776 0.456062 0.721090 0.335960
C21   C     C_R   0.567222 0.543940 0.278909 0.335960
C22   C     C_R   0.546486 0.446753 0.965473 -0.184387
C23   C     C_R   0.495479 0.852959 0.498826 0.148248
C24   C     C_R   0.453514 0.553247 0.034527 -0.184393
C25   C     C_R   0.546016 0.444971 0.041418 0.440981
C26   C     C_R   0.453984 0.555028 0.958582 0.440979
C27   C     C_R   0.498873 0.498365 0.076820 0.085206
C28   C     C_R   0.501127 0.501634 0.923180 0.085205
C29   C     C_R   0.813491 0.492531 0.524595 -0.250600
C30   C     C_R   0.186509 0.507470 0.475405 -0.250599
C31   C     C_R   0.031688 0.573270 0.438327 0.407362
C32   C     C_R   0.968313 0.426731 0.561675 0.407353
C33   C     C_R   0.139376 0.564534 0.438941 0.261601
C34   C     C_R   0.504527 0.147041 0.501175 0.148248
C35   C     C_R   0.860625 0.435466 0.561060 0.261606
C36   C     C_R   0.128211 0.456620 0.506687 0.451570
C37   C     C_R   0.871789 0.543380 0.493313 0.451571
C38   C     C_R   0.024265 0.470057 0.517068 -0.214980
C39   C     C_R   0.975735 0.529944 0.482933 -0.214975
C40   C     C_R   0.556165 0.746272 0.454620 -0.168896
C41   C     C_R   0.443836 0.253727 0.545379 -0.168891
C42   C     C_R   0.556729 0.818179 0.454361 -0.043334
C43   C     C_R   0.443273 0.181820 0.545637 -0.043333
C44   C     C_R   0.432715 0.816585 0.543039 -0.075188
C45   C     C_R   0.567292 0.183416 0.456962 -0.075187
C46   C     C_R   0.431710 0.744465 0.543688 0.399482
C47   C     C_R   0.568295 0.255536 0.456313 0.399481
C48   C     C_R   0.494793 0.709164 0.499610 -0.128237
Cl1   Cl    Cl    0.655900 0.599308 0.692161 -0.395330
Cl2   Cl    Cl    0.215415 0.626003 0.395307 -0.440549
Cl3   Cl    Cl    0.969301 0.634375 0.376245 -0.361866
Cl4   Cl    Cl    0.030701 0.365628 0.623760 -0.361876
Cl5   Cl    Cl    0.346929 0.700801 0.597523 -0.471957
Cl6   Cl    Cl    0.653078 0.299201 0.402481 -0.471957
Cl7   Cl    Cl    0.649245 0.918010 0.619946 -0.387997
Cl8   Cl    Cl    0.350762 0.081990 0.380054 -0.387997
Cl9   Cl    Cl    0.654663 0.082493 0.621126 -0.385351
Cl10  Cl    Cl    0.345343 0.917507 0.378874 -0.385354
Cl11  Cl    Cl    0.344102 0.400691 0.307840 -0.395329
Cl12  Cl    Cl    0.660942 0.601185 0.862891 -0.360138
Cl13  Cl    Cl    0.339063 0.398811 0.137109 -0.360137
Cl14  Cl    Cl    0.347933 0.398512 0.665610 -0.474338
Cl15  Cl    Cl    0.652069 0.601487 0.334390 -0.474340
Cl16  Cl    Cl    0.607226 0.375739 0.091000 -0.406295
Cl17  Cl    Cl    0.392775 0.624260 0.909000 -0.406304
Cl18  Cl    Cl    0.784585 0.373998 0.604694 -0.440545
H1    H     H_    0.582901 0.405248 0.939262 0.216786
H2    H     H_    0.121773 0.356869 0.505236 0.377467
H3    H     H_    0.317010 0.385931 0.796365 0.409600
H4    H     H_    0.682952 0.614096 0.203631 0.409596
H5    H     H_    0.417099 0.594751 0.060738 0.216784
H6    H     H_    0.605139 0.719691 0.420791 0.232695
H7    H     H_    0.394859 0.280308 0.579206 0.232696
H8    H     H_    0.605203 0.846788 0.420127 0.186965
H9    H     H_    0.394798 0.153211 0.579871 0.186965
H10   H     H_    0.384636 0.844409 0.576663 0.196013
H11   H     H_    0.615373 0.155593 0.423340 0.196012
H12   H     H_    0.878224 0.643131 0.494768 0.377467
N1    N     N_R   0.500010 0.499980 0.689440 -0.195764
N2    N     N_R   0.499990 0.500020 0.310560 -0.195764
O1    O     O_R   0.500000 0.398180 0.560840 -0.578356
O2    O     O_3   0.174479 0.393756 0.523448 -0.667423
O3    O     O_3   0.364828 0.413509 0.832390 -0.667518
O4    O     O_3   0.635164 0.586495 0.167609 -0.667519
O5    O     O_R   0.500000 0.601820 0.439160 -0.578360
O6    O     O_R   0.499960 0.398180 0.439210 -0.562377
O7    O     O_R   0.500040 0.601820 0.560790 -0.562379
O8    O     O_R   0.346380 0.499990 0.550760 -0.554762
O9    O     O_R   0.653620 0.500010 0.449240 -0.554756
O10   O     O_R   0.346330 0.499980 0.429130 -0.576172
O11   O     O_R   0.653670 0.500020 0.570870 -0.576173
O12   O     O_3   0.825521 0.606244 0.476552 -0.667424
Zn1   Zn    Zn3+2 0.500030 0.500000 0.581210 1.129399
Zn2   Zn    Zn3+2 0.499970 0.500000 0.418790 1.129399

loop_
_geom_bond_atom_site_label_1
_geom_bond_atom_site_label_2
_ccdc_geom_bond_type
C16   O10   A    
C17   C29   S    
C6    Cl10  S    
C17   O11   A    
C24   C27   A    
C12   C48   S    
C15   C19   A    
C23   C42   A    
C12   O5    A    
C19   C21   A    
C24   C26   A    
N1    Zn1   S    
C37   O12   S    
C38   C39   A    
C11   C14   A    
C2    C41   A    
C1    O1    A    
C8    C23   S    
C46   Cl5   S    
C1    C2    S    
C9    N1    A    
O9    Zn2   S    
C44   H10   S    
C14   C18   A    
C32   Cl4   S    
O6    Zn2   S    
C3    Cl7   S    
C36   O2    S    
C22   C25   A    
C31   C33   A    
C32   C38   A    
H4    O4    S    
C12   O7    A    
C40   C42   A    
C22   C28   A    
C4    Cl8   S    
C41   C43   A    
C4    C7    A    
C44   C46   A    
O10   Zn2   S    
C45   C47   A    
C43   H9    S    
C46   C48   A    
C42   H8    S    
C32   C35   A    
C9    Cl1   S    
C4    C6    A    
C3    C8    A    
C5    C7    A    
C10   N2    A    
C6    C8    A    
C35   Cl18  S    
H12   O12   S    
C33   Cl2   S    
C23   C44   A    
C25   Cl16  S    
H3    O3    S    
O11   Zn1   S    
O1    Zn1   S    
O5    Zn2   S    
C15   C27   S    
C18   O3    S    
C17   O9    A    
C34   C45   A    
C9    C11   A    
C47   Cl6   S    
C13   C15   A    
C7    C34   S    
N2    Zn2   S    
C19   O4    S    
C20   N1    A    
C1    O6    A    
C40   C48   A    
O8    Zn1   S    
C40   H6    S    
C30   C33   A    
C26   Cl17  S    
C34   C43   A    
C31   Cl3   S    
C3    C5    A    
C10   C13   A    
C30   C36   A    
C2    C47   A    
C25   C27   A    
C29   C35   A    
C26   C28   A    
C5    Cl9   S    
H2    O2    S    
C36   C38   A    
C10   Cl11  S    
C37   C39   A    
O7    Zn1   S    
C21   N2    A    
C31   C39   A    
C18   C20   A    
C20   Cl14  S    
C22   H1    S    
C21   Cl15  S    
C41   H7    S    
C13   Cl13  S    
C29   C37   A    
C16   O8    A    
C45   H11   S    
C14   C28   S    
C16   C30   S    
C11   Cl12  S    
C24   H5    S    
