data_mof_unit_20863.cif
_audit_creation_date              2012-12-10T20:21:44-0500
_audit_creation_method            fapswitch 2.2
_symmetry_space_group_name_H-M    P1
_symmetry_Int_Tables_number       1
_space_group_crystal_system       triclinic
_cell_length_a                    18.881144
_cell_length_b                    18.482038
_cell_length_c                    8.894868
_cell_angle_alpha                 90.070169
_cell_angle_beta                  90.207775
_cell_angle_gamma                 90.494021
_cell_volume                      3103.83287607

loop_
_atom_site_label
_atom_site_type_symbol
_atom_type_description
_atom_site_fract_x
_atom_site_fract_y
_atom_site_fract_z
_atom_type_partial_charge
C1    C     C_R   0.365006 0.499628 0.495472 0.965650
C2    C     C_R   0.489089 0.197583 0.633036 -0.228501
C3    C     C_R   0.500150 0.841477 0.499540 0.262917
C4    C     C_R   0.500046 0.158508 0.499691 0.246148
C5    C     C_R   0.455619 0.961254 0.400462 0.367696
C6    C     C_R   0.546621 0.038725 0.594445 0.361194
C7    C     C_R   0.544752 0.962163 0.598418 0.368222
C8    C     C_R   0.453669 0.037780 0.404550 0.360852
C9    C     C_R   0.500114 0.077250 0.499553 -0.271621
C10   C     C_R   0.500200 0.922727 0.499424 -0.277193
C11   C     C_R   0.500530 0.499986 0.218484 0.987608
C12   C     C_R   0.634793 0.500332 0.498339 0.997448
C13   C     C_R   0.500298 0.500033 0.781540 0.945314
C14   C     C_1   0.500979 0.500013 0.065387 -0.190255
C15   C     C_1   0.500832 0.500072 0.934654 -0.199976
C16   C     C_R   0.759514 0.476789 0.564751 0.427310
C17   C     C_R   0.243233 0.545937 0.530012 0.431057
C18   C     C_R   0.266659 0.454457 0.337126 0.438641
C19   C     C_R   0.729212 0.524991 0.316800 0.437715
C20   C     C_R   0.830391 0.474179 0.522053 -0.194668
C21   C     C_R   0.171510 0.544472 0.487557 -0.245987
C22   C     C_R   0.195418 0.454562 0.296018 -0.223884
C23   C     C_R   0.561676 0.726745 0.476932 -0.019635
C24   C     C_R   0.800231 0.520288 0.274612 -0.236740
C25   C     C_R   0.850645 0.496014 0.377484 0.137496
C26   C     C_R   0.148121 0.499361 0.370599 0.093880
C27   C     C_R   0.709151 0.501241 0.460924 -0.260444
C28   C     C_R   0.289973 0.498576 0.457515 -0.262263
C29   C     C_R   0.961499 0.558904 0.302335 0.393589
C30   C     C_R   0.035886 0.429805 0.355607 0.378479
C31   C     C_R   0.035741 0.559331 0.297279 0.379785
C32   C     C_R   0.962075 0.428554 0.348097 0.347012
C33   C     C_R   0.072642 0.495582 0.334148 -0.252117
C34   C     C_R   0.510961 0.273765 0.369140 0.015418
C35   C     C_R   0.925379 0.494095 0.336223 -0.261223
C36   C     C_3   0.750146 0.506418 0.811172 -0.333830
C37   C     C_3   0.242786 0.658493 0.644772 -0.310516
C38   C     C_3   0.324936 0.434648 0.117206 -0.296289
C39   C     C_3   0.689791 0.616298 0.164880 -0.306666
C40   C     C_3   0.921132 0.648093 0.146701 -0.267412
C41   C     C_3   0.074878 0.356505 0.542730 -0.227197
C42   C     C_3   0.104802 0.623912 0.135248 -0.317402
C43   C     C_3   0.905472 0.335790 0.231554 -0.232518
C44   C     C_3   0.445938 0.916391 0.164295 -0.268185
C45   C     C_R   0.438408 0.725875 0.522753 -0.017522
C46   C     C_3   0.657393 0.085666 0.614329 -0.229428
C47   C     C_3   0.554505 0.917821 0.834638 -0.270093
C48   C     C_3   0.342888 0.082741 0.384706 -0.225743
C49   C     C_R   0.488986 0.273597 0.630685 -0.000545
C50   C     C_R   0.562930 0.802772 0.476753 -0.236495
C51   C     C_R   0.510925 0.197750 0.366484 -0.230616
C52   C     C_R   0.437301 0.801861 0.522509 -0.239543
H1    H     H_    0.869610 0.454907 0.601399 0.164657
H2    H     H_    0.520080 0.169787 0.261369 0.163198
H3    H     H_    0.387802 0.829512 0.541623 0.156358
H4    H     H_    0.479933 0.169477 0.738031 0.163192
H5    H     H_    0.807425 0.520165 0.822574 0.147269
H6    H     H_    0.719166 0.555651 0.783234 0.155619
H7    H     H_    0.731593 0.486659 0.922089 0.226998
H8    H     H_    0.243925 0.681048 0.528626 0.167849
H9    H     H_    0.188742 0.661672 0.693019 0.166312
H10   H     H_    0.277832 0.693167 0.715281 0.179468
H11   H     H_    0.368467 0.403100 0.066351 0.194588
H12   H     H_    0.133220 0.576436 0.548110 0.170832
H13   H     H_    0.277221 0.426529 0.045402 0.159364
H14   H     H_    0.341473 0.492665 0.116924 0.142006
H15   H     H_    0.700798 0.653835 0.260441 0.158160
H16   H     H_    0.641267 0.635657 0.107493 0.195057
H17   H     H_    0.733557 0.618584 0.081864 0.146229
H18   H     H_    0.917882 0.603659 0.061837 0.106040
H19   H     H_    0.967055 0.683981 0.122509 0.205660
H20   H     H_    0.872629 0.680975 0.133564 0.168595
H21   H     H_    0.021069 0.348433 0.590724 0.182296
H22   H     H_    0.102268 0.402476 0.600055 0.138717
H23   H     H_    0.176747 0.419134 0.206916 0.182209
H24   H     H_    0.105724 0.306989 0.566486 0.181670
H25   H     H_    0.068488 0.605583 0.043497 0.133350
H26   H     H_    0.152987 0.589947 0.137025 0.176578
H27   H     H_    0.121933 0.679942 0.108223 0.189808
H28   H     H_    0.952365 0.324730 0.159764 0.162874
H29   H     H_    0.868206 0.372480 0.172270 0.150172
H30   H     H_    0.877387 0.283618 0.250054 0.185951
H31   H     H_    0.495992 0.885498 0.176719 0.139545
H32   H     H_    0.456731 0.969949 0.111717 0.177738
H33   H     H_    0.410897 0.885434 0.086729 0.179496
H34   H     H_    0.815944 0.533897 0.161216 0.144863
H35   H     H_    0.650792 0.118284 0.510139 0.146110
H36   H     H_    0.682404 0.032885 0.587630 0.176275
H37   H     H_    0.694078 0.115871 0.689728 0.186201
H38   H     H_    0.504405 0.886098 0.822338 0.140419
H39   H     H_    0.543805 0.971273 0.887209 0.178519
H40   H     H_    0.589543 0.887536 0.912147 0.178018
H41   H     H_    0.349497 0.115626 0.488854 0.145859
H42   H     H_    0.317888 0.029555 0.411481 0.174885
H43   H     H_    0.306190 0.112193 0.309300 0.187980
H44   H     H_    0.610295 0.697723 0.458379 0.134802
H45   H     H_    0.519936 0.303168 0.265932 0.141010
H46   H     H_    0.389739 0.696209 0.541386 0.154686
H47   H     H_    0.479929 0.302855 0.733992 0.138118
H48   H     H_    0.612472 0.831160 0.457477 0.157926
N1    N     N_R   0.500000 0.689440 0.500000 -0.086982
N2    N     N_R   0.500000 0.310560 0.500000 -0.087479
O1    O     O_R   0.398180 0.560840 0.499960 -0.615447
O2    O     O_3   0.268022 0.586855 0.650945 -0.608487
O3    O     O_3   0.313397 0.408955 0.264478 -0.576156
O4    O     O_3   0.677543 0.544689 0.213777 -0.613872
O5    O     O_3   0.924410 0.623199 0.296585 -0.563276
O6    O     O_3   0.072079 0.366594 0.385602 -0.573373
O7    O     O_3   0.071231 0.624459 0.276916 -0.568038
O8    O     O_3   0.926052 0.364195 0.372321 -0.576777
O9    O     O_3   0.411079 0.924084 0.303186 -0.576661
O10   O     O_3   0.592373 0.075821 0.689270 -0.584133
O11   O     O_3   0.589310 0.925898 0.695667 -0.576745
O12   O     O_R   0.601820 0.439160 0.500040 -0.591808
O13   O     O_3   0.407897 0.073940 0.309732 -0.583760
O14   O     O_R   0.601820 0.560840 0.500040 -0.631572
O15   O     O_R   0.398180 0.439160 0.499960 -0.579246
O16   O     O_R   0.500000 0.560800 0.285330 -0.611090
O17   O     O_R   0.500000 0.439200 0.714670 -0.634805
O18   O     O_R   0.500000 0.560800 0.714670 -0.611551
O19   O     O_R   0.500000 0.439200 0.285330 -0.624739
O20   O     O_3   0.738851 0.451219 0.704001 -0.590264
Zn1   Zn    Zn3+2 0.500000 0.581210 0.500000 0.963250
Zn2   Zn    Zn3+2 0.500000 0.418790 0.500000 0.990561

loop_
_geom_bond_atom_site_label_1
_geom_bond_atom_site_label_2
_ccdc_geom_bond_type
C39   O4    S    
C30   C32   A    
C21   C26   A    
C48   H43   S    
C46   O10   S    
C7    C10   A    
C39   H16   S    
C36   O20   S    
C36   H7    S    
O1    Zn1   S    
C6    C9    A    
C37   H10   S    
C46   H37   S    
O17   Zn2   S    
C34   C51   A    
N1    Zn1   S    
C40   H18   S    
C40   H19   S    
C42   O7    S    
C38   H11   S    
C36   H6    S    
C45   H46   S    
C11   C14   S    
C20   C25   A    
C34   H45   S    
C23   H44   S    
C47   H40   S    
C41   O6    S    
C32   O8    S    
C16   O20   S    
O19   Zn2   S    
C8    O13   S    
C41   H22   S    
C38   H14   S    
C8    C9    A    
C21   H12   S    
C1    C28   S    
C31   C33   A    
C43   O8    S    
C19   C27   A    
C1    O1    A    
C12   O12   A    
O18   Zn1   S    
O12   Zn2   S    
C44   H31   S    
C16   C27   A    
C42   H27   S    
C11   O19   A    
C39   H15   S    
C22   H23   S    
N2    Zn2   S    
C13   O17   A    
C3    C50   A    
C46   H36   S    
C31   O7    S    
C48   H41   S    
C12   C27   S    
C32   C35   A    
C18   C28   A    
C24   C25   A    
C36   H5    S    
C49   N2    A    
C45   N1    A    
C23   C50   A    
C1    O15   A    
C4    C51   A    
C45   C52   A    
C43   H28   S    
C17   C21   A    
O14   Zn1   S    
C2    C4    A    
C19   O4    S    
C2    C49   A    
C49   H47   S    
C26   C33   S    
C38   H13   S    
C16   C20   A    
C39   H17   S    
C34   N2    A    
C48   H42   S    
C25   C35   S    
C48   O13   S    
C42   H26   S    
C40   O5    S    
C43   H29   S    
C47   H38   S    
C5    C8    A    
C44   H33   S    
C13   O18   A    
C46   H35   S    
C47   O11   S    
C40   H20   S    
C30   C33   A    
C30   O6    S    
C18   C22   A    
C17   C28   A    
C47   H39   S    
O15   Zn2   S    
C20   H1    S    
C44   H32   S    
C37   O2    S    
C37   H9    S    
C3    C52   A    
C52   H3    S    
C6    C7    A    
C5    O9    S    
C29   C35   A    
C50   H48   S    
C51   H2    S    
C7    O11   S    
C38   O3    S    
C13   C15   S    
C19   C24   A    
C18   O3    S    
C5    C10   A    
C29   C31   A    
C3    C10   S    
C2    H4    S    
C41   H24   S    
C17   O2    S    
C23   N1    A    
O16   Zn1   S    
C37   H8    S    
C41   H21   S    
C44   O9    S    
C42   H25   S    
C22   C26   A    
C43   H30   S    
C14   C15   T    
C29   O5    S    
C6    O10   S    
C4    C9    S    
C11   O16   A    
C24   H34   S    
C12   O14   A    
