data_mof_unit_57214.cif
_audit_creation_date              2012-12-10T17:00:04-0500
_audit_creation_method            fapswitch 2.2
_symmetry_space_group_name_H-M    P1
_symmetry_Int_Tables_number       1
_space_group_crystal_system       triclinic
_cell_length_a                    23.492133
_cell_length_b                    10.927172
_cell_length_c                    9.727441
_cell_angle_alpha                 90.93254
_cell_angle_beta                  90.600986
_cell_angle_gamma                 90.777244
_cell_volume                      2496.3554831

loop_
_atom_site_label
_atom_site_type_symbol
_atom_type_description
_atom_site_fract_x
_atom_site_fract_y
_atom_site_fract_z
_atom_type_partial_charge
C1    C     C_R   0.501215 0.265560 0.498724 0.784051
C2    C     C_R   0.968120 0.290424 0.388074 -0.244405
C3    C     C_R   0.027715 0.290113 0.382771 0.496818
C4    C     C_R   0.059595 0.389303 0.441236 -0.137051
C5    C     C_R   0.030559 0.490016 0.498951 -0.080799
C6    C     C_R   0.061460 0.590721 0.555427 -0.002785
C7    C     C_R   0.032251 0.690575 0.611997 -0.149466
C8    C     C_R   0.972957 0.690858 0.612913 -0.156223
C9    C     C_R   0.119656 0.392127 0.443321 0.619532
C10   C     C_R   0.121028 0.589139 0.553802 0.597758
C11   C     C_R   0.238797 0.550366 0.391598 0.495354
C12   C     C_R   0.391145 0.499226 0.499471 0.856827
C13   C     C_R   0.298421 0.553984 0.393558 -0.337998
C14   C     C_R   0.328800 0.496790 0.498619 -0.169080
C15   C     C_R   0.299379 0.437038 0.603288 -0.301037
C16   C     C_R   0.239725 0.435742 0.604581 0.482607
C17   C     C_R   0.209611 0.492064 0.498019 0.173970
C18   C     C_R   0.761213 0.502960 0.379976 -0.181182
C19   C     C_R   0.701945 0.505072 0.378672 -0.206489
C20   C     C_R   0.671691 0.496997 0.502065 -0.112381
C21   C     C_R   0.701802 0.485681 0.626716 -0.311745
C22   C     C_R   0.761340 0.480816 0.628083 0.545857
C23   C     C_R   0.497807 0.734255 0.501255 0.838672
C24   C     C_R   0.791150 0.491767 0.504210 0.258349
C25   C     C_2   0.489477 0.931482 0.392792 -0.232854
C26   C     C_2   0.489400 0.864888 0.506449 -0.302591
C27   C     C_2   0.479553 0.064435 0.400547 0.401044
C28   C     C_2   0.509034 0.133375 0.494641 0.228265
C29   C     C_2   0.467480 0.425865 0.918719 0.544634
C30   C     C_2   0.467613 0.425679 0.077046 0.470328
C31   C     C_R   0.609030 0.499519 0.500610 0.792153
C32   C     C_R   0.881888 0.589655 0.557534 0.598485
C33   C     C_R   0.879524 0.392079 0.448736 0.551372
C34   C     C_R   0.939221 0.390087 0.445326 -0.083863
C35   C     C_R   0.970447 0.490404 0.500455 -0.016470
C36   C     C_R   0.941604 0.591153 0.557587 -0.015392
Cu1   Cu    Cu3+1 0.500010 0.500020 0.638630 1.000639
Cu2   Cu    Cu3+1 0.499990 0.499980 0.361370 0.990609
H1    H     H_    0.951811 0.769359 0.657319 0.189206
N1    N     N_R   0.852215 0.490943 0.504010 -0.452575
N2    N     N_R   0.148615 0.491005 0.498482 -0.434159
N3    N     N_2   0.499380 0.498660 0.846910 -0.042945
N4    N     N_2   0.499370 0.498630 0.153040 -0.318827
O1    O     O_R   0.500010 0.321960 0.617040 -0.559511
O2    O     O_2   0.848951 0.295899 0.397759 -0.548396
O3    O     O_2   0.149170 0.297444 0.391060 -0.489822
O4    O     O_2   0.151307 0.684731 0.607245 -0.538104
O5    O     O_R   0.499990 0.321920 0.382900 -0.503907
O6    O     O_R   0.417890 0.499980 0.617100 -0.551087
O7    O     O_R   0.417870 0.499940 0.382950 -0.561556
O8    O     O_R   0.500010 0.678080 0.617100 -0.603499
O9    O     O_R   0.499990 0.678040 0.382960 -0.591026
O10   O     O_R   0.582130 0.500060 0.617050 -0.566636
O11   O     O_R   0.582110 0.500020 0.382900 -0.577392
O12   O     O_2   0.853638 0.686314 0.609617 -0.517788
H2    H     H_    0.944674 0.212014 0.346305 0.202055
H3    H     H_    0.679893 0.513902 0.281087 0.181892
H4    H     H_    0.679389 0.479760 0.723192 0.189883
O13   O     O_3   0.790664 0.471919 0.751242 -0.560398
C37   C     C_3   0.792074 0.347618 0.787406 -0.305283
H5    H     H_    0.813708 0.291466 0.707483 0.179361
H6    H     H_    0.748515 0.310584 0.806128 0.156644
H7    H     H_    0.816884 0.339804 0.884449 0.203487
H8    H     H_    0.494629 0.888652 0.292216 0.164123
H9    H     H_    0.480687 0.906609 0.606070 0.180730
O14   O     O_3   0.444973 0.122204 0.304248 -0.554422
C38   C     C_3   0.399468 0.046024 0.257964 -0.273361
H10   H     H_    0.377044 0.002048 0.344976 0.159918
H11   H     H_    0.414537 0.976226 0.182956 0.149252
H12   H     H_    0.368032 0.103147 0.203579 0.195301
O15   O     O_3   0.545749 0.078980 0.588402 -0.612689
C39   C     C_3   0.599513 0.138476 0.589979 -0.310469
H13   H     H_    0.598408 0.225016 0.651324 0.181786
H14   H     H_    0.615196 0.156077 0.484295 0.153680
H15   H     H_    0.630672 0.078008 0.640525 0.198151
O16   O     O_3   0.428347 0.352126 0.847762 -0.601232
C40   C     C_3   0.443557 0.227959 0.860546 -0.258462
H16   H     H_    0.490451 0.213648 0.857044 0.179262
H17   H     H_    0.424286 0.175284 0.772958 0.176168
H18   H     H_    0.426102 0.188491 0.955795 0.188433
O17   O     O_3   0.550737 0.525480 0.903771 -0.554203
C41   C     C_3   0.562150 0.650846 0.883084 -0.161270
H19   H     H_    0.523289 0.707910 0.890713 0.125151
H20   H     H_    0.583693 0.665649 0.784089 0.203647
H21   H     H_    0.592060 0.683852 0.964996 0.132726
O18   O     O_3   0.432226 0.344128 0.143808 -0.509416
C42   C     C_3   0.374934 0.380071 0.127681 -0.259557
H22   H     H_    0.355843 0.340037 0.032152 0.167947
H23   H     H_    0.369635 0.481345 0.128875 0.122655
H24   H     H_    0.350098 0.343431 0.214599 0.192626
O19   O     O_3   0.054371 0.189035 0.327077 -0.526066
C43   C     C_3   0.052707 0.197339 0.182532 -0.219438
H25   H     H_    0.076870 0.119954 0.138088 0.202502
H26   H     H_    0.073309 0.283651 0.147501 0.150025
H27   H     H_    0.008308 0.189770 0.142053 0.139394
H28   H     H_    0.516795 0.575227 0.110668 0.191836
H29   H     H_    0.055104 0.768922 0.655759 0.191578
O20   O     O_3   0.208438 0.611249 0.291929 -0.543754
C44   C     C_3   0.212053 0.545429 0.166593 -0.337010
H30   H     H_    0.197349 0.448735 0.177271 0.173543
H31   H     H_    0.256003 0.548791 0.125325 0.145464
H32   H     H_    0.183653 0.588751 0.090267 0.198703
H33   H     H_    0.320872 0.603090 0.314422 0.168716
H34   H     H_    0.322667 0.389776 0.682637 0.201757
O21   O     O_3   0.210130 0.371847 0.703179 -0.545553
C45   C     C_3   0.216849 0.432748 0.831291 -0.323283
H35   H     H_    0.204944 0.530879 0.825270 0.179114
H36   H     H_    0.260986 0.424249 0.872034 0.152141
H37   H     H_    0.187886 0.388862 0.905745 0.188232
H38   H     H_    0.784045 0.510636 0.284294 0.170493

loop_
_geom_bond_atom_site_label_1
_geom_bond_atom_site_label_2
_ccdc_geom_bond_type
C42   H22   S    
C29   N3    D    
C33   O2    S    
C19   C20   A    
C12   O6    A    
C7    C8    A    
C29   O16   S    
C40   H16   S    
C19   H3    S    
Cu1   Cu2   S    
C37   H7    S    
C18   C24   A    
C32   C36   A    
C3    O19   S    
C18   C19   A    
C5    C6    A    
Cu1   O8    S    
Cu2   O9    S    
C45   H35   S    
C15   C16   A    
C37   H6    S    
C34   C35   A    
C8    C36   A    
C23   C26   S    
Cu1   N3    S    
C35   C36   A    
C16   C17   A    
C1    C28   S    
C8    H1    S    
C15   H34   S    
C13   H33   S    
C32   O12   S    
Cu2   O5    S    
Cu1   O10   S    
C2    C34   A    
O14   C38   S    
O13   C37   S    
C21   C22   A    
C10   N2    A    
N3    O17   S    
C39   H15   S    
O17   C41   S    
C40   H17   S    
C33   N1    A    
C38   H10   S    
O16   C40   S    
C39   H14   S    
C22   O13   S    
O18   C42   S    
C4    C5    A    
C25   C26   D    
C43   H27   S    
Cu2   N4    S    
C37   H5    S    
C38   H11   S    
C25   H8    S    
C29   C30   S    
Cu1   O6    S    
C1    O1    A    
C23   O8    A    
C44   H30   S    
Cu2   O11   S    
C43   H26   S    
N4    H28   S    
C31   O10   A    
C16   O21   S    
C44   H31   S    
C12   C14   S    
O20   C44   S    
C41   H20   S    
C11   O20   S    
C22   C24   A    
C30   N4    D    
C28   O15   S    
C30   O18   S    
C3    C4    A    
O19   C43   S    
C40   H18   S    
C11   C17   A    
C7    H29   S    
C26   H9    S    
C18   H38   S    
C39   H13   S    
C6    C10   A    
C12   O7    A    
C1    O5    A    
C6    C7    A    
Cu2   O7    S    
C25   C27   S    
C41   H21   S    
O21   C45   S    
C9    N2    A    
C38   H12   S    
Cu1   O1    S    
C42   H23   S    
C2    C3    A    
C21   H4    S    
C27   O14   S    
C2    H2    S    
C11   C13   A    
C23   O9    A    
C45   H36   S    
C5    C35   A    
C43   H25   S    
C24   N1    S    
C33   C34   A    
C32   N1    A    
C31   O11   A    
C17   N2    S    
C9    O3    S    
C44   H32   S    
O15   C39   S    
C20   C21   A    
C41   H19   S    
C42   H24   S    
C10   O4    S    
C14   C15   A    
C4    C9    A    
C13   C14   A    
C20   C31   S    
C27   C28   D    
C45   H37   S    
