data_mof_unit_27621.cif
_audit_creation_date              2012-12-10T20:39:55-0500
_audit_creation_method            fapswitch 2.2
_symmetry_space_group_name_H-M    P1
_symmetry_Int_Tables_number       1
_space_group_crystal_system       triclinic
_cell_length_a                    23.413781
_cell_length_b                    10.663818
_cell_length_c                    9.863529
_cell_angle_alpha                 90.015213
_cell_angle_beta                  90.192132
_cell_angle_gamma                 89.999728
_cell_volume                      2462.7149393

loop_
_atom_site_label
_atom_site_type_symbol
_atom_type_description
_atom_site_fract_x
_atom_site_fract_y
_atom_site_fract_z
_atom_type_partial_charge
C1    C     C_R   0.497972 0.259941 0.500009 0.882565
C2    C     C_R   0.970134 0.292002 0.389962 -0.158207
C3    C     C_R   0.029584 0.291016 0.390586 -0.159910
C4    C     C_R   0.060089 0.390852 0.448721 -0.012694
C5    C     C_R   0.030473 0.492475 0.506827 -0.022248
C6    C     C_R   0.060710 0.593045 0.565748 -0.017006
C7    C     C_R   0.030826 0.694001 0.622948 -0.160764
C8    C     C_R   0.971380 0.695336 0.621498 -0.156961
C9    C     C_R   0.119711 0.392181 0.450364 0.484598
C10   C     C_R   0.120313 0.589788 0.565410 0.509569
C11   C     C_R   0.236972 0.548003 0.399981 -0.137226
C12   C     C_R   0.389447 0.499192 0.500044 0.876054
C13   C     C_R   0.296116 0.551216 0.397009 -0.239799
C14   C     C_R   0.327471 0.495266 0.501437 -0.059735
C15   C     C_R   0.299405 0.436382 0.609258 -0.236128
C16   C     C_R   0.239899 0.434157 0.614646 0.215384
C17   C     C_R   0.208850 0.490057 0.507925 0.295287
C18   C     C_R   0.762397 0.509240 0.379587 -0.096922
C19   C     C_R   0.703114 0.509985 0.378607 -0.217221
C20   C     C_R   0.672984 0.499269 0.500872 -0.043237
C21   C     C_R   0.702845 0.487552 0.623896 -0.219716
C22   C     C_R   0.762107 0.486345 0.624449 -0.097431
C23   C     C_R   0.497942 0.740070 0.499993 0.884592
C24   C     C_R   0.791844 0.497296 0.502415 0.315487
C25   C     C_R   0.486589 0.064038 0.622923 0.132470
C26   C     C_R   0.488032 0.128694 0.500372 -0.101880
C27   C     C_R   0.477896 0.064801 0.378304 -0.220345
C28   C     C_R   0.477808 0.935155 0.378336 -0.222028
C29   C     C_R   0.487995 0.871344 0.500397 -0.102571
C30   C     C_R   0.486605 0.936125 0.622935 0.131872
C31   C     C_3   0.525597 0.929086 0.743086 -0.468679
C32   C     C_3   0.525551 0.071289 0.743115 -0.480594
C33   C     C_R   0.458404 0.560180 0.070343 0.175395
C34   C     C_R   0.610702 0.499944 0.500195 0.876391
C35   C     C_R   0.543950 0.447074 0.072350 -0.144107
C36   C     C_R   0.543788 0.446481 0.928308 -0.138771
C37   C     C_R   0.458889 0.562071 0.927997 0.166512
C38   C     C_3   0.396005 0.542620 0.917054 -0.529002
C39   C     C_3   0.395097 0.538102 0.071390 -0.018092
C40   C     C_R   0.881236 0.594964 0.560161 0.504051
C41   C     C_R   0.880612 0.396163 0.447610 0.503711
C42   C     C_R   0.940236 0.393008 0.447130 -0.014816
C43   C     C_R   0.970476 0.493665 0.505740 -0.021835
C44   C     C_R   0.940865 0.595583 0.563126 -0.015000
H1    H     H_    0.947745 0.213636 0.344429 0.194406
H2    H     H_    0.680995 0.519327 0.282520 0.160094
H3    H     H_    0.680532 0.478755 0.719434 0.157560
H4    H     H_    0.785027 0.476655 0.719422 0.143398
H5    H     H_    0.474426 0.113717 0.282402 0.170740
H6    H     H_    0.474143 0.886130 0.282469 0.168391
H7    H     H_    0.504134 0.887953 0.833083 0.202513
H8    H     H_    0.567925 0.887796 0.718327 0.211587
H9    H     H_    0.504040 0.112416 0.833092 0.204396
H10   H     H_    0.567854 0.112730 0.718430 0.207305
H11   H     H_    0.578670 0.402841 0.126844 0.153218
H12   H     H_    0.051498 0.211946 0.345522 0.193236
H13   H     H_    0.578349 0.401649 0.874317 0.147596
H14   H     H_    0.374113 0.626628 0.875104 0.186764
H15   H     H_    0.384894 0.453981 0.864925 0.223251
H16   H     H_    0.372028 0.618769 0.116909 0.110178
H17   H     H_    0.053223 0.772247 0.668706 0.192365
H18   H     H_    0.949479 0.774590 0.666212 0.193981
H19   H     H_    0.212728 0.591618 0.319043 0.146077
H20   H     H_    0.317260 0.599222 0.314794 0.148450
H21   H     H_    0.323784 0.390791 0.688589 0.147691
H22   H     H_    0.785552 0.518081 0.285212 0.143844
N1    N     N_R   0.852642 0.496170 0.503290 -0.358940
N2    N     N_R   0.148148 0.490397 0.508474 -0.360913
N3    N     N_R   0.499610 0.499140 0.142800 -0.097261
N4    N     N_R   0.499610 0.499180 0.857150 -0.099016
O1    O     O_R   0.500010 0.316790 0.614690 -0.619402
O2    O     O_2   0.850679 0.299931 0.393906 -0.554607
O3    O     O_2   0.149217 0.296438 0.394844 -0.561159
O4    O     O_2   0.150390 0.684797 0.621159 -0.561387
O5    O     O_R   0.500000 0.316760 0.385350 -0.612506
O6    O     O_R   0.416160 0.499980 0.614700 -0.626540
O7    O     O_R   0.416150 0.499940 0.385360 -0.598778
O8    O     O_R   0.500000 0.683240 0.614650 -0.612109
O9    O     O_R   0.499990 0.683210 0.385310 -0.626231
O10   O     O_R   0.583850 0.500060 0.614640 -0.625385
O11   O     O_R   0.583840 0.500020 0.385300 -0.623636
O12   O     O_2   0.851916 0.692436 0.612681 -0.553800
Zn1   Zn    Zn3+2 0.500000 0.500020 0.653130 0.944394
Zn2   Zn    Zn3+2 0.500000 0.499980 0.346870 0.959990
N5    N     N_2   0.377345 0.418098 0.129301 -0.243826
H23   H     H_    0.334449 0.415287 0.152313 0.233224
C45   C     C_3   0.397899 0.300245 0.074254 -0.710685
H24   H     H_    0.392816 0.225767 0.151849 0.227276
H25   H     H_    0.443609 0.305056 0.046685 0.243283
H26   H     H_    0.372302 0.273063 0.983957 0.209697
C46   C     C_3   0.211026 0.371679 0.733887 -0.407865
C47   C     C_3   0.219473 0.447709 0.863670 -0.839780
H27   H     H_    0.265497 0.454249 0.890272 0.252023
H28   H     H_    0.201821 0.543637 0.850699 0.288506
H29   H     H_    0.196824 0.401249 0.948668 0.258681
H30   H     H_    0.164495 0.359868 0.716552 0.216030
H31   H     H_    0.229129 0.276211 0.748126 0.212669

loop_
_geom_bond_atom_site_label_1
_geom_bond_atom_site_label_2
_ccdc_geom_bond_type
C22   H4    S    
C45   H24   S    
C10   O4    S    
C41   C42   A    
C19   C20   A    
C31   H8    S    
C19   H2    S    
C7    C8    A    
C41   N1    A    
N5    H23   S    
C26   C27   A    
C29   C30   A    
C18   C24   A    
C23   C29   S    
C21   C22   A    
C28   C29   A    
C11   H19   S    
O9    Zn2   S    
O5    Zn2   S    
C15   C16   A    
C15   H21   S    
C18   C19   A    
C7    H17   S    
C24   N1    S    
C34   O10   A    
C46   H30   S    
C38   H14   S    
C28   H6    S    
O8    Zn1   S    
C33   C39   S    
C35   C36   A    
C16   C17   A    
C40   N1    A    
C34   O11   A    
C33   N3    A    
C20   C34   S    
C25   C32   S    
C5    C43   A    
C13   C14   A    
C9    O3    S    
O10   Zn1   S    
O6    Zn1   S    
C32   H10   S    
C36   N4    A    
O1    Zn1   S    
N5    C45   S    
C2    H1    S    
C38   C39   S    
C35   H11   S    
C1    O5    A    
C40   O12   S    
C36   H13   S    
C46   C47   S    
O7    Zn2   S    
C25   C26   A    
C47   H29   S    
C33   C37   A    
C43   C44   A    
C37   C38   S    
C3    H12   S    
C31   C32   S    
C30   C31   S    
C12   O7    A    
C47   H28   S    
C1    O1    A    
C46   H31   S    
N4    Zn1   S    
C41   O2    S    
C12   C14   S    
C12   O6    A    
C1    C26   S    
C22   C24   A    
C42   C43   A    
C39   N5    S    
C3    C4    A    
C32   H9    S    
O11   Zn2   S    
C25   C30   A    
C11   C17   A    
C17   N2    S    
C8    C44   A    
C31   H7    S    
C4    C5    A    
C6    C10   A    
C6    C7    A    
C10   N2    A    
C18   H22   S    
C45   H25   S    
C2    C3    A    
C9    N2    A    
N3    Zn2   S    
C11   C13   A    
C5    C6    A    
C13   H20   S    
C2    C42   A    
C39   H16   S    
C47   H27   S    
C23   O8    A    
C38   H15   S    
C40   C44   A    
C20   C21   A    
C35   N3    A    
C16   C46   S    
C45   H26   S    
C27   C28   A    
C14   C15   A    
C23   O9    A    
C4    C9    A    
C37   N4    A    
C27   H5    S    
C8    H18   S    
C21   H3    S    
