data_mof_unit_14418.cif
_audit_creation_date              2012-10-26T20:58:16-0400
_audit_creation_method            fapswitch 2.2
_symmetry_space_group_name_H-M    P1
_symmetry_Int_Tables_number       1
_space_group_crystal_system       triclinic
_cell_length_a                    10.615718
_cell_length_b                    14.70764
_cell_length_c                    14.731548
_cell_angle_alpha                 65.110758
_cell_angle_beta                  103.197394
_cell_angle_gamma                 102.707582
_cell_volume                      2011.25489541

loop_
_atom_site_label
_atom_site_type_symbol
_atom_type_description
_atom_site_fract_x
_atom_site_fract_y
_atom_site_fract_z
_atom_type_partial_charge
C1    C     C_R   0.477034 0.119699 0.312347 0.543140
C2    C     C_R   0.465964 0.532586 0.946370 0.031026
C3    C     C_R   0.436109 0.489988 0.872452 -0.140434
C4    C     C_R   0.478174 0.508758 0.122414 -0.139325
C5    C     C_R   0.415749 0.386039 0.899638 -0.134756
C6    C     C_R   0.495805 0.612683 0.095082 -0.135247
C7    C     C_R   0.716367 0.284016 0.668965 -0.158933
C8    C     C_R   0.284516 0.716443 0.330337 -0.160078
C9    C     C_R   0.682845 0.202650 0.639197 0.041111
C10   C     C_R   0.317594 0.797576 0.360468 0.041110
C11   C     C_R   0.519215 0.285540 0.508715 0.033796
C12   C     C_R   0.520832 0.880324 0.687640 0.542308
C13   C     C_R   0.480796 0.714469 0.491227 0.033301
C14   C     C_R   0.549080 0.371444 0.534795 0.001990
C15   C     C_R   0.451408 0.628815 0.464756 0.001831
C16   C     C_R   0.259568 0.000507 0.500056 0.552359
C17   C     C_R   0.740438 0.999485 0.499958 0.552763
C18   C     C_R   0.649506 0.368278 0.617562 0.039642
C19   C     C_R   0.351358 0.632171 0.381717 0.039027
C20   C     C_R   0.482921 0.459059 0.483015 0.022296
C21   C     C_R   0.517721 0.541279 0.516408 0.021237
C22   C     C_R   0.617357 0.533072 0.600303 -0.144948
C23   C     C_R   0.473612 0.291778 0.178896 -0.138009
C24   C     C_R   0.383596 0.467416 0.398903 -0.146808
C25   C     C_R   0.682026 0.448622 0.649180 -0.128626
C26   C     C_R   0.319198 0.552005 0.349829 -0.133097
C27   C     C_3   0.016569 0.010841 0.408098 -0.125807
C28   C     C_3   0.983458 0.989144 0.591934 -0.126256
C29   C     C_3   0.962041 0.087526 0.430023 -0.122905
C30   C     C_3   0.037989 0.912458 0.570010 -0.123149
C31   C     C_3   0.877131 0.998824 0.499744 0.044125
C32   C     C_3   0.122891 0.001161 0.500286 0.044386
C33   C     C_3   0.929352 0.922088 0.477810 -0.113097
C34   C     C_R   0.506418 0.708181 0.821000 -0.134757
C35   C     C_3   0.070675 0.077895 0.522222 -0.113063
C36   C     C_R   0.458926 0.187363 0.204812 -0.004894
C37   C     C_R   0.523406 0.812676 0.794832 -0.004810
C38   C     C_R   0.411469 0.215874 0.027166 -0.135977
C39   C     C_R   0.526337 0.783317 0.969547 -0.136361
C40   C     C_R   0.426379 0.149500 0.128461 -0.140651
C41   C     C_R   0.534285 0.850165 0.869694 -0.140577
C42   C     C_R   0.454863 0.360118 0.077471 0.030802
C43   C     C_R   0.491702 0.639148 0.920008 0.031589
C44   C     C_R   0.427013 0.320665 0.001142 0.050684
C45   C     C_R   0.504885 0.678377 0.995202 0.049752
C46   C     C_R   0.467169 0.466476 0.050014 0.031395
Cu1   Cu    Cu3+1 0.465750 0.918270 0.475680 0.924555
Cu2   Cu    Cu3+1 0.534250 0.081730 0.524320 0.924268
H1    H     H_    0.927674 0.159017 0.372690 0.114222
H2    H     H_    0.353121 0.409713 0.368483 0.088419
H3    H     H_    0.033457 0.019873 0.332922 0.107465
H4    H     H_    0.966590 0.980118 0.667113 0.106782
H5    H     H_    0.868835 0.858255 0.459686 0.121766
H6    H     H_    0.131198 0.141727 0.540347 0.121297
H7    H     H_    0.392888 0.356683 0.840577 0.111549
H8    H     H_    0.503265 0.641793 0.152899 0.114417
H9    H     H_    0.506534 0.682553 0.762564 0.116372
H10   H     H_    0.503599 0.318322 0.239390 0.121105
H11   H     H_    0.547439 0.930847 0.850986 0.127208
H12   H     H_    0.072381 0.840976 0.627345 0.114507
H13   H     H_    0.414138 0.068909 0.146898 0.125612
H14   H     H_    0.388656 0.185322 0.969048 0.104209
H15   H     H_    0.535406 0.813652 0.026611 0.104961
H16   H     H_    0.423691 0.534733 0.792223 0.106442
H17   H     H_    0.469403 0.463565 0.200817 0.101461
H18   H     H_    0.758196 0.446010 0.713016 0.110306
H19   H     H_    0.243458 0.554821 0.285693 0.110138
H20   H     H_    0.557180 0.719713 0.551627 0.116147
H21   H     H_    0.442468 0.280126 0.448580 0.116270
H22   H     H_    0.267018 0.863119 0.320242 0.122145
H23   H     H_    0.733499 0.137147 0.679382 0.122832
H24   H     H_    0.793536 0.280784 0.732298 0.090769
H25   H     H_    0.207705 0.719865 0.266742 0.090605
H26   H     H_    0.648056 0.590860 0.630599 0.090793
N1    N     N_R   0.585750 0.204560 0.560800 -0.232734
N2    N     N_R   0.414250 0.795440 0.439200 -0.232471
O1    O     O_R   0.454850 0.022100 0.338110 -0.507537
O2    O     O_R   0.545150 0.977900 0.661890 -0.507829
O3    O     O_R   0.512700 0.160150 0.379180 -0.512181
O4    O     O_R   0.487300 0.839850 0.620820 -0.511779
O5    O     O_R   0.287930 0.931000 0.479440 -0.501756
O6    O     O_R   0.712070 0.069000 0.520560 -0.501492
O7    O     O_R   0.345780 0.069050 0.520520 -0.508290
O8    O     O_R   0.654220 0.930950 0.479480 -0.507660

loop_
_geom_bond_atom_site_label_1
_geom_bond_atom_site_label_2
_ccdc_geom_bond_type
C23   H10   S    
C38   C40   A    
C6    C45   A    
C27   C29   S    
C34   C37   A    
C1    O1    A    
C14   C18   A    
C39   C41   A    
C29   H1    S    
C3    H16   S    
C27   C33   S    
C15   C19   A    
C23   C42   A    
C26   H19   S    
Cu2   O3    S    
C24   C26   A    
Cu1   N2    S    
C4    H17   S    
C11   C14   A    
C17   O6    A    
C42   C46   A    
Cu2   O2    S    
C12   C37   S    
C19   C26   A    
C16   O5    A    
C10   N2    A    
C20   C24   A    
C28   C35   S    
C22   C25   A    
C30   H12   S    
C34   H9    S    
C31   C33   S    
C39   C45   A    
C21   C22   A    
C35   H6    S    
C33   H5    S    
Cu2   N1    S    
C18   C25   A    
C42   C44   A    
Cu1   O4    S    
C27   H3    S    
C24   H2    S    
C8    C19   A    
C34   C43   A    
C32   C35   S    
C14   C20   A    
C36   C40   A    
C41   H11   S    
C4    C6    A    
C7    H24   S    
C4    C46   A    
C16   O7    A    
C2    C46   A    
C40   H13   S    
C12   O2    A    
C38   C44   A    
Cu1   Cu2   S    
C13   N2    A    
C2    C43   A    
C7    C18   A    
Cu1   O8    S    
C43   C45   A    
C10   H22   S    
C5    C44   A    
C13   C15   A    
C17   C31   S    
Cu1   O1    S    
C7    C9    A    
C30   C33   S    
C27   C32   S    
C5    H7    S    
C28   C31   S    
C25   H18   S    
C9    H23   S    
C6    H8    S    
C3    C5    A    
C11   H21   S    
C16   C32   S    
C39   H15   S    
C29   C35   S    
Cu2   O7    S    
C17   O8    A    
C28   C30   S    
C2    C3    A    
C29   C31   S    
C11   N1    A    
C30   C32   S    
C28   H4    S    
C1    O3    A    
C12   O4    A    
C8    H25   S    
Cu2   O6    S    
Cu1   O5    S    
C37   C41   A    
C15   C21   A    
C20   C21   A    
C8    C10   A    
C23   C36   A    
C22   H26   S    
C9    N1    A    
C1    C36   S    
C38   H14   S    
C13   H20   S    
