data_mof_unit_25474.cif
_audit_creation_date              2012-12-10T17:27:55-0500
_audit_creation_method            fapswitch 2.2
_symmetry_space_group_name_H-M    P1
_symmetry_Int_Tables_number       1
_space_group_crystal_system       triclinic
_cell_length_a                    10.752626
_cell_length_b                    12.008124
_cell_length_c                    12.862727
_cell_angle_alpha                 93.819161
_cell_angle_beta                  90.043683
_cell_angle_gamma                 85.860051
_cell_volume                      1652.79482469

loop_
_atom_site_label
_atom_site_type_symbol
_atom_type_description
_atom_site_fract_x
_atom_site_fract_y
_atom_site_fract_z
_atom_type_partial_charge
C1    C     C_R   0.495321 0.522712 0.700223 0.908771
C2    C     C_R   0.363292 0.584906 0.853090 -0.134705
C3    C     C_R   0.560501 0.476253 0.870262 -0.196197
C4    C     C_R   0.739976 0.498572 0.491896 0.881971
C5    C     C_R   0.535281 0.460599 0.973633 0.043844
C6    C     C_R   0.425685 0.515662 0.020596 0.075861
C7    C     C_R   0.413299 0.518296 0.129700 -0.135839
C8    C     C_R   0.602374 0.390829 0.138272 -0.056259
C9    C     C_R   0.618723 0.391873 0.030692 -0.063461
C10   C     C_R   0.361960 0.957927 0.424545 -0.380882
C11   C     C_R   0.377211 0.840258 0.429281 0.642934
C12   C     C_R   0.948593 0.396431 0.478284 0.118053
C13   C     C_R   0.563016 0.856325 0.526884 -0.083913
C14   C     C_R   0.550741 0.973509 0.523361 0.095338
C15   C     C_R   0.448857 0.025498 0.472487 0.032799
C16   C     C_R   0.502884 0.476922 0.299569 0.845068
C17   C     C_R   0.437238 0.143728 0.470735 -0.014605
C18   C     C_R   0.623564 0.155852 0.569242 0.117146
C19   C     C_R   0.638298 0.039193 0.570305 -0.336006
C20   C     C_R   0.260191 0.501324 0.511935 0.832952
C21   C     C_R   0.905962 0.294828 0.434536 -0.288566
C22   C     C_R   0.973776 0.192644 0.446416 0.011276
C23   C     C_R   0.873643 0.497694 0.487482 -0.162414
C24   C     C_R   0.082836 0.191878 0.505507 -0.139218
C25   C     C_R   0.129631 0.292629 0.541459 -0.190590
C26   C     C_R   0.069812 0.396686 0.516714 0.128821
C27   C     C_2   0.720651 0.317205 0.979177 0.423703
C28   C     C_2   0.277938 0.653864 0.789400 0.401270
C29   C     C_2   0.723335 0.215491 0.622486 0.512049
C30   C     C_2   0.925714 0.087665 0.401605 0.388203
C31   C     C_2   0.098222 0.714868 0.559478 0.482739
C32   C     C_2   0.312829 0.589368 0.186829 0.649133
C33   C     C_2   0.691780 0.321303 0.199014 0.381004
C34   C     C_R   0.925219 0.599114 0.513066 -0.166609
C35   C     C_R   0.051147 0.603123 0.531030 -0.053974
C36   C     C_R   0.126141 0.500819 0.527132 -0.239764
C37   C     C_R   0.504250 0.459050 0.187306 -0.178232
C38   C     C_R   0.476499 0.536702 0.810952 -0.144237
C39   C     C_R   0.333261 0.567624 0.957029 0.435206
H1    H     H_    0.866187 0.676255 0.522068 0.206443
H2    H     H_    0.812838 0.310643 0.013572 0.049247
H3    H     H_    0.187195 0.626052 0.767434 0.001098
H4    H     H_    0.818405 0.178512 0.618261 0.038821
H5    H     H_    0.224315 0.819396 0.352174 0.364803
H6    H     H_    0.837112 0.089874 0.360987 0.106548
H7    H     H_    0.185784 0.722570 0.599114 0.127698
H8    H     H_    0.260625 0.555238 0.248003 0.033346
H9    H     H_    0.789027 0.339781 0.202920 0.021846
H10   H     H_    0.155682 0.618380 0.942087 0.333363
H11   H     H_    0.646638 0.441641 0.833832 0.219445
H12   H     H_    0.360551 0.184423 0.429824 0.142929
H13   H     H_    0.282930 0.995992 0.384239 0.176734
H14   H     H_    0.717723 0.999649 0.609302 0.165340
H15   H     H_    0.640457 0.816073 0.567357 0.154983
H16   H     H_    0.820360 0.294146 0.390758 0.173577
H17   H     H_    0.132814 0.113784 0.522862 0.185846
H18   H     H_    0.211164 0.287528 0.590569 0.175129
N1    N     N_R   0.523130 0.207800 0.519340 -0.111887
N2    N     N_R   0.476870 0.792180 0.480660 -0.123681
O1    O     O_R   0.506170 0.421690 0.658830 -0.563839
O2    O     O_2   0.308263 0.744125 0.763625 -0.528739
O3    O     O_2   0.701376 0.299344 0.679398 -0.519970
O4    O     O_3   0.292345 0.772271 0.383125 -0.713595
O5    O     O_2   0.984339 0.997648 0.409091 -0.522988
O6    O     O_2   0.037892 0.801052 0.540008 -0.531841
O7    O     O_2   0.293820 0.688164 0.170415 -0.493570
O8    O     O_2   0.658109 0.239849 0.240287 -0.545433
O9    O     O_3   0.214374 0.594832 0.996861 -0.750326
O10   O     O_R   0.491330 0.609320 0.646410 -0.592676
O11   O     O_R   0.690660 0.406170 0.506210 -0.604645
O12   O     O_R   0.675810 0.593790 0.493790 -0.638015
O13   O     O_R   0.508670 0.390680 0.353590 -0.573024
O14   O     O_R   0.493830 0.578310 0.341170 -0.589534
O15   O     O_R   0.324190 0.406210 0.506210 -0.641333
O16   O     O_R   0.309340 0.593830 0.493790 -0.586110
O17   O     O_2   0.700393 0.258099 0.900960 -0.512042
Zn1   Zn    Zn3+2 0.509910 0.374720 0.508290 1.002744
Zn2   Zn    Zn3+2 0.490090 0.625280 0.491710 1.020636

loop_
_geom_bond_atom_site_label_1
_geom_bond_atom_site_label_2
_ccdc_geom_bond_type
H10   O9    S    
C30   O5    D    
C39   O9    S    
C30   H6    S    
C35   C36   A    
C16   O13   A    
C10   H13   S    
C17   H12   S    
C4    O11   A    
C12   C23   A    
C9    C27   S    
C34   H1    S    
C18   C19   A    
C11   O4    S    
C10   C15   A    
C5    C6    A    
C15   C17   A    
C34   C35   A    
C27   H2    S    
N1    Zn1   S    
C2    C39   A    
C18   N1    A    
C3    C38   A    
C8    C9    A    
O15   Zn1   S    
O14   Zn2   S    
C16   C37   S    
C28   O2    D    
C19   H14   S    
C21   C22   A    
C29   H4    S    
O11   Zn1   S    
O10   Zn2   S    
C25   H18   S    
C11   N2    A    
N2    Zn2   S    
C3    H11   S    
H5    O4    S    
O1    Zn1   S    
C16   O14   A    
C24   C25   A    
C1    O1    A    
C21   H16   S    
C4    C23   S    
C25   C26   A    
C12   C21   A    
C31   H7    S    
C1    O10   A    
C20   O16   A    
C12   C26   A    
C5    C9    A    
O13   Zn1   S    
C2    C38   A    
C23   C34   A    
C7    C37   A    
C20   O15   A    
C18   C29   S    
C1    C38   S    
C26   C36   A    
C32   H8    S    
C22   C24   A    
C8    C37   A    
C27   O17   D    
C33   O8    D    
C32   O7    D    
C13   H15   S    
C31   O6    D    
C29   O3    D    
C7    C32   S    
C22   C30   S    
C14   C15   A    
C14   C19   A    
C3    C5    A    
C6    C7    A    
C13   N2    A    
C24   H17   S    
C17   N1    A    
C28   H3    S    
C31   C35   S    
C8    C33   S    
O12   Zn2   S    
O16   Zn2   S    
C10   C11   A    
C20   C36   S    
C33   H9    S    
C6    C39   A    
C2    C28   S    
C13   C14   A    
C4    O12   A    
