data_mof_unit_39315.cif
_audit_creation_date              2012-12-10T17:07:49-0500
_audit_creation_method            fapswitch 2.2
_symmetry_space_group_name_H-M    P1
_symmetry_Int_Tables_number       1
_space_group_crystal_system       triclinic
_cell_length_a                    10.683516
_cell_length_b                    10.686377
_cell_length_c                    10.015819
_cell_angle_alpha                 90.146239
_cell_angle_beta                  90.079368
_cell_angle_gamma                 90.240425
_cell_volume                      1143.4719154

loop_
_atom_site_label
_atom_site_type_symbol
_atom_type_description
_atom_site_fract_x
_atom_site_fract_y
_atom_site_fract_z
_atom_type_partial_charge
C1    C     C_R   0.507984 0.262827 0.499983 0.827220
C2    C     C_3   0.878410 0.498366 0.501594 -0.109908
C3    C     C_3   0.922169 0.626170 0.565400 -0.006138
C4    C     C_3   0.928061 0.491899 0.355681 -0.510662
C5    C     C_2   0.538269 0.932044 0.392678 -0.125382
C6    C     C_2   0.494261 0.869925 0.498260 -0.241154
C7    C     C_2   0.529288 0.066267 0.388863 -0.305690
C8    C     C_2   0.537692 0.133202 0.501192 0.441776
C9    C     C_2   0.569311 0.575513 0.927178 0.157061
C10   C     C_2   0.586604 0.551787 0.074973 -0.136192
C11   C     C_R   0.257757 0.506427 0.500302 0.907341
C12   C     C_R   0.499003 0.737569 0.499904 0.883457
C13   C     C_R   0.741988 0.493944 0.500207 0.864537
C14   C     C_3   0.076586 0.387850 0.575117 -0.455909
C15   C     C_3   0.932557 0.380121 0.576839 -0.058000
C16   C     C_3   0.068164 0.628098 0.576694 -0.076369
C17   C     C_3   0.070031 0.503191 0.355493 1.104633
C18   C     C_3   0.120813 0.507743 0.502503 -0.153260
H1    H     H_    0.116351 0.386598 0.677296 0.215620
H2    H     H_    0.887440 0.566242 0.291491 0.193178
H3    H     H_    0.106500 0.711089 0.523348 0.189370
H4    H     H_    0.574350 0.884065 0.305052 0.165641
H5    H     H_    0.450986 0.915632 0.583249 0.195406
H6    H     H_    0.508267 0.109096 0.293180 0.160702
H7    H     H_    0.467053 0.421663 0.896875 0.162832
H8    H     H_    0.669585 0.586465 0.125304 0.178114
H9    H     H_    0.114418 0.303353 0.524067 0.195582
H10   H     H_    0.418361 0.478524 0.101328 0.194382
H11   H     H_    0.905286 0.296471 0.516453 0.168738
H12   H     H_    0.880042 0.630408 0.666508 0.184449
H13   H     H_    0.899110 0.401561 0.308891 0.191777
N1    N     N_2   0.501360 0.501330 0.852150 -0.228330
N2    N     N_2   0.501390 0.501360 0.147810 -0.200795
O1    O     O_R   0.499980 0.319060 0.613040 -0.576113
O2    O     O_R   0.500020 0.319100 0.386900 -0.637738
O3    O     O_R   0.314770 0.499960 0.613070 -0.650004
O4    O     O_R   0.314820 0.500000 0.386930 -0.519917
O5    O     O_R   0.499980 0.680900 0.613100 -0.641784
O6    O     O_R   0.500020 0.680940 0.386960 -0.604363
O7    O     O_R   0.685180 0.500000 0.613070 -0.654016
O8    O     O_R   0.685230 0.500040 0.386930 -0.629750
Zn1   Zn    Zn3+2 0.499970 0.499970 0.650990 0.924359
Zn2   Zn    Zn3+2 0.500030 0.500030 0.349010 0.986404
C19   C     C_3   0.872249 0.741483 0.484438 -0.429611
C20   C     C_3   0.867427 0.863497 0.563564 -0.834507
H14   H     H_    0.814586 0.850603 0.657810 0.268462
H15   H     H_    0.963002 0.899014 0.583763 0.259355
H16   H     H_    0.818357 0.935592 0.503595 0.274847
H17   H     H_    0.930004 0.757538 0.393935 0.247560
H18   H     H_    0.775401 0.724276 0.448906 0.215311
F1    F     F_    0.581680 0.083823 0.617534 -0.679674
C21   C     C_3   0.629210 0.691097 0.865767 -0.295261
C22   C     C_3   0.717537 0.765508 0.956867 -0.975038
H19   H     H_    0.667371 0.799178 0.047072 0.271897
H20   H     H_    0.799029 0.707416 0.986163 0.265146
H21   H     H_    0.753261 0.848681 0.902463 0.271200
H22   H     H_    0.683635 0.664204 0.776780 0.237552
H23   H     H_    0.553228 0.755539 0.835326 0.235988
C23   C     C_3   0.881410 0.353062 0.719790 -0.356654
C24   C     C_3   0.936249 0.234536 0.782798 -0.840462
H24   H     H_    0.931959 0.154996 0.711236 0.265165
H25   H     H_    0.034312 0.249015 0.815825 0.256259
H26   H     H_    0.880780 0.209048 0.872520 0.261530
H27   H     H_    0.897145 0.434168 0.787187 0.213035
H28   H     H_    0.779688 0.333635 0.714907 0.255399
C25   C     C_3   0.110832 0.643075 0.726139 -0.391802
C26   C     C_3   0.072444 0.765957 0.792539 -0.879014
H29   H     H_    0.110569 0.846765 0.736152 0.257120
H30   H     H_    0.969718 0.773154 0.802914 0.268679
H31   H     H_    0.112515 0.769910 0.894880 0.271962
H32   H     H_    0.074950 0.565042 0.788038 0.226058
H33   H     H_    0.213675 0.644478 0.734322 0.252597
F2    F     F_    0.105037 0.610826 0.287495 -0.694115
F3    F     F_    0.117762 0.400648 0.287014 -0.670089

loop_
_geom_bond_atom_site_label_1
_geom_bond_atom_site_label_2
_ccdc_geom_bond_type
C19   H17   S    
O4    Zn2   S    
C3    H12   S    
C2    C4    S    
C5    C7    S    
C11   C18   S    
C15   H11   S    
C16   H3    S    
C5    H4    S    
C14   H9    S    
C1    C8    S    
O2    Zn2   S    
C9    C10   S    
C14   C18   S    
C22   H20   S    
O3    Zn1   S    
C25   H32   S    
O1    Zn1   S    
C26   H31   S    
C10   H8    S    
H7    N1    S    
O7    Zn1   S    
C17   C18   S    
C7    C8    D    
C16   C18   S    
C17   F2    S    
C20   H14   S    
C23   H28   S    
C6    C12   S    
C2    C15   S    
O8    Zn2   S    
C8    F1    S    
C23   H27   S    
C5    C6    D    
C9    C21   S    
C21   H23   S    
C12   O6    A    
C24   H26   S    
C4    C17   S    
C13   O8    A    
C11   O3    A    
C1    O1    A    
O5    Zn1   S    
C10   N2    D    
C2    C3    S    
C20   H15   S    
C12   O5    A    
C17   F3    S    
C3    C19   S    
C22   H21   S    
C4    H13   S    
C16   C25   S    
H10   N2    S    
C6    H5    S    
C7    H6    S    
C4    H2    S    
C23   C24   S    
C25   C26   S    
C21   C22   S    
C1    O2    A    
C24   H25   S    
C21   H22   S    
C20   H16   S    
C19   H18   S    
C11   O4    A    
C2    C13   S    
N1    Zn1   S    
C14   C15   S    
C13   O7    A    
O6    Zn2   S    
C19   C20   S    
C9    N1    D    
C22   H19   S    
C15   C23   S    
C14   H1    S    
C25   H33   S    
C3    C16   S    
C26   H29   S    
C24   H24   S    
C26   H30   S    
N2    Zn2   S    
