data_mof_unit_36361.cif
_audit_creation_date              2012-12-11T17:19:08-0500
_audit_creation_method            fapswitch 2.2
_symmetry_space_group_name_H-M    P1
_symmetry_Int_Tables_number       1
_space_group_crystal_system       triclinic
_cell_length_a                    14.631692
_cell_length_b                    7.280406
_cell_length_c                    13.481328
_cell_angle_alpha                 90.025496
_cell_angle_beta                  99.948337
_cell_angle_gamma                 90.046713
_cell_volume                      1414.49992866

loop_
_atom_site_label
_atom_site_type_symbol
_atom_type_description
_atom_site_fract_x
_atom_site_fract_y
_atom_site_fract_z
_atom_type_partial_charge
O1    O     O_R   0.648180 0.355050 0.151550 -0.515768
O2    O     O_R   0.351820 0.644950 0.848450 -0.515984
O3    O     O_R   0.851820 0.855050 0.348450 -0.557144
O4    O     O_R   0.148180 0.144950 0.651550 -0.506458
O5    O     O_R   0.835240 0.681980 0.154280 -0.553142
O6    O     O_R   0.164760 0.318020 0.845720 -0.527367
O7    O     O_R   0.664760 0.181980 0.345720 -0.530148
O8    O     O_R   0.335240 0.818020 0.654280 -0.528540
C1    C     C_R   0.865854 0.515755 0.135793 0.768381
C2    C     C_R   0.134232 0.483636 0.864193 0.783005
C3    C     C_R   0.634785 0.016448 0.364894 0.781687
C4    C     C_R   0.365320 0.983534 0.635265 0.777188
O9    O     O_R   0.647870 0.684600 0.139630 -0.548259
O10   O     O_R   0.352130 0.315400 0.860370 -0.550309
O11   O     O_R   0.852130 0.184600 0.360370 -0.517888
O12   O     O_R   0.147870 0.815400 0.639630 -0.557720
O13   O     O_R   0.663110 0.857440 0.333700 -0.545222
O14   O     O_R   0.336890 0.142560 0.666300 -0.544347
O15   O     O_R   0.836890 0.357440 0.166300 -0.522155
O16   O     O_R   0.163110 0.642560 0.833700 -0.550145
C5    C     C_R   0.615139 0.515938 0.113232 0.721380
C6    C     C_R   0.384859 0.484058 0.886770 0.720908
C7    C     C_R   0.884740 0.016112 0.386935 0.722107
C8    C     C_R   0.115058 0.983969 0.613322 0.717145
O17   O     O_3   0.755220 0.522230 0.313690 -0.389520
O18   O     O_3   0.244780 0.477770 0.686310 -0.377239
O19   O     O_3   0.744780 0.022230 0.186310 -0.381116
O20   O     O_3   0.255220 0.977770 0.813690 -0.385916
V1    V     V_3+5 0.749030 0.796100 0.238190 1.378495
V2    V     V_3+5 0.250970 0.203900 0.761810 1.456149
V3    V     V_3+5 0.750970 0.296100 0.261810 1.471938
V4    V     V_3+5 0.249030 0.703900 0.738190 1.436252
C9    C     C_1   0.965747 0.005755 0.467101 -0.167676
C10   C     C_1   0.033796 0.994742 0.533516 -0.164696
C11   C     C_1   0.534013 0.505282 0.033241 -0.151745
C12   C     C_1   0.465995 0.494705 0.966751 -0.148285
H1    H     H_    0.205410 0.150606 0.306467 0.178745
H2    H     H_    0.793609 0.837641 0.692452 0.139860
H3    H     H_    0.298193 0.590420 0.196047 0.143957
H4    H     H_    0.704177 0.352491 0.806494 0.140174
C13   C     C_R   0.565527 0.905826 0.707266 0.348455
C14   C     C_R   0.434006 0.088187 0.292257 0.342446
C15   C     C_R   0.933036 0.411946 0.791592 0.352036
C16   C     C_R   0.069711 0.512600 0.211302 0.328804
C17   C     C_R   0.659956 0.862927 0.739216 0.431860
C18   C     C_R   0.339074 0.126133 0.259763 0.424386
C19   C     C_R   0.838374 0.370255 0.759650 0.430318
C20   C     C_R   0.166163 0.539478 0.245793 0.430178
C21   C     C_R   0.721247 0.873902 0.670603 -0.251704
C22   C     C_R   0.278245 0.119203 0.328994 -0.246558
C23   C     C_R   0.776929 0.385952 0.828065 -0.250983
C24   C     C_R   0.224168 0.570754 0.174460 -0.241332
C25   C     C_R   0.689639 0.922660 0.571344 -0.206485
C26   C     C_R   0.310418 0.076568 0.428958 -0.231436
C27   C     C_R   0.808895 0.435052 0.927277 -0.197039
C28   C     C_R   0.189621 0.562053 0.072388 -0.213300
C29   C     C_R   0.594957 0.961088 0.535543 -0.015319
C30   C     C_R   0.405129 0.038421 0.464667 -0.012439
C31   C     C_R   0.904085 0.466924 0.963463 -0.018293
C32   C     C_R   0.095114 0.526137 0.035933 -0.009510
C33   C     C_R   0.530889 0.952485 0.604032 -0.092309
C34   C     C_R   0.469057 0.045684 0.395976 -0.088672
C35   C     C_R   0.968047 0.457033 0.894891 -0.094117
C36   C     C_R   0.032584 0.515659 0.105615 -0.075678
C37   C     C_R   0.564811 0.008015 0.432684 -0.113903
C38   C     C_R   0.435310 0.991899 0.567531 -0.109754
C39   C     C_R   0.935479 0.501800 0.067555 -0.099787
C40   C     C_R   0.064051 0.492498 0.931730 -0.112171
H5    H     H_    0.741157 0.927792 0.522773 0.135556
H6    H     H_    0.259060 0.073251 0.477751 0.139977
H7    H     H_    0.757564 0.442027 0.976029 0.134195
H8    H     H_    0.239499 0.578117 0.022440 0.131343
O21   O     O_3   0.687198 0.791785 0.835471 -0.546325
C41   C     C_3   0.768325 0.878946 0.885916 -0.247160
H9    H     H_    0.765678 0.030132 0.875721 0.132222
H10   H     H_    0.831202 0.821089 0.861900 0.141681
H11   H     H_    0.774270 0.852195 0.967736 0.178773
O22   O     O_3   0.310482 0.187250 0.161604 -0.542389
C42   C     C_3   0.229735 0.094254 0.114612 -0.259172
H12   H     H_    0.166667 0.157077 0.135598 0.150136
H13   H     H_    0.232382 0.944812 0.131691 0.120160
H14   H     H_    0.224110 0.108935 0.031893 0.180988
O23   O     O_3   0.811578 0.295411 0.663983 -0.544789
C43   C     C_3   0.726858 0.369721 0.614305 -0.248462
H15   H     H_    0.723684 0.520650 0.623689 0.135027
H16   H     H_    0.666991 0.302012 0.639771 0.141404
H17   H     H_    0.720887 0.342447 0.532536 0.177054
O24   O     O_3   0.199890 0.514317 0.348398 -0.555401
C44   C     C_3   0.288338 0.591413 0.381883 -0.250763
H18   H     H_    0.293792 0.732317 0.352293 0.126952
H19   H     H_    0.343496 0.501418 0.361499 0.154635
H20   H     H_    0.299705 0.600991 0.465224 0.179625
O25   O     O_3   0.506767 0.888928 0.776902 -0.546343
C45   C     C_3   0.518717 0.042297 0.842031 -0.169001
H21   H     H_    0.508364 0.173800 0.799421 0.101005
H22   H     H_    0.587762 0.042087 0.891443 0.143064
H23   H     H_    0.466174 0.034465 0.892097 0.166533
O26   O     O_3   0.492648 0.104997 0.222483 -0.546793
C46   C     C_3   0.482147 0.949774 0.158673 -0.166367
H24   H     H_    0.413109 0.945944 0.109358 0.144429
H25   H     H_    0.493940 0.819719 0.202421 0.102267
H26   H     H_    0.534360 0.958760 0.108287 0.168244
O27   O     O_3   0.991833 0.393441 0.722129 -0.544504
C47   C     C_3   0.979930 0.545610 0.656285 -0.169561
H27   H     H_    0.990410 0.677831 0.698304 0.101102
H28   H     H_    0.910820 0.544648 0.606903 0.142159
H29   H     H_    0.032502 0.536806 0.606353 0.161046
O28   O     O_3   0.014593 0.448365 0.278123 -0.559982
C48   C     C_3   0.011105 0.575215 0.356648 -0.125180
H30   H     H_    0.019078 0.720657 0.333801 0.096826
H31   H     H_    0.063533 0.540766 0.423669 0.168757
H32   H     H_    0.942891 0.560725 0.380806 0.158753

loop_
_geom_bond_atom_site_label_1
_geom_bond_atom_site_label_2
_ccdc_geom_bond_type
O17   V3    S    
C16   C20   A    
C30   C34   A    
O25   C45   S    
C27   C31   A    
O19   V1    S    
O13   V1    S    
O21   C41   S    
O3    C7    A    
C11   C12   T    
C43   H17   S    
C13   C33   A    
O4    V2    S    
C25   H5    S    
C47   H28   S    
C15   C35   A    
H2    C21   S    
C16   C36   A    
O1    C5    A    
C22   C26   A    
C41   H10   S    
O2    V4    S    
O9    V1    S    
C43   H16   S    
C48   H31   S    
C26   C30   A    
O4    C8    A    
O1    V3    S    
O28   C48   S    
C17   O21   S    
C14   C18   A    
O3    V1    S    
C31   C39   A    
C33   C38   A    
C30   C38   A    
C13   O25   S    
O23   C43   S    
C2    O16   A    
C7    C9    S    
C41   H11   S    
O2    C6    A    
C20   O24   S    
O14   V2    S    
C19   O23   S    
C44   H19   S    
C14   C34   A    
O11   C7    A    
H3    C24   S    
O15   V3    S    
O12   C8    A    
O10   V2    S    
C47   H27   S    
C1    O15   A    
O5    V1    S    
C16   O28   S    
O7    V3    S    
C41   H9    S    
O8    V4    S    
C36   C39   A    
C43   H15   S    
C48   H32   S    
C18   O22   S    
C25   C29   A    
O18   V4    S    
C19   C23   A    
C45   H23   S    
C28   H8    S    
C4    C38   S    
O11   V3    S    
C8    C10   S    
C28   C32   A    
O7    C3    A    
C1    C39   S    
O5    C1    A    
C46   H24   S    
C26   H6    S    
C17   C21   A    
O8    C4    A    
C9    C10   T    
O9    C5    A    
C44   H20   S    
C45   H22   S    
O6    V2    S    
C42   H13   S    
O16   V4    S    
C35   C40   A    
C3    O13   A    
C34   C37   A    
C46   H25   S    
O22   C42   S    
C29   C37   A    
O6    C2    A    
C42   H14   S    
C29   C33   A    
C5    C11   S    
C2    C40   S    
O12   V4    S    
H4    C23   S    
C6    C12   S    
C18   C22   A    
C31   C35   A    
C32   C36   A    
O10   C6    A    
C14   O26   S    
C48   H30   S    
H1    C22   S    
C21   C25   A    
O20   V2    S    
C23   C27   A    
C45   H21   S    
C15   O27   S    
C42   H12   S    
C24   C28   A    
C20   C24   A    
C46   H26   S    
O24   C44   S    
C32   C40   A    
O26   C46   S    
C4    O14   A    
O27   C47   S    
C13   C17   A    
C44   H18   S    
C15   C19   A    
C47   H29   S    
C27   H7    S    
C3    C37   S    
