data_mof_unit_46039.cif
_audit_creation_date              2012-12-11T17:29:33-0500
_audit_creation_method            fapswitch 2.2
_symmetry_space_group_name_H-M    P1
_symmetry_Int_Tables_number       1
_space_group_crystal_system       triclinic
_cell_length_a                    18.922806
_cell_length_b                    18.809735
_cell_length_c                    20.38863
_cell_angle_alpha                 106.889412
_cell_angle_beta                  106.491808
_cell_angle_gamma                 111.300241
_cell_volume                      5819.79362636

loop_
_atom_site_label
_atom_site_type_symbol
_atom_type_description
_atom_site_fract_x
_atom_site_fract_y
_atom_site_fract_z
_atom_type_partial_charge
C1    C     C_R   0.088329 0.088171 0.354977 0.267143
C2    C     C_R   0.761899 0.988839 0.557220 0.093262
C3    C     C_R   0.757926 0.799803 0.274773 0.075109
C4    C     C_R   0.956441 0.211384 0.459540 0.097459
C5    C     C_R   0.232385 0.225802 0.647387 0.003690
C6    C     C_R   0.922695 0.757129 0.496863 -0.143910
C7    C     C_R   0.176227 0.928341 0.465871 -0.190572
C8    C     C_R   0.033370 0.052086 0.718289 -0.119054
C9    C     C_R   0.964256 0.910701 0.653271 -0.128950
C10   C     C_R   0.247844 0.070235 0.525464 0.532471
C11   C     C_R   0.155787 0.220180 0.712426 -0.189328
C12   C     C_R   0.765811 0.923072 0.509686 -0.146864
C13   C     C_R   0.000733 0.763828 0.433206 -0.131335
C14   C     C_R   0.233694 0.267600 0.715831 0.128780
C15   C     C_R   0.950429 0.710530 0.455119 0.084678
C16   C     C_R   0.256700 0.997196 0.506476 -0.096820
C17   C     C_R   0.020329 0.977355 0.725057 0.061117
C18   C     C_R   0.872620 0.574405 0.459110 -0.257184
C19   C     C_R   0.921110 0.618943 0.429213 0.109654
C20   C     C_R   0.945397 0.576646 0.378272 -0.252068
C21   C     C_R   0.929628 0.493898 0.363998 0.145210
C22   C     C_R   0.888081 0.452796 0.400249 0.065465
C23   C     C_R   0.839123 0.820097 0.281605 -0.131401
C24   C     C_R   0.856246 0.491840 0.445257 0.139359
C25   C     C_R   0.959655 0.453794 0.318266 -0.238343
C26   C     C_R   0.955067 0.376675 0.313869 -0.117783
C27   C     C_R   0.921643 0.339512 0.356285 0.042821
C28   C     C_R   0.884410 0.375905 0.396676 -0.051374
C29   C     C_R   0.848768 0.338728 0.438086 0.145081
C30   C     C_R   0.810098 0.373763 0.476673 -0.174438
C31   C     C_R   0.813993 0.450218 0.480384 -0.201965
C32   C     C_R   0.929974 0.270667 0.363671 0.442764
C33   C     C_R   0.911370 0.247276 0.419389 -0.065215
C34   C     C_R   0.944309 0.189759 0.516540 -0.104947
C35   C     C_R   0.861008 0.273423 0.447802 -0.288259
C36   C     C_R   0.400716 0.047041 0.600773 -0.328800
C37   C     C_R   0.332843 0.989155 0.528977 0.091906
C38   C     C_R   0.334225 0.918254 0.481738 0.258317
C39   C     C_R   0.398722 0.900609 0.512125 -0.213400
C40   C     C_R   0.472910 0.966908 0.577077 -0.014577
C41   C     C_R   0.473706 0.040071 0.622014 0.200091
C42   C     C_R   0.394954 0.821764 0.476017 0.460882
C43   C     C_R   0.469171 0.817056 0.492450 0.461588
C44   C     C_R   0.546693 0.891574 0.544085 -0.153328
C45   C     C_R   0.761768 0.814709 0.346862 -0.125649
C46   C     C_R   0.548322 0.963894 0.591501 -0.022680
C47   C     C_R   0.625935 0.036411 0.647474 0.143907
C48   C     C_R   0.624323 0.105304 0.697159 -0.208610
C49   C     C_R   0.548385 0.106442 0.684964 -0.201036
C50   C     C_R   0.620754 0.899334 0.540587 -0.261011
C51   C     C_R   0.696526 0.976341 0.585306 0.078425
C52   C     C_R   0.702060 0.040332 0.647307 0.227733
C53   C     C_R   0.300323 0.353465 0.773588 -0.223305
C54   C     C_R   0.281620 0.418978 0.802566 0.456484
C55   C     C_R   0.346319 0.497180 0.861340 -0.247412
C56   C     C_R   0.022705 0.198483 0.452879 -0.164567
C57   C     C_R   0.429934 0.512522 0.890837 0.079529
C58   C     C_R   0.449777 0.449419 0.859161 0.109200
C59   C     C_R   0.384693 0.370086 0.798879 0.460860
C60   C     C_R   0.620744 0.738202 0.071652 -0.272383
C61   C     C_R   0.691692 0.776931 0.140506 -0.176142
C62   C     C_R   0.539983 0.693401 0.066559 0.175703
C63   C     C_R   0.683098 0.772033 0.205392 0.119362
C64   C     C_R   0.602033 0.736943 0.202299 -0.367096
C65   C     C_R   0.530027 0.697928 0.132884 0.528136
C66   C     C_R   0.097259 0.029598 0.230763 0.097917
C67   C     C_R   0.831386 0.062917 0.573136 -0.152478
C68   C     C_R   0.135420 0.981896 0.205417 0.289931
C69   C     C_R   0.159506 0.988623 0.147547 -0.203365
C70   C     C_R   0.148003 0.043833 0.116870 0.180217
C71   C     C_R   0.117792 0.096124 0.147611 -0.172096
C72   C     C_R   0.091460 0.088300 0.203226 -0.224788
C73   C     C_R   0.172693 0.039260 0.922554 -0.216955
C74   C     C_R   0.138375 0.041266 0.853646 -0.172740
C75   C     C_R   0.132396 0.966721 0.932612 0.185920
C76   C     C_R   0.063972 0.970639 0.793446 0.090007
C77   C     C_R   0.030419 0.894558 0.800130 -0.206162
C78   C     C_R   0.015488 0.947943 0.288828 -0.203331
C79   C     C_R   0.064616 0.891976 0.869451 0.283911
C80   C     C_R   0.064144 0.021989 0.286766 0.032951
H1    H     H_    0.872144 0.732556 0.512445 0.089997
H2    H     H_    0.158165 0.861813 0.443685 0.141261
H3    H     H_    0.073871 0.116053 0.762941 0.101762
H4    H     H_    0.942574 0.843937 0.637126 0.098609
H5    H     H_    0.131066 0.240873 0.751523 0.139362
H6    H     H_    0.022671 0.745757 0.390958 0.088055
H7    H     H_    0.851982 0.605121 0.497337 0.119827
H8    H     H_    0.980482 0.608886 0.352685 0.122712
H9    H     H_    0.990288 0.483986 0.288851 0.145483
H10   H     H_    0.731672 0.856613 0.496113 0.092087
H11   H     H_    0.982574 0.349315 0.281155 0.182250
H12   H     H_    0.838937 0.250561 0.484821 0.139996
H13   H     H_    0.781641 0.344982 0.507981 0.128989
H14   H     H_    0.788070 0.478996 0.514109 0.131964
H15   H     H_    0.398667 0.099959 0.638014 0.169115
H16   H     H_    0.615818 0.848756 0.494547 0.147151
H17   H     H_    0.859321 0.816587 0.236921 0.097334
H18   H     H_    0.681658 0.161097 0.742263 0.153235
H19   H     H_    0.549219 0.162140 0.721156 0.140241
H20   H     H_    0.753053 0.806929 0.141594 0.128990
H21   H     H_    0.628938 0.736899 0.020923 0.156891
H22   H     H_    0.594050 0.734606 0.252206 0.133629
H23   H     H_    0.330828 0.546110 0.884097 0.189552
H24   H     H_    0.897806 0.190249 0.536925 0.097354
H25   H     H_    0.168244 0.099500 0.848946 0.135239
H26   H     H_    0.226477 0.096597 0.970088 0.148348
H27   H     H_    0.108973 0.138922 0.124409 0.140716
H28   H     H_    0.063591 0.126178 0.222953 0.158328
H29   H     H_    0.974399 0.838787 0.753307 0.122687
H30   H     H_    0.185188 0.949561 0.125214 0.143579
H31   H     H_    0.711445 0.808756 0.363563 0.104627
H32   H     H_    0.050392 0.210452 0.415408 0.167682
H33   H     H_    0.853201 0.126520 0.614118 0.118985
H34   H     H_    0.995914 0.884047 0.250021 0.125096
H35   H     H_    0.276274 0.253084 0.626126 0.166240
N1    N     N_R   0.052570 0.055840 0.395080 -0.057767
N2    N     N_R   0.954640 0.834860 0.500130 -0.039541
N3    N     N_R   0.122510 0.958410 0.460270 -0.065931
N4    N     N_R   0.990190 0.031260 0.644790 -0.039392
N5    N     N_R   0.947430 0.944160 0.604920 -0.040508
N6    N     N_R   0.165270 0.045500 0.500140 -0.071568
N7    N     N_R   0.109810 0.150880 0.644800 -0.049684
N8    N     N_R   0.002890 0.838790 0.460260 -0.036550
N9    N     N_2   0.495268 0.587567 0.956515 -0.062795
N10   N     N_2   0.471724 0.629535 0.995814 -0.049258
N11   N     N_2   0.154711 0.041367 0.049099 -0.089507
N12   N     N_R   0.834730 0.954500 0.499860 -0.039404
N13   N     N_2   0.145578 0.972713 0.006384 -0.087980
N14   N     N_R   0.890190 0.849120 0.355200 -0.038291
N15   N     N_R   0.997110 0.161210 0.539740 -0.046774
N16   N     N_R   0.841940 0.845190 0.395070 -0.042543
N17   N     N_R   0.045360 0.165140 0.499870 -0.051370
N18   N     N_R   0.877490 0.041590 0.539730 -0.041731
N19   N     N_R   0.009810 0.968740 0.355210 -0.051502
N20   N     N_R   0.158060 0.154810 0.604930 -0.060586
Ni1   Ni    Ni4+2 0.104370 0.104380 0.500010 0.230810
Ni2   Ni    Ni4+2 0.895630 0.895620 0.499990 0.212188
Ni3   Ni    Ni4+2 0.006290 0.904630 0.408560 0.207287
Ni4   Ni    Ni4+2 0.993710 0.095370 0.591440 0.210551
C81   C     C_3   0.164959 0.173827 0.390670 -0.985316
H36   H     H_    0.218589 0.166438 0.384287 0.264454
H37   H     H_    0.151899 0.213166 0.362751 0.251168
H38   H     H_    0.183533 0.206921 0.452474 0.255616
O1    O     O_3   0.309208 0.152927 0.553633 -0.790146
H39   H     H_    0.360834 0.152325 0.552196 0.314702
O2    O     O_3   0.958861 0.230243 0.318620 -0.786969
H40   H     H_    0.934591 0.170415 0.310968 0.311465
C82   C     C_3   0.280877 0.874982 0.395996 -0.947468
H41   H     H_    0.317293 0.859276 0.365475 0.270763
H42   H     H_    0.222820 0.815741 0.377955 0.242911
H43   H     H_    0.263241 0.918052 0.376769 0.246021
O3    O     O_3   0.320018 0.747929 0.426214 -0.693962
H44   H     H_    0.275495 0.751966 0.440911 0.312615
O4    O     O_3   0.463675 0.739754 0.454954 -0.702013
H45   H     H_    0.513247 0.738125 0.486323 0.307400
C83   C     C_3   0.786266 0.110444 0.711671 -1.056421
H46   H     H_    0.784580 0.118028 0.767193 0.260216
H47   H     H_    0.837606 0.094947 0.712257 0.261264
H48   H     H_    0.801127 0.171265 0.707455 0.252991
C84   C     C_3   0.539602 0.466040 0.895018 -0.935039
H49   H     H_    0.546672 0.408790 0.874762 0.253837
H50   H     H_    0.580972 0.515385 0.883503 0.242351
H51   H     H_    0.562371 0.489029 0.957628 0.257944
O5    O     O_3   0.401092 0.306365 0.765877 -0.742498
H52   H     H_    0.452191 0.332529 0.758439 0.319654
O6    O     O_3   0.449844 0.656370 0.126950 -0.742487
H53   H     H_    0.453670 0.664684 0.178403 0.324574
O7    O     O_3   0.201891 0.410214 0.774519 -0.738804
H54   H     H_    0.169217 0.366139 0.721008 0.316956
C85   C     C_3   0.023269 0.812301 0.877997 -0.996692
H55   H     H_    0.971330 0.758970 0.823003 0.248148
H56   H     H_    0.070671 0.792788 0.898795 0.256631
H57   H     H_    0.996702 0.824086 0.919549 0.255952
C86   C     C_3   0.152349 0.925360 0.239505 -1.026242
H58   H     H_    0.175120 0.956578 0.302203 0.256581
H59   H     H_    0.094143 0.863554 0.214056 0.250244
H60   H     H_    0.201774 0.912531 0.228539 0.258753

loop_
_geom_bond_atom_site_label_1
_geom_bond_atom_site_label_2
_ccdc_geom_bond_type
C66   C68   A    
C71   H27   S    
C8    H3    S    
C73   C74   A    
C3    C23   A    
C19   C20   A    
C81   H38   S    
C10   N6    A    
C2    C12   A    
C53   C59   A    
N20   Ni1   S    
C12   N12   A    
C53   C54   A    
C40   C46   A    
N8    Ni3   S    
C26   C27   A    
C29   C30   A    
C74   C76   A    
C18   C24   A    
C79   C85   S    
C12   H10   S    
O5    H52   S    
C67   N18   A    
C81   H37   S    
N7    Ni4   S    
C75   N13   S    
C30   H13   S    
C38   C39   A    
C13   N8    A    
C11   C14   A    
C78   C80   A    
N1    N19   A    
C85   H55   S    
C4    C33   S    
C55   H23   S    
C18   H7    S    
C23   N14   A    
C60   C62   A    
C18   C19   A    
C46   C47   A    
C61   C63   A    
C86   H58   S    
C59   O5    S    
C6    C15   A    
C15   C19   S    
C66   C72   A    
N14   Ni3   S    
C72   H28   S    
C68   C69   A    
C13   H6    S    
C17   C76   S    
C82   H43   S    
C70   C71   A    
C1    N1    A    
C43   O4    S    
C42   O3    S    
C6    N2    A    
C16   C37   S    
C35   H12   S    
C70   N11   S    
C6    H1    S    
C22   C28   A    
C21   C22   A    
C4    C56   A    
C73   C75   A    
C7    N3    A    
C36   C41   A    
C78   H34   S    
N15   Ni4   S    
C41   C49   A    
C44   C46   A    
C39   C42   A    
C57   C58   A    
C77   C79   A    
C4    C34   A    
C51   C52   A    
C84   H51   S    
O7    H54   S    
C76   C77   A    
C2    C67   A    
C67   H33   S    
C54   O7    S    
C39   C40   A    
C68   C86   S    
C26   H11   S    
C65   O6    S    
C3    C45   A    
C34   H24   S    
C60   C61   A    
N3    N6    A    
C83   H46   S    
C64   H22   S    
C43   C44   A    
C37   C38   A    
N16   Ni2   S    
C49   H19   S    
C69   H30   S    
C47   C48   A    
N17   Ni1   S    
C14   C53   S    
C50   C51   A    
C5    C14   A    
C10   O1    S    
C81   H36   S    
C77   H29   S    
C78   N19   A    
C86   H60   S    
C38   C82   S    
O4    H45   S    
C56   N17   A    
C1    C81   S    
C9    C17   A    
C40   C41   A    
C23   H17   S    
C45   N16   A    
C55   C57   A    
C7    C16   A    
O6    H53   S    
C22   C24   A    
C58   C59   A    
C11   N7    A    
C42   C43   A    
C60   H21   S    
C48   H18   S    
O3    H44   S    
O2    H40   S    
C44   C50   A    
C5    N20   A    
C21   C25   A    
C54   C55   A    
C28   C29   A    
N11   N13   D    
C62   C65   A    
C27   C32   A    
C83   H48   S    
N2    Ni2   S    
N12   N18   A    
C82   H42   S    
O1    H39   S    
N19   Ni3   S    
C62   N10   S    
N4    N5    A    
C45   H31   S    
N18   Ni4   S    
C47   C52   A    
N1    Ni1   S    
C3    C63   S    
C52   C83   S    
C31   H14   S    
C66   C80   S    
C29   C35   A    
C25   H9    S    
C8    C17   A    
N15   N17   A    
N4    Ni4   S    
C32   C33   A    
C13   C15   A    
C25   C26   A    
C24   C31   A    
C71   C72   A    
C10   C16   A    
C64   C65   A    
C57   N9    S    
C36   H15   S    
C50   H16   S    
C73   H26   S    
C30   C31   A    
C85   H56   S    
C11   H5    S    
C48   C49   A    
C20   H8    S    
C83   H47   S    
C33   C35   A    
C82   H41   S    
N6    Ni1   S    
N2    N8    A    
C69   C70   A    
C84   H49   S    
C86   H59   S    
N7    N20   A    
C2    C51   S    
C9    H4    S    
C63   C64   A    
C61   H20   S    
C7    H2    S    
C32   O2    S    
C20   C21   A    
C34   N15   A    
C36   C37   A    
C27   C28   A    
C9    N5    A    
C1    C80   A    
C58   C84   S    
N5    Ni2   S    
N12   Ni2   S    
N14   N16   A    
N3    Ni3   S    
C75   C79   A    
C56   H32   S    
C5    H35   S    
C8    N4    A    
C84   H50   S    
N9    N10   D    
C74   H25   S    
C85   H57   S    
