data_mof_unit_57704.cif
_audit_creation_date              2012-12-11T14:21:00-0500
_audit_creation_method            fapswitch 2.2
_symmetry_space_group_name_H-M    P1
_symmetry_Int_Tables_number       1
_space_group_crystal_system       triclinic
_cell_length_a                    11.494378
_cell_length_b                    11.639452
_cell_length_c                    19.516409
_cell_angle_alpha                 90.136923
_cell_angle_beta                  89.678222
_cell_angle_gamma                 59.631545
_cell_volume                      2252.73069026

loop_
_atom_site_label
_atom_site_type_symbol
_atom_type_description
_atom_site_fract_x
_atom_site_fract_y
_atom_site_fract_z
_atom_type_partial_charge
C1    C     C_R   0.640725 0.116944 0.599243 0.556128
C2    C     C_1   0.653365 0.149023 0.668597 0.001593
C3    C     C_R   0.693885 0.559884 0.206204 0.003635
C4    C     C_R   0.613028 0.745320 0.598477 0.548486
C5    C     C_R   0.560976 0.623387 0.234937 -0.007680
C6    C     C_R   0.536610 0.708518 0.289728 0.009506
C7    C     C_R   0.778110 0.591776 0.313215 -0.172899
C8    C     C_R   0.802588 0.537261 0.247404 -0.168115
C9    C     C_R   0.448221 0.621511 0.205493 -0.088069
C10   C     C_R   0.316893 0.722685 0.218669 0.277983
C11   C     C_R   0.295486 0.817488 0.266768 -0.088914
C12   C     C_1   0.641779 0.703239 0.667852 0.002968
C13   C     C_R   0.403474 0.815559 0.299409 -0.138868
C14   C     C_R   0.645691 0.683736 0.332950 0.014608
C15   C     C_R   0.131211 0.203508 0.196649 -0.044670
C16   C     C_R   0.240850 0.145215 0.598031 0.545181
C17   C     C_R   0.183191 0.276183 0.229220 -0.005147
C18   C     C_R   0.169290 0.291650 0.300376 -0.030350
C19   C     C_R   0.097437 0.130605 0.309183 0.203921
C20   C     C_R   0.082491 0.136308 0.237632 -0.160565
C21   C     C_R   0.236317 0.344500 0.193157 -0.117705
C22   C     C_R   0.246204 0.446501 0.224924 -0.077829
C23   C     C_1   0.127051 0.199536 0.859396 0.002799
C24   C     C_R   0.202924 0.482484 0.292673 0.131998
C25   C     C_R   0.163085 0.405816 0.329891 -0.093424
C26   C     C_R   0.159039 0.193865 0.339348 0.013358
C27   C     C_R   0.653965 0.168122 0.184325 -0.005891
C28   C     C_R   0.619603 0.078894 0.394356 0.539369
C29   C     C_R   0.714875 0.032523 0.203180 0.038101
C30   C     C_R   0.715577 0.999208 0.273237 0.015474
C31   C     C_R   0.555836 0.232821 0.297129 -0.151929
C32   C     C_R   0.570699 0.265431 0.231084 -0.171591
C33   C     C_R   0.780470 0.929529 0.153978 -0.085806
C34   C     C_1   0.171160 0.170364 0.727705 -0.031091
C35   C     C_R   0.863971 0.798815 0.174195 -0.073235
C36   C     C_R   0.878891 0.768219 0.243231 -0.085606
C37   C     C_R   0.801732 0.865086 0.292202 -0.108444
C38   C     C_R   0.632606 0.102192 0.320887 -0.018211
C39   C     C_R   0.081664 0.231578 0.928698 0.547541
C40   C     C_R   0.614640 0.742860 0.400901 0.525181
C41   C     C_R   0.683478 0.605060 0.929620 0.556794
C42   C     C_R   0.707788 0.207072 0.930185 0.546153
C43   C     C_R   0.082097 0.236170 0.125966 0.525389
C44   C     C_R   0.711595 0.540606 0.131910 0.572240
C45   C     C_1   0.150335 0.182783 0.798981 -0.031772
C46   C     C_R   0.703308 0.207434 0.124070 0.523640
C47   C     C_R   0.235111 0.147402 0.404228 0.549781
C48   C     C_1   0.670275 0.646973 0.860208 0.001545
C49   C     C_1   0.655223 0.683303 0.728358 -0.031428
C50   C     C_1   0.663621 0.666838 0.799679 -0.032368
C51   C     C_3   0.304866 0.575530 0.364932 -0.283694
C52   C     C_3   0.198132 0.787208 0.120007 -0.114091
C53   C     C_3   0.908250 0.155070 0.358995 -0.103954
C54   C     C_1   0.194764 0.160745 0.667269 0.004781
C55   C     C_1   0.677700 0.192118 0.860838 0.003268
C56   C     C_1   0.658563 0.166987 0.729001 -0.031280
C57   C     C_1   0.665086 0.181402 0.800363 -0.030895
Cr1   Cr    Cr6+3 0.404720 0.198220 0.499960 1.007960
Cr2   Cr    Cr6+3 0.698290 0.897110 0.500380 1.010348
Cr3   Cr    Cr6+3 0.396970 0.904720 0.499610 1.035228
Cr4   Cr    Cr6+3 0.926180 0.151990 0.028120 0.996569
Cr5   Cr    Cr6+3 0.921330 0.451820 0.027470 1.012055
Cr6   Cr    Cr6+3 0.626260 0.446870 0.028710 0.996376
H1    H     H_    0.861733 0.570095 0.346512 0.108245
H2    H     H_    0.458734 0.548571 0.168197 0.142875
H3    H     H_    0.904798 0.481841 0.227909 0.138854
H4    H     H_    0.193810 0.889389 0.278854 0.201144
H5    H     H_    0.382850 0.898620 0.331279 0.170156
H6    H     H_    0.266664 0.322302 0.139921 0.137315
H7    H     H_    0.030038 0.090555 0.214698 0.160248
H8    H     H_    0.102073 0.656536 0.347843 0.243026
H9    H     H_    0.284964 0.670919 0.388341 0.167892
H10   H     H_    0.398131 0.536040 0.333590 0.150606
H11   H     H_    0.319257 0.504949 0.406764 0.136408
H12   H     H_    0.282877 0.499389 0.195368 0.166969
H13   H     H_    0.286370 0.721155 0.086938 0.122430
H14   H     H_    0.187206 0.887611 0.124537 0.136923
H15   H     H_    0.106497 0.799826 0.094404 0.135923
H16   H     H_    0.853242 0.168697 0.310214 0.129610
H17   H     H_    0.885746 0.253395 0.380027 0.111436
H18   H     H_    0.870410 0.110743 0.396771 0.184350
H19   H     H_    0.125611 0.437251 0.381628 0.130386
H20   H     H_    0.490236 0.312776 0.331174 0.151195
H21   H     H_    0.769585 0.949812 0.099576 0.127781
H22   H     H_    0.522693 0.368069 0.218261 0.111224
H23   H     H_    0.918908 0.721454 0.136344 0.134827
H24   H     H_    0.947517 0.667383 0.258640 0.130145
H25   H     H_    0.814019 0.831853 0.344210 0.159005
N1    N     N_2   0.192459 0.599070 0.322354 -0.486812
O1    O     O_R   0.267740 0.231960 0.575440 -0.508036
O2    O     O_R   0.596130 0.579390 0.952730 -0.505270
O3    O     O_R   0.639060 0.321160 0.958670 -0.493774
O4    O     O_R   0.527280 0.186640 0.570530 -0.488608
O5    O     O_R   0.821240 0.124200 0.104370 -0.524854
O6    O     O_R   0.036890 0.167040 0.097840 -0.512936
O7    O     O_R   0.056180 0.349610 0.102880 -0.528900
O8    O     O_R   0.797660 0.564870 0.097950 -0.498334
O9    O     O_R   0.595880 0.584250 0.104270 -0.538275
O10   O     O_R   0.638830 0.325670 0.099150 -0.534254
O11   O     O_3   0.824590 0.350230 0.028100 -0.269447
O12   O     O_R   0.685970 0.784660 0.430010 -0.534177
O13   O     O_R   0.728090 0.003450 0.576380 -0.499193
O14   O     O_R   0.682970 0.789190 0.570490 -0.492704
O15   O     O_R   0.499290 0.771880 0.575530 -0.502261
O16   O     O_R   0.285330 0.030870 0.569730 -0.488713
O17   O     O_R   0.270980 0.227080 0.423890 -0.544949
O18   O     O_R   0.530280 0.182120 0.430050 -0.504011
O19   O     O_R   0.731330 0.998570 0.424830 -0.535905
O20   O     O_3   0.208058 0.730127 0.184873 -0.579538
O21   O     O_3   0.047853 0.067818 0.349844 -0.579462
O22   O     O_R   0.502530 0.767000 0.423990 -0.523553
O23   O     O_R   0.288330 0.026350 0.429250 -0.481733
O24   O     O_3   0.499990 0.000020 0.499980 -0.270811
O25   O     O_R   0.821500 0.119340 0.952830 -0.510099
O26   O     O_R   0.037130 0.162530 0.957360 -0.492440
O27   O     O_R   0.056440 0.344740 0.951340 -0.505261
O28   O     O_R   0.797900 0.560360 0.957470 -0.489101

loop_
_geom_bond_atom_site_label_1
_geom_bond_atom_site_label_2
_ccdc_geom_bond_type
C53   O21   S    
C46   O10   A    
C8    H3    S    
C23   C45   T    
Cr5   O7    S    
C27   C29   A    
C37   H25   S    
C19   C20   A    
C18   C26   A    
C51   H11   S    
C24   N1    S    
C12   C49   T    
C7    C8    A    
C16   O1    A    
C29   C30   A    
C36   C37   A    
C53   H16   S    
Cr1   O4    S    
Cr1   O18   S    
Cr6   O9    S    
C5    C6    A    
C35   H23   S    
C28   O18   A    
C47   O23   A    
C4    O14   A    
C29   C33   A    
C31   H20   S    
C56   C57   S    
C30   C38   A    
C10   O20   S    
C53   H18   S    
C1    C2    S    
C49   C50   S    
C19   C26   A    
Cr5   O28   S    
Cr6   O10   S    
C40   O12   A    
C44   O9    A    
C42   O25   A    
C7    C14   A    
C35   C36   A    
C46   O5    A    
Cr6   O3    S    
Cr4   O26   S    
Cr1   O24   S    
C43   O6    A    
C4    C12   S    
C9    C10   A    
C48   C50   T    
C21   C22   A    
C20   H7    S    
Cr3   O24   S    
C18   C25   A    
C22   H12   S    
C52   H15   S    
C11   H4    S    
C17   C18   A    
C40   O22   A    
C16   C54   S    
C36   H24   S    
C15   C20   A    
C3    C44   S    
Cr2   O12   S    
C53   H17   S    
C24   C25   A    
C3    C8    A    
C10   C11   A    
Cr4   O5    S    
C3    C5    A    
C17   C21   A    
C30   C37   A    
C21   H6    S    
Cr1   O17   S    
C5    C9    A    
Cr6   O11   S    
Cr3   O23   S    
C42   C55   S    
C6    C14   A    
Cr5   O8    S    
C44   O8    A    
C31   C32   A    
H8    N1    S    
C28   C38   S    
Cr2   O24   S    
C47   O17   A    
C43   O7    A    
C34   C45   S    
Cr1   O1    S    
C16   O16   A    
Cr5   O11   S    
C26   C47   S    
C27   C46   S    
C41   O2    A    
C34   C54   T    
C39   O26   A    
C55   C57   T    
C25   H19   S    
C22   C24   A    
Cr4   O11   S    
C51   H9    S    
C52   H14   S    
C19   O21   S    
C15   C17   A    
C27   C32   A    
Cr2   O13   S    
C51   H10   S    
C52   H13   S    
Cr4   O6    S    
Cr2   O19   S    
C31   C38   A    
Cr2   O14   S    
C15   C43   S    
Cr3   O22   S    
C2    C56   T    
C51   N1    S    
C6    C13   A    
C11   C13   A    
C52   O20   S    
C28   O19   A    
C23   C39   S    
C32   H22   S    
C4    O15   A    
C33   C35   A    
C41   C48   S    
C42   O3    A    
C33   H21   S    
C9    H2    S    
C7    H1    S    
Cr5   O27   S    
C14   C40   S    
C1    O4    A    
C39   O27   A    
Cr6   O2    S    
Cr4   O25   S    
C41   O28   A    
Cr3   O15   S    
C1    O13   A    
Cr3   O16   S    
C13   H5    S    
