data_mof_unit_43673.cif
_audit_creation_date              2013-03-05T16:03:59-0500
_audit_creation_method            fapswitch 2.2
_symmetry_space_group_name_H-M    P1
_symmetry_Int_Tables_number       1
_space_group_crystal_system       triclinic
_cell_length_a                    8.186386
_cell_length_b                    14.348595
_cell_length_c                    26.989402
_cell_angle_alpha                 93.684826
_cell_angle_beta                  92.659536
_cell_angle_gamma                 88.206283
_cell_volume                      3159.02273326

loop_
_atom_site_label
_atom_site_type_symbol
_atom_site_description
_atom_site_fract_x
_atom_site_fract_y
_atom_site_fract_z
_atom_type_partial_charge
P1    P     P_3+3 0.090020 0.577590 0.608380 0.480028
O1    O     O_2   0.918080 0.549800 0.616640 -0.364536
O2    O     O_3   0.150070 0.549720 0.556460 -0.408888
O3    O     O_3   0.658250 0.379560 0.591530 -0.399282
O4    O     O_2   0.833930 0.421954 0.673791 -0.373196
O5    O     O_3   0.081346 0.699315 0.619051 -0.555041
O6    O     O_3   0.639938 0.282969 0.679749 -0.485719
H1    H     H_    0.741461 0.223748 0.615096 0.174493
C1    C     C_3   0.662593 0.117436 0.659087 -0.864675
H2    H     H_    0.680591 0.065462 0.627345 0.211320
H3    H     H_    0.771377 0.114581 0.685091 0.273347
P2    P     P_3+3 0.614340 0.285150 0.467650 0.467892
P3    P     P_3+3 0.080723 0.211556 0.574065 0.449654
O7    O     O_2   0.790750 0.271170 0.482550 -0.385738
O8    O     O_3   0.062300 0.331660 0.568480 -0.353148
O9    O     O_2   0.935901 0.167412 0.543253 -0.399223
O10   O     O_3   0.604636 0.255125 0.403795 -0.561060
O11   O     O_3   0.042322 0.191131 0.635639 -0.527938
C2    C     C_3   0.191492 0.182125 0.662935 0.157448
H4    H     H_    0.264415 0.246068 0.661574 0.100838
H5    H     H_    0.261900 0.119732 0.648225 0.070022
C3    C     C_3   0.155612 0.168294 0.716999 -0.054642
H6    H     H_    0.109324 0.235105 0.735115 0.146609
H7    H     H_    0.058968 0.115772 0.718006 0.138601
C4    C     C_3   0.162422 0.259031 0.424375 0.446964
H8    H     H_    0.287134 0.281575 0.435248 0.097006
H9    H     H_    0.079410 0.277538 0.455032 0.116740
C5    C     C_3   0.164492 0.153486 0.414127 -0.943413
H10   H     H_    0.255433 0.132257 0.385971 0.294216
H11   H     H_    0.197280 0.118008 0.448601 0.217952
H12   H     H_    0.041478 0.130894 0.400008 0.245397
Ba1   Ba    Ba6+2 0.849670 0.455410 0.524690 1.558361
C6    C     C_3   0.032411 0.741279 0.575310 0.434078
H13   H     H_    0.908216 0.719334 0.563563 0.090994
H14   H     H_    0.117022 0.722123 0.545219 0.132786
C7    C     C_3   0.032124 0.846864 0.585591 -0.976232
H15   H     H_    0.940563 0.868606 0.613489 0.277858
H16   H     H_    0.001244 0.882575 0.551059 0.225134
H17   H     H_    0.155209 0.868808 0.600039 0.255194
C8    C     C_3   0.672357 0.324601 0.378110 0.246229
H18   H     H_    0.798383 0.337406 0.392721 0.077331
H19   H     H_    0.596785 0.390077 0.381916 0.110589
C9    C     C_3   0.678357 0.290391 0.323337 -0.134648
H20   H     H_    0.729742 0.217723 0.320114 0.150560
H21   H     H_    0.761209 0.334280 0.304055 0.090122
P4    P     P_3+3 0.099670 0.422330 0.391610 0.501763
O12   O     O_2   0.271610 0.450170 0.383330 -0.341064
O13   O     O_3   0.039630 0.450200 0.443530 -0.410151
O14   O     O_3   0.531440 0.620360 0.408460 -0.387798
O15   O     O_3   0.109074 0.300654 0.380901 -0.533334
P5    P     P_3+3 0.113860 0.789596 0.426178 0.433730
O16   O     O_3   0.643350 0.612530 0.521650 -0.378520
O17   O     O_3   0.127390 0.668260 0.431510 -0.395082
O18   O     O_2   0.259643 0.832911 0.456876 -0.388151
O19   O     O_3   0.149901 0.814392 0.365120 -0.519958
Ba2   Ba    Ba6+2 0.340150 0.544510 0.475310 1.565365
P6    P     P_3+3 0.658724 0.393504 0.656309 0.496408
C10   C     C_3   0.639924 0.214626 0.639922 0.491806
H22   H     H_    0.521981 0.218466 0.618393 0.001631
H23   H     H_    0.553147 0.098372 0.678324 0.269271
O20   O     O_3   0.546340 0.387390 0.478340 -0.381807
C11   C     C_3   0.523433 0.689301 0.623033 0.398948
H24   H     H_    0.403277 0.668635 0.605822 0.107607
H25   H     H_    0.608943 0.627661 0.622970 0.101541
C12   C     C_3   0.497476 0.725428 0.676419 -0.911658
H26   H     H_    0.417683 0.789517 0.676865 0.280420
H27   H     H_    0.437550 0.672274 0.696794 0.217807
H28   H     H_    0.616932 0.742057 0.695619 0.264910
P7    P     P_3+3 0.584104 0.729620 0.534206 0.423710
O21   O     O_2   0.398940 0.728800 0.517420 -0.376422
O22   O     O_3   0.590357 0.760553 0.597989 -0.572700
C13   C     C_3   0.064172 0.751151 0.332532 0.393494
H29   H     H_    0.100615 0.677822 0.339466 0.136521
H30   H     H_    0.930315 0.761472 0.336206 0.049642
C14   C     C_3   0.104920 0.767993 0.279565 -0.858510
H31   H     H_    0.239200 0.761617 0.275440 0.280925
H32   H     H_    0.045227 0.715300 0.253574 0.248183
H33   H     H_    0.061042 0.838929 0.270040 0.253456
P8    P     P_3+3 0.532384 0.604669 0.343689 0.479410
C15   C     C_3   0.572550 0.782081 0.357201 0.456628
H34   H     H_    0.688062 0.766265 0.378424 0.026362
O23   O     O_2   0.360170 0.572382 0.325610 -0.385802
O24   O     O_3   0.546036 0.713561 0.318407 -0.522225
H35   H     H_    0.469111 0.786391 0.382517 0.168904
H36   H     H_    0.690169 0.875407 0.310721 0.260289
C16   C     C_3   0.585882 0.876732 0.335674 -0.931516
H37   H     H_    0.606100 0.931330 0.366210 0.226060
H38   H     H_    0.471138 0.894424 0.314281 0.281427
C17   C     C_R   0.019468 0.428405 0.181078 0.563708
O25   O     O_2   0.054572 0.360435 0.204914 -0.553388
N1    N     N_R   0.936715 0.504705 0.203318 -0.164272
C18   C     C_R   0.892628 0.580335 0.175407 0.509659
C19   C     C_2   0.738595 0.525439 0.269274 -0.098841
C20   C     C_3   0.694534 0.519218 0.322965 0.184097
C21   C     C_1   0.979589 0.482205 0.343167 0.272033
C22   C     C_2   0.019827 0.479863 0.295742 -0.188779
C23   C     C_2   0.893997 0.504583 0.255527 0.072588
C24   C     C_R   0.016825 0.503807 0.102078 -0.065064
C25   C     C_R   0.061154 0.427342 0.130596 -0.075394
C26   C     C_R   0.145788 0.350890 0.108026 -0.057470
C27   C     C_R   0.931964 0.580719 0.124823 -0.047773
C28   C     C_2   0.844917 0.526321 0.357345 -0.519057
H39   H     H_    0.143844 0.460715 0.285882 0.216948
H40   H     H_    0.182879 0.291202 0.128942 0.179078
C29   C     C_2   0.349641 0.476480 0.642364 -0.440174
C30   C     C_R   0.177133 0.422897 0.976743 0.041108
C31   C     C_R   0.053984 0.581309 0.971633 0.040097
C32   C     C_R   0.135130 0.501746 0.948833 0.086633
C33   C     C_R   0.254315 0.344778 0.951815 -0.199214
C34   C     C_R   0.291084 0.344652 0.901941 -0.061968
C35   C     C_R   0.253077 0.422293 0.874240 -0.074507
C36   C     C_R   0.174814 0.500990 0.897517 -0.060294
C37   C     C_R   0.136460 0.578904 0.869457 -0.062320
C38   C     C_R   0.178312 0.577511 0.818930 0.528113
N2    N     N_R   0.255211 0.499549 0.796332 -0.167777
C39   C     C_R   0.291535 0.422306 0.823618 0.529384
C40   C     C_2   0.454601 0.477414 0.730729 -0.144384
C41   C     C_3   0.500103 0.482330 0.676957 0.132175
C42   C     C_1   0.213511 0.519192 0.656594 0.293467
C43   C     C_2   0.173099 0.522132 0.703941 -0.171762
C44   C     C_2   0.298955 0.498906 0.744228 0.108130
O26   O     O_2   0.356617 0.352909 0.803732 -0.533165
C45   C     C_R   0.140337 0.424306 0.028188 0.041754
C46   C     C_R   0.056691 0.503197 0.050775 0.086904
C47   C     C_R   0.012172 0.581408 0.022643 0.042201
C48   C     C_R   0.184715 0.349308 0.058248 -0.201409
H41   H     H_    0.550177 0.463526 0.758749 0.161656
H42   H     H_    0.350305 0.282693 0.885054 0.185616
H43   H     H_    0.287375 0.281436 0.969553 0.132626
H44   H     H_    0.251263 0.287771 0.044702 0.131422
O27   O     O_2   0.819713 0.647914 0.194616 -0.595195
C49   C     C_R   0.887540 0.656742 0.096530 -0.078148
H45   H     H_    0.642073 0.539079 0.241512 0.176329
H46   H     H_    0.821587 0.716923 0.112811 0.171010
C50   C     C_R   0.017883 0.658418 0.942278 -0.199088
C51   C     C_R   0.058232 0.657088 0.892593 -0.074752
O28   O     O_2   0.148221 0.646381 0.795347 -0.579612
C52   C     C_R   0.926333 0.657233 0.046818 -0.200508
H47   H     H_    0.959229 0.722051 0.956550 0.131474
H48   H     H_    0.027493 0.718361 0.872216 0.175191
H49   H     H_    0.048731 0.540690 0.713744 0.177337
H50   H     H_    0.885381 0.718546 0.028354 0.130047
H51   H     H_    0.845106 0.570231 0.391668 0.175842
H52   H     H_    0.353185 0.438035 0.606407 0.169063
C53   C     C_R   0.691733 0.064956 0.473418 -0.118840
C54   C     C_R   0.511908 0.199055 0.502540 0.262354
C55   C     C_R   0.374528 0.230388 0.528236 -0.523031
C56   C     C_R   0.275260 0.167688 0.549185 0.233584
C57   C     C_R   0.319602 0.073133 0.548138 -0.332580
C58   C     C_R   0.461396 0.040218 0.524554 0.067833
C59   C     C_R   0.556632 0.102211 0.499877 -0.005826
H53   H     H_    0.339153 0.303743 0.529358 0.171518
C60   C     C_R   0.641134 0.908641 0.498790 0.006303
C61   C     C_R   0.736350 0.969526 0.473473 0.052998
C62   C     C_R   0.685298 0.812591 0.497769 0.239478
C63   C     C_R   0.820450 0.778708 0.472100 -0.528656
C64   C     C_R   0.920705 0.838944 0.450021 0.257157
C65   C     C_R   0.877824 0.934274 0.449759 -0.304676
C66   C     C_R   0.505235 0.945299 0.524353 -0.128291
H54   H     H_    0.241934 0.025274 0.564891 0.154749
H55   H     H_    0.955807 0.980588 0.432107 0.159622
H56   H     H_    0.853715 0.705104 0.472020 0.169528
H57   H     H_    0.764555 0.108998 0.452784 0.166832
H58   H     H_    0.430721 0.900630 0.544166 0.169088
N3    N     N_R   0.515006 0.293352 0.299255 0.277213
O29   O     O_R   0.403062 0.238474 0.312200 -0.322853
O30   O     O_R   0.482449 0.347927 0.263198 -0.387502
N4    N     N_R   0.302310 0.135899 0.744289 0.244336
O31   O     O_R   0.427551 0.189355 0.751657 -0.314860
O32   O     O_R   0.307078 0.054118 0.762584 -0.368753

loop_
_geom_bond_atom_site_label_1
_geom_bond_atom_site_label_2
_geom_bond_distance
_ccdc_geom_bond_type
C19   C20   1.518246 S    
N2    C44   1.466534 S    
C21   C22   1.334496 D    
C55   C56   1.394009 A    
C51   H48   1.083614 S    
C29   H52   1.086148 S    
C38   N2    1.386902 Am   
C45   C46   1.422463 A    
N3    O29   1.300832 A    
H36   C16   1.110613 S    
C4    C5    1.521603 S    
C24   C46   1.436652 A    
P7    C62   1.832636 S    
C7    H17   1.110904 S    
C39   O26   1.219862 D    
P3    O11   1.750230 S    
C17   C25   1.418877 A    
C26   C48   1.393693 A    
C7    H15   1.110691 S    
C2    H5    1.111113 S    
Ba1   O20   2.896572 S    
C61   C65   1.413267 A    
C19   H45   1.085504 S    
C15   O24   1.403558 S    
C16   H38   1.110727 S    
C48   H44   1.075623 S    
C49   C52   1.393548 A    
N2    C39   1.386772 Am   
C26   H40   1.083654 S    
C6    C7    1.522498 S    
O1    Ba1   2.791619 S    
P1    O1    1.505200 D    
P1    C42   1.839148 S    
C38   O28   1.222041 D    
P2    C54   1.844897 S    
P7    O22   1.748747 S    
C40   C44   1.362134 D    
C34   C35   1.400217 A    
Ba1   O16   2.777515 S    
C15   C16   1.520041 S    
O16   P7    1.750366 S    
C65   H55   1.082423 S    
H1    C10   1.107600 S    
C4    O15   1.396527 S    
C40   H41   1.085595 S    
C8    C9    1.529909 S    
P4    C21   1.840128 S    
C35   C36   1.407526 A    
C12   H27   1.107763 S    
C37   C51   1.400222 A    
C30   C45   1.433119 A    
C11   H25   1.110594 S    
C31   C32   1.422459 A    
C35   C39   1.416228 A    
C17   N1    1.387307 Am   
C1    H2    1.111088 S    
C33   C34   1.392756 A    
O6    C10   1.407694 S    
O19   C13   1.403403 S    
C21   C28   1.314111 D    
C15   H35   1.110258 S    
C13   H29   1.109758 S    
C3    N4    1.458676 S    
N4    O32   1.300813 A    
C63   H56   1.082258 S    
P6    C41   1.869067 S    
N3    O30   1.300788 A    
P2    Ba1   3.403763 S    
C64   C65   1.401871 A    
Ba1   O13   2.740399 S    
P7    O21   1.561988 D    
C13   C14   1.518872 S    
C3    H6    1.111684 S    
C36   C37   1.409509 A    
C14   H33   1.110529 S    
C9    N3    1.460083 S    
P4    O13   1.531243 S    
C58   C66   1.397274 A    
C54   C55   1.395899 A    
P1    O5    1.751574 S    
N4    O31   1.299905 A    
C50   C51   1.394664 A    
C18   O27   1.221965 D    
C56   C57   1.392304 A    
C31   C47   1.433879 A    
P8    C20   1.859324 S    
C13   H30   1.109320 S    
C52   H50   1.075665 S    
N1    C18   1.389486 Am   
C16   H37   1.110338 S    
O11   C2    1.403393 S    
C45   C48   1.417266 A    
C53   H57   1.079133 S    
C4    H8    1.101699 S    
P5    C64   1.838899 S    
P1    Ba1   3.367682 S    
C32   C36   1.436467 A    
P1    O2    1.531272 S    
O10   C8    1.393119 S    
C63   C64   1.389874 A    
C60   C66   1.406529 A    
C50   H47   1.075689 S    
C14   H31   1.110366 S    
C11   H24   1.108791 S    
C9    H21   1.108624 S    
O2    Ba2   2.740767 S    
C25   C26   1.400044 A    
C12   H28   1.110617 S    
C22   C23   1.512547 S    
C2    C3    1.528220 S    
C6    H13   1.100299 S    
C53   C59   1.416377 A    
N1    C23   1.467636 S    
C14   H32   1.107090 S    
C20   C28   1.508866 S    
O3    Ba1   2.741510 S    
C18   C27   1.417566 A    
C53   C61   1.406151 A    
C8    H18   1.103845 S    
O12   Ba2   2.792182 S    
P2    O7    1.491942 D    
C12   H26   1.110929 S    
Ba2   O21   2.856270 S    
C1    H3    1.109381 S    
C9    H20   1.111750 S    
C33   H43   1.075631 S    
C3    H7    1.112016 S    
C29   C41   1.511811 S    
C22   H39   1.084088 S    
C60   C62   1.412704 A    
C28   H51   1.086285 S    
C7    H16   1.107469 S    
O14   Ba2   2.741047 S    
C19   C23   1.360648 D    
C43   C44   1.508642 S    
C37   C38   1.420161 A    
O17   Ba2   2.732966 S    
O13   Ba2   2.912512 S    
P4    O12   1.505531 D    
C5    H10   1.110422 S    
C11   C12   1.521666 S    
Ba2   O20   2.776881 S    
C31   C50   1.417626 A    
C5    H12   1.110574 S    
C43   H49   1.084640 S    
O7    Ba1   2.856078 S    
C15   H34   1.107622 S    
O8    Ba1   2.732209 S    
P8    O23   1.545400 D    
C42   C43   1.332523 D    
C47   C52   1.416566 A    
C4    H9    1.108865 S    
C24   C27   1.407775 A    
P4    O15   1.751103 S    
C58   C59   1.417885 A    
O5    C6    1.396099 S    
O4    P6    1.547770 D    
C1    H23   1.106311 S    
P5    O18   1.544508 D    
C2    H4    1.113632 S    
P3    O8    1.740790 S    
C55   H53   1.081784 S    
C10   H22   1.105258 S    
C5    H11   1.107275 S    
C40   C41   1.521472 S    
P2    O10   1.748165 S    
P8    O24   1.753379 S    
P2    O20   1.566717 S    
C30   C32   1.423656 A    
C8    H19   1.110418 S    
C6    H14   1.107465 S    
Ba1   Ba2   4.535408 S    
C11   O22   1.400171 S    
P5    O19   1.748233 S    
O2    Ba1   2.911621 S    
C57   H54   1.083608 S    
C54   C59   1.424040 A    
C27   C49   1.400612 A    
O14   P8    1.748514 S    
C1    C10   1.521292 S    
C49   H46   1.083642 S    
C24   C25   1.409105 A    
P3    O9    1.544718 D    
P4    Ba2   3.368454 S    
C62   C63   1.390902 A    
C66   H58   1.080577 S    
C29   C42   1.315945 D    
P3    C56   1.834521 S    
P5    O17   1.755771 S    
C17   O25   1.222107 D    
C57   C58   1.404008 A    
O6    P6    1.758577 S    
O16   Ba2   2.895571 S    
O3    P6    1.746782 S    
C34   H42   1.083773 S    
C46   C47   1.423700 A    
C60   C61   1.416475 A    
C30   C33   1.416505 A    
