data_mof_unit_15537.cif
_audit_creation_date              2012-12-10T18:35:24-0500
_audit_creation_method            fapswitch 2.2
_symmetry_space_group_name_H-M    P1
_symmetry_Int_Tables_number       1
_space_group_crystal_system       triclinic
_cell_length_a                    15.180304
_cell_length_b                    13.819472
_cell_length_c                    10.913224
_cell_angle_alpha                 91.737932
_cell_angle_beta                  90.305312
_cell_angle_gamma                 90.412238
_cell_volume                      2288.26985108

loop_
_atom_site_label
_atom_site_type_symbol
_atom_type_description
_atom_site_fract_x
_atom_site_fract_y
_atom_site_fract_z
_atom_type_partial_charge
C1    C     C_R   0.329142 0.500112 0.506255 0.795338
C2    C     C_R   0.669814 0.500338 0.497635 0.912353
C3    C     C_R   0.046424 0.508022 0.479810 0.056856
C4    C     C_R   0.950005 0.510250 0.478432 0.063918
C5    C     C_R   0.572352 0.109672 0.545925 -0.228977
C6    C     C_R   0.449044 0.889245 0.414348 -0.259664
C7    C     C_R   0.428825 0.106124 0.451115 -0.240755
C8    C     C_R   0.553348 0.894312 0.581404 -0.193066
C9    C     C_R   0.570093 0.211163 0.547446 0.128769
C10   C     C_R   0.449021 0.787805 0.417609 0.113326
C11   C     C_R   0.430399 0.207689 0.451477 0.137592
C12   C     C_R   0.552330 0.792754 0.580283 0.106708
C13   C     C_R   0.500774 0.054564 0.498141 0.142701
C14   C     C_R   0.501043 0.945087 0.497921 0.115757
C15   C     C_R   0.497948 0.498273 0.262150 0.833951
C16   C     C_R   0.492227 0.501914 0.737803 0.853141
C17   C     C_R   0.600030 0.632998 0.123739 -0.176598
C18   C     C_R   0.391894 0.353769 0.867334 -0.183644
C19   C     C_R   0.529379 0.680019 0.899395 -0.226614
C20   C     C_R   0.392298 0.352812 0.120569 -0.212759
C21   C     C_R   0.621712 0.722698 0.075539 -0.060395
C22   C     C_R   0.353912 0.275322 0.925726 -0.055063
C23   C     C_R   0.581952 0.748449 0.964078 -0.048293
C24   C     C_R   0.353200 0.275303 0.054416 -0.038704
C25   C     C_R   0.514757 0.585918 0.943662 0.062757
C26   C     C_R   0.442133 0.425313 0.061845 0.063910
C27   C     C_R   0.537537 0.570259 0.065555 0.060268
C28   C     C_R   0.439173 0.427770 0.932536 0.051268
C29   C     C_R   0.478988 0.506889 0.872238 -0.162209
C30   C     C_R   0.494910 0.495126 0.127881 -0.130476
C31   C     C_R   0.094555 0.593774 0.493772 -0.179707
C32   C     C_R   0.902466 0.453064 0.393313 -0.163941
C33   C     C_R   0.906018 0.563755 0.569419 -0.174418
C34   C     C_R   0.088941 0.419347 0.484782 -0.171472
C35   C     C_R   0.185394 0.592269 0.512906 -0.021370
C36   C     C_R   0.810488 0.449594 0.396753 -0.041536
C37   C     C_R   0.814578 0.558786 0.578899 -0.027105
C38   C     C_R   0.179695 0.414681 0.504634 -0.011396
C39   C     C_R   0.230831 0.501874 0.511299 -0.184961
C40   C     C_R   0.765988 0.501954 0.491598 -0.179059
Cu1   Cu    Cu3+1 0.500000 0.596430 0.500000 0.992202
Cu2   Cu    Cu3+1 0.500000 0.403570 0.500000 1.003998
H1    H     H_    0.629924 0.614006 0.209907 0.203746
H2    H     H_    0.379958 0.357353 0.770531 0.216895
H3    H     H_    0.497338 0.703942 0.817601 0.201888
H4    H     H_    0.383693 0.353305 0.218343 0.174346
H5    H     H_    0.625203 0.251719 0.586182 0.134371
H6    H     H_    0.408407 0.746124 0.353312 0.143353
H7    H     H_    0.375363 0.245693 0.413328 0.153007
H8    H     H_    0.593489 0.754952 0.644063 0.130392
N1    N     N_R   0.500000 0.258690 0.500000 -0.184423
N2    N     N_R   0.500000 0.741310 0.500000 -0.186797
O1    O     O_R   0.371460 0.581430 0.500010 -0.570188
O2    O     O_R   0.628540 0.418570 0.499990 -0.577237
O3    O     O_R   0.628540 0.581430 0.499990 -0.577846
O4    O     O_R   0.371460 0.418570 0.500010 -0.585349
O5    O     O_R   0.499990 0.581440 0.319660 -0.608221
O6    O     O_R   0.500010 0.418560 0.680340 -0.577028
O7    O     O_R   0.500010 0.581440 0.680340 -0.585304
O8    O     O_R   0.499990 0.418560 0.319660 -0.570579
C41   C     C_2   0.315158 0.194015 0.122685 0.865568
O9    O     O_2   0.328368 0.110314 0.088382 -0.549049
O10   O     O_R   0.265562 0.213063 0.227850 -0.756185
H9    H     H_    0.243314 0.151502 0.265743 0.351551
C42   C     C_2   0.596619 0.843819 0.909461 0.871968
O11   O     O_2   0.533740 0.889783 0.872766 -0.578694
O12   O     O_R   0.682208 0.880151 0.897241 -0.704098
H10   H     H_    0.683535 0.945672 0.857921 0.338065
C43   C     C_2   0.312167 0.197254 0.848906 0.959940
O13   O     O_2   0.240042 0.164467 0.875949 -0.544973
O14   O     O_R   0.355374 0.162174 0.743983 -0.726366
H11   H     H_    0.320577 0.109426 0.698355 0.338689
C44   C     C_2   0.678862 0.789560 0.150678 0.901781
O15   O     O_2   0.669097 0.877202 0.147721 -0.551977
O16   O     O_R   0.741932 0.751570 0.229462 -0.754348
H12   H     H_    0.775719 0.803745 0.277620 0.348250
H13   H     H_    0.060221 0.662388 0.495023 0.173131
H14   H     H_    0.937620 0.412690 0.322505 0.185137
H15   H     H_    0.943749 0.604975 0.637919 0.170355
H16   H     H_    0.049758 0.353335 0.482036 0.180598
C45   C     C_2   0.227546 0.687104 0.543556 0.877563
O17   O     O_2   0.272887 0.697292 0.636124 -0.564200
O18   O     O_R   0.211597 0.766076 0.469694 -0.758197
H17   H     H_    0.243211 0.827045 0.500454 0.335844
C46   C     C_2   0.764143 0.392746 0.297741 0.853315
O19   O     O_2   0.692690 0.418717 0.259122 -0.610076
O20   O     O_R   0.804258 0.310822 0.245142 -0.741325
H18   H     H_    0.766999 0.278705 0.177867 0.352650
C47   C     C_2   0.772939 0.607848 0.686458 0.841462
O21   O     O_2   0.801357 0.686118 0.724993 -0.561528
O22   O     O_R   0.704120 0.562492 0.747462 -0.772585
H19   H     H_    0.685887 0.600100 0.824076 0.339173
C48   C     C_2   0.214382 0.317777 0.531563 0.874766
O23   O     O_2   0.265425 0.308204 0.616862 -0.608259
O24   O     O_R   0.182067 0.236002 0.467116 -0.742020
H20   H     H_    0.208469 0.173716 0.497005 0.327917
H21   H     H_    0.630764 0.075516 0.580829 0.133927
H22   H     H_    0.409281 0.922816 0.345281 0.159780
H23   H     H_    0.370723 0.069139 0.415505 0.131791
H24   H     H_    0.594300 0.932040 0.648725 0.153000

loop_
_geom_bond_atom_site_label_1
_geom_bond_atom_site_label_2
_ccdc_geom_bond_type
O20   H18   S    
Cu1   Cu2   S    
C48   O23   D    
C15   O5    A    
C15   O8    A    
C19   C23   A    
O24   H20   S    
C9    N1    A    
C10   N2    A    
Cu2   O6    S    
C45   O17   D    
C35   C45   S    
C46   O19   D    
C7    C11   A    
C24   C41   S    
C7    H23   S    
C32   C36   A    
C28   C29   A    
C1    O4    A    
C37   C40   A    
C2    O3    A    
C38   C39   A    
C21   C44   S    
C41   O10   S    
C44   O15   D    
C43   O14   S    
C1    O1    A    
Cu1   O3    S    
C12   N2    A    
C20   C24   A    
C42   O12   S    
C47   O22   S    
C22   C43   S    
C5    C13   A    
Cu2   N1    S    
Cu2   O4    S    
C48   O24   S    
C34   C38   A    
C13   C14   S    
C27   C30   A    
C44   O16   S    
C43   O13   D    
C45   O18   S    
C31   H13   S    
C46   O20   S    
C25   C29   A    
O12   H10   S    
C17   C27   A    
C36   C40   A    
C18   C28   A    
Cu1   O7    S    
C2    O2    A    
Cu2   O8    S    
O22   H19   S    
C33   H15   S    
C3    C34   A    
C16   C29   S    
C33   C37   A    
C16   O7    A    
C35   C39   A    
O16   H12   S    
C17   H1    S    
C5    C9    A    
C11   H7    S    
C18   H2    S    
C6    C14   A    
O18   H17   S    
C8    C12   A    
C16   O6    A    
C3    C31   A    
Cu1   O1    S    
C4    C32   A    
C5    H21   S    
C9    H5    S    
C21   C23   A    
C10   H6    S    
C31   C35   A    
C3    C4    S    
C6    H22   S    
C15   C30   S    
C4    C33   A    
C8    C14   A    
Cu1   N2    S    
C18   C22   A    
C34   H16   S    
C6    C10   A    
C12   H8    S    
C19   H3    S    
C26   C30   A    
C36   C46   S    
C25   C27   A    
C26   C28   A    
C37   C47   S    
C23   C42   S    
C8    H24   S    
Cu1   O5    S    
O14   H11   S    
Cu2   O2    S    
C20   C26   A    
C38   C48   S    
C22   C24   A    
C41   O9    D    
C19   C25   A    
C17   C21   A    
C11   N1    A    
C1    C39   S    
C32   H14   S    
O10   H9    S    
C2    C40   S    
C7    C13   A    
C42   O11   D    
C47   O21   D    
C20   H4    S    
