data_mof_unit_29725.cif
_audit_creation_date              2012-12-10T18:01:14-0500
_audit_creation_method            fapswitch 2.2
_symmetry_space_group_name_H-M    P1
_symmetry_Int_Tables_number       1
_space_group_crystal_system       triclinic
_cell_length_a                    9.507528
_cell_length_b                    10.875894
_cell_length_c                    16.298051
_cell_angle_alpha                 90.920977
_cell_angle_beta                  86.90261
_cell_angle_gamma                 88.743283
_cell_volume                      1682.14704185

loop_
_atom_site_label
_atom_site_type_symbol
_atom_type_description
_atom_site_fract_x
_atom_site_fract_y
_atom_site_fract_z
_atom_type_partial_charge
C1    C     C_R   0.498442 0.737913 0.497798 0.944425
C2    C     C_R   0.082755 0.425961 0.445406 0.588263
C3    C     C_R   0.068329 0.573333 0.553648 -0.248462
C4    C     C_R   0.931918 0.426480 0.446442 -0.248446
C5    C     C_R   0.482241 0.499232 0.653476 0.841736
C6    C     C_R   0.517191 0.503858 0.346564 0.841774
C7    C     C_R   0.473795 0.515588 0.745084 -0.143101
C8    C     C_R   0.519014 0.525225 0.255633 -0.150250
C9    C     C_R   0.592210 0.560686 0.782842 -0.197572
C10   C     C_R   0.389605 0.518839 0.217614 -0.199807
C11   C     C_R   0.580101 0.612653 0.861813 -0.239193
C12   C     C_R   0.501656 0.262112 0.502104 0.943861
C13   C     C_R   0.371817 0.569881 0.140865 -0.235247
C14   C     C_R   0.450792 0.615450 0.907064 -0.049099
C15   C     C_R   0.484228 0.623997 0.097376 -0.056585
C16   C     C_R   0.337438 0.550875 0.876067 0.504014
C17   C     C_R   0.619706 0.614367 0.128181 0.506906
C18   C     C_R   0.347296 0.502894 0.794536 0.098705
C19   C     C_R   0.637179 0.569251 0.208310 0.105935
C20   C     C_2   0.421223 0.722048 0.963646 0.155565
C21   C     C_2   0.449600 0.728723 0.044362 0.169171
C22   C     C_3   0.208013 0.443393 0.969543 -0.295770
C23   C     C_R   0.609736 0.931912 0.456893 0.348090
C24   C     C_3   0.800664 0.574436 0.035160 -0.265355
C25   C     C_3   0.829828 0.841052 0.432257 -0.146914
C26   C     C_3   0.170438 0.158188 0.568421 -0.148869
C27   C     C_3   0.840852 0.123126 0.485956 -0.324076
C28   C     C_3   0.161192 0.878896 0.509011 -0.323357
C29   C     C_3   0.898527 0.705331 0.671767 -0.390154
C30   C     C_3   0.106846 0.308508 0.322846 -0.385031
C31   C     C_R   0.391053 0.068153 0.543239 0.346401
C32   C     C_R   0.618134 0.059944 0.464612 0.384437
C33   C     C_R   0.382423 0.940260 0.535167 0.387364
C34   C     C_R   0.505417 0.128073 0.504538 -0.376381
C35   C     C_R   0.495155 0.872016 0.495469 -0.374298
C36   C     C_R   0.917326 0.574397 0.554542 0.590377
Cu1   Cu    Cu3+1 0.359340 0.499980 0.500000 1.013091
Cu2   Cu    Cu3+1 0.640660 0.500020 0.500000 1.011551
H1    H     H_    0.691948 0.566836 0.748472 0.204379
H2    H     H_    0.726843 0.525792 0.995770 0.142754
H3    H     H_    0.855865 0.506455 0.073025 0.173310
H4    H     H_    0.881204 0.617955 0.994014 0.225252
H5    H     H_    0.827499 0.841295 0.500654 0.134688
H6    H     H_    0.909103 0.905527 0.407091 0.163608
H7    H     H_    0.865393 0.747545 0.411336 0.192404
H8    H     H_    0.091657 0.093857 0.594300 0.162967
H9    H     H_    0.171789 0.156865 0.500044 0.137959
H10   H     H_    0.134949 0.251904 0.589134 0.190182
H11   H     H_    0.838228 0.048633 0.532068 0.118144
H12   H     H_    0.296868 0.485448 0.250693 0.195342
H13   H     H_    0.836676 0.211840 0.520208 0.196229
H14   H     H_    0.944159 0.116191 0.451313 0.156711
H15   H     H_    0.160960 0.787518 0.478240 0.198255
H16   H     H_    0.171923 0.949330 0.460218 0.126036
H17   H     H_    0.056576 0.894073 0.540940 0.145966
H18   H     H_    0.973142 0.776181 0.650012 0.186247
H19   H     H_    0.950987 0.634529 0.708750 0.200720
H20   H     H_    0.817708 0.753523 0.712909 0.207174
H21   H     H_    0.059149 0.386843 0.290485 0.186256
H22   H     H_    0.029219 0.235756 0.336063 0.187212
H23   H     H_    0.266032 0.579606 0.119875 0.189733
H24   H     H_    0.190750 0.267124 0.280485 0.210096
H25   H     H_    0.667971 0.663286 0.883617 0.183337
H26   H     H_    0.123936 0.631157 0.594796 0.201204
H27   H     H_    0.877128 0.367647 0.405496 0.199807
H28   H     H_    0.304878 0.431664 0.004323 0.153740
H29   H     H_    0.194180 0.359898 0.930932 0.207110
H30   H     H_    0.116855 0.451093 0.014896 0.184128
I1    I     I_    0.840785 0.587805 0.255232 -0.359114
I2    I     I_    0.166329 0.415558 0.750469 -0.353107
I3    I     I_    0.423872 0.897483 0.112695 -0.234587
I4    I     I_    0.346819 0.879325 0.900880 -0.231396
N1    N     N_R   0.147930 0.499970 0.499980 -0.212453
N2    N     N_R   0.852070 0.500030 0.500020 -0.211292
O1    O     O_R   0.381260 0.680340 0.500000 -0.573227
O2    O     O_3   0.731512 0.666879 0.085041 -0.543669
O3    O     O_3   0.698079 0.867554 0.399844 -0.520999
O4    O     O_3   0.302740 0.132408 0.600374 -0.526710
O5    O     O_3   0.733432 0.118211 0.428952 -0.526162
O6    O     O_3   0.264919 0.882469 0.568376 -0.526418
O7    O     O_3   0.830691 0.651562 0.605664 -0.564525
O8    O     O_3   0.168830 0.347293 0.395241 -0.562632
O9    O     O_R   0.618740 0.319660 0.500000 -0.575113
O10   O     O_R   0.618830 0.680370 0.500010 -0.529146
O11   O     O_R   0.381170 0.319630 0.499990 -0.526939
O12   O     O_R   0.367440 0.500000 0.613600 -0.551954
O13   O     O_R   0.632560 0.500000 0.386400 -0.551674
O14   O     O_R   0.605010 0.500030 0.613600 -0.548323
O15   O     O_R   0.394990 0.499970 0.386400 -0.548194
O16   O     O_3   0.210344 0.550037 0.921332 -0.567012

loop_
_geom_bond_atom_site_label_1
_geom_bond_atom_site_label_2
_ccdc_geom_bond_type
C18   I2    S    
C16   O16   S    
Cu2   O9    S    
C24   H4    S    
C25   H5    S    
C3    H26   S    
C1    O10   A    
C26   O4    S    
C12   O11   A    
C21   I3    S    
C25   O3    S    
C29   H20   S    
Cu1   O11   S    
C27   O5    S    
C4    H27   S    
C11   C14   A    
C9    H1    S    
C15   C17   A    
C22   H28   S    
C17   C19   A    
C5    O14   A    
C30   H22   S    
C17   O2    S    
C31   C33   A    
C4    N2    A    
C26   H10   S    
Cu1   O1    S    
C24   H3    S    
C28   O6    S    
C25   H6    S    
C28   H17   S    
C27   H13   S    
C8    C19   A    
C1    O1    A    
C14   C20   S    
Cu1   O12   S    
C5    C7    S    
C28   H16   S    
C24   O2    S    
C6    C8    S    
C6    O13   A    
C12   O9    A    
Cu2   O14   S    
C32   C34   A    
C30   O8    S    
C2    C4    A    
C29   O7    S    
Cu1   Cu2   S    
C36   O7    S    
C7    C18   A    
C30   H21   S    
C22   O16   S    
C31   C34   A    
C23   O3    S    
C9    C11   A    
C22   H30   S    
C2    N1    A    
C36   N2    A    
C26   H9    S    
C5    O12   A    
C16   C18   A    
C29   H19   S    
C23   C35   A    
C13   C15   A    
C14   C16   A    
C19   I1    S    
C12   C34   S    
C10   H12   S    
C25   H7    S    
C27   H14   S    
C1    C35   S    
C31   O4    S    
Cu2   N2    S    
C7    C9    A    
Cu1   N1    S    
C24   H2    S    
Cu2   O10   S    
C10   C13   A    
C28   H15   S    
C33   O6    S    
C29   H18   S    
C6    O15   A    
C11   H25   S    
Cu1   O15   S    
Cu2   O13   S    
C23   C32   A    
C30   H24   S    
C32   O5    S    
C3    C36   A    
C33   C35   A    
C3    N1    A    
C22   H29   S    
C2    O8    S    
C26   H8    S    
C15   C21   S    
C13   H23   S    
C20   C21   D    
C8    C10   A    
C20   I4    S    
C27   H11   S    
