data_mof_unit_38388.cif
_audit_creation_date              2012-12-10T17:07:08-0500
_audit_creation_method            fapswitch 2.2
_symmetry_space_group_name_H-M    P1
_symmetry_Int_Tables_number       1
_space_group_crystal_system       triclinic
_cell_length_a                    17.249187
_cell_length_b                    10.988391
_cell_length_c                    9.865307
_cell_angle_alpha                 111.585486
_cell_angle_beta                  93.782729
_cell_angle_gamma                 91.626511
_cell_volume                      1732.15915782

loop_
_atom_site_label
_atom_site_type_symbol
_atom_type_description
_atom_site_fract_x
_atom_site_fract_y
_atom_site_fract_z
_atom_type_partial_charge
C1    C     C_R   0.493066 0.253290 0.441073 0.885196
C2    C     C_R   0.507031 0.746744 0.558645 0.805755
C3    C     C_2   0.487516 0.111290 0.407861 0.038802
C4    C     C_2   0.512241 0.888336 0.588948 -0.005541
C5    C     C_2   0.470347 0.069805 0.515636 -0.149730
C6    C     C_2   0.468975 0.931858 0.499058 -0.219792
C7    C     C_2   0.513664 0.494773 0.075918 -0.046681
C8    C     C_2   0.504146 0.475220 0.914998 -0.016597
C9    C     C_R   0.352324 0.506036 0.521728 0.868699
C10   C     C_R   0.648764 0.494538 0.478583 0.767946
C11   C     C_R   0.269936 0.523946 0.543792 -0.126190
C12   C     C_R   0.733960 0.483463 0.462905 -0.154950
C13   C     C_R   0.224816 0.428118 0.573301 -0.052794
C14   C     C_R   0.779204 0.433978 0.555269 -0.131746
C15   C     C_R   0.147340 0.450576 0.602319 -0.154840
C16   C     C_R   0.859965 0.438512 0.555937 -0.135160
C17   C     C_R   0.113715 0.563563 0.598817 0.024433
C18   C     C_R   0.897730 0.489922 0.467001 0.052021
C19   C     C_R   0.158781 0.662195 0.576113 0.064993
C20   C     C_R   0.854789 0.533170 0.368835 0.034631
C21   C     C_R   0.238045 0.643830 0.550578 0.073359
C22   C     C_R   0.772309 0.527985 0.363598 0.076849
C23   C     C_2   0.028218 0.567310 0.595777 -0.139611
C24   C     C_2   0.983581 0.491389 0.472401 -0.130580
Cu1   Cu    Cu3+1 0.513640 0.521550 0.643210 0.963580
Cu2   Cu    Cu3+1 0.486360 0.478450 0.356790 0.937702
H1    H     H_    0.894337 0.400546 0.626138 0.165530
H2    H     H_    0.110987 0.375983 0.619029 0.184731
H3    H     H_    0.430367 0.864035 0.410253 0.160961
H4    H     H_    0.460384 0.140090 0.623284 0.162694
H5    H     H_    0.471220 0.388643 0.840347 0.153160
H6    H     H_    0.564180 0.549961 0.141713 0.151833
N1    N     N_2   0.465840 0.446060 0.141630 -0.147482
N2    N     N_2   0.534160 0.553940 0.858370 -0.136428
O1    O     O_R   0.507280 0.332200 0.576490 -0.574937
O2    O     O_R   0.492720 0.667800 0.423510 -0.605785
O3    O     O_R   0.484240 0.295800 0.334620 -0.569076
O4    O     O_R   0.515760 0.704200 0.665380 -0.572662
O5    O     O_R   0.399260 0.520290 0.634950 -0.579541
O6    O     O_R   0.600740 0.479710 0.365050 -0.585951
O7    O     O_R   0.376220 0.483890 0.393080 -0.587415
O8    O     O_R   0.623780 0.516110 0.606920 -0.553089
C25   C     C_2   0.255633 0.302188 0.571855 0.835103
O9    O     O_2   0.309874 0.254827 0.499814 -0.628618
O10   O     O_R   0.221049 0.235799 0.651206 -0.753321
H7    H     H_    0.246771 0.151491 0.641714 0.338944
C26   C     C_2   0.744789 0.371885 0.650357 0.904552
O11   O     O_2   0.772516 0.400908 0.776084 -0.549410
O12   O     O_R   0.683154 0.277050 0.597742 -0.733116
H8    H     H_    0.668867 0.251917 0.489477 0.273127
C27   C     C_3   0.727218 0.566726 0.249420 -0.407998
C28   C     C_3   0.706401 0.444954 0.111000 -0.669542
H9    H     H_    0.666753 0.374356 0.133034 0.239637
H10   H     H_    0.677696 0.473225 0.024184 0.241704
H11   H     H_    0.759528 0.394294 0.068958 0.298066
H12   H     H_    0.675653 0.620906 0.292772 0.196791
H13   H     H_    0.761075 0.639003 0.219415 0.212759
C29   C     C_3   0.289130 0.755793 0.541459 -0.418298
C30   C     C_3   0.314887 0.855196 0.694185 -0.836817
H14   H     H_    0.352410 0.808865 0.755264 0.259062
H15   H     H_    0.348445 0.939297 0.685512 0.245596
H16   H     H_    0.263753 0.893321 0.756274 0.276925
H17   H     H_    0.341407 0.720507 0.482983 0.203946
H18   H     H_    0.258315 0.805922 0.476515 0.239735
C31   C     C_2   0.017470 0.405062 0.336406 0.887569
O13   O     O_2   0.981567 0.303457 0.257095 -0.561892
O14   O     O_R   0.087933 0.441543 0.295557 -0.737702
H19   H     H_    0.103684 0.374746 0.200709 0.349164
C32   C     C_2   0.995098 0.656794 0.730368 0.947911
O15   O     O_2   0.031410 0.683492 0.849388 -0.542623
O16   O     O_R   0.924634 0.714464 0.721558 -0.732546
H20   H     H_    0.909267 0.773650 0.820828 0.346916
C33   C     C_2   0.121741 0.781359 0.572856 0.859439
O17   O     O_2   0.113957 0.800451 0.458344 -0.552529
O18   O     O_R   0.095614 0.871129 0.700687 -0.736285
H21   H     H_    0.071175 0.948047 0.684560 0.358369
C34   C     C_2   0.897575 0.587712 0.275968 0.820434
O19   O     O_2   0.889607 0.534698 0.142707 -0.549247
O20   O     O_R   0.948425 0.698251 0.342169 -0.711904
H22   H     H_    0.974594 0.725841 0.268136 0.375493
C35   C     C_3   0.572390 0.976649 0.705886 -0.353315
C36   C     C_3   0.547378 0.006523 0.859604 -0.842415
H23   H     H_    0.483095 0.999610 0.860239 0.255227
H24   H     H_    0.572510 0.936136 0.903265 0.252005
H25   H     H_    0.570041 0.106297 0.933171 0.253682
H26   H     H_    0.628630 0.928250 0.694779 0.194597
H27   H     H_    0.584677 0.070739 0.691585 0.242893
C37   C     C_3   0.507550 0.019003 0.258506 -0.404192
C38   C     C_3   0.594426 0.033566 0.243576 -0.854230
H28   H     H_    0.610240 0.132452 0.244177 0.248461
H29   H     H_    0.628776 0.017089 0.333985 0.268499
H30   H     H_    0.609616 0.960100 0.139189 0.241289
H31   H     H_    0.492418 0.914780 0.238474 0.208477
H32   H     H_    0.473955 0.041546 0.171588 0.209512
C39   C     C_3   0.567167 0.684119 0.951626 -0.167895
C40   C     C_3   0.650655 0.704558 0.917925 -0.738161
H33   H     H_    0.681864 0.785441 0.010995 0.202738
H34   H     H_    0.682958 0.614853 0.899252 0.273123
H35   H     H_    0.651206 0.731113 0.819906 0.257458
H36   H     H_    0.530176 0.757648 0.932661 0.186284
H37   H     H_    0.566687 0.706758 0.070204 0.129938
C41   C     C_3   0.391981 0.380617 0.064163 -0.101372
C42   C     C_3   0.399455 0.233788 0.987244 -0.858998
H38   H     H_    0.342572 0.186735 0.929840 0.241892
H39   H     H_    0.443049 0.214817 0.905477 0.233941
H40   H     H_    0.417124 0.189258 0.067816 0.269632
H41   H     H_    0.346588 0.394956 0.141452 0.218838
H42   H     H_    0.368926 0.423754 0.984901 0.146403

loop_
_geom_bond_atom_site_label_1
_geom_bond_atom_site_label_2
_ccdc_geom_bond_type
C10   O8    A    
C7    N1    D    
C33   O17   D    
C23   C32   S    
C39   C40   S    
O18   H21   S    
C35   C36   S    
C7    C8    S    
C26   O12   S    
C34   O19   D    
C17   C23   S    
C20   C34   S    
C18   C24   S    
C19   C21   A    
C5    C6    S    
C40   H35   S    
C12   C22   A    
C9    O5    A    
C10   O6    A    
C27   H12   S    
C32   O16   S    
C4    C35   S    
C31   O14   S    
C40   H34   S    
C23   C24   D    
C41   H42   S    
C27   H13   S    
C38   H29   S    
C35   H26   S    
C28   H11   S    
C1    O3    A    
Cu1   N2    S    
C16   H1    S    
C30   H14   S    
C33   O18   S    
C32   O15   D    
C28   H10   S    
C34   O20   S    
C29   H18   S    
C37   H32   S    
C30   H15   S    
N1    C41   S    
C19   C33   S    
N2    C39   S    
C4    C6    D    
C39   H36   S    
Cu1   Cu2   S    
O10   H7    S    
C11   C21   A    
O14   H19   S    
C1    C3    S    
C2    C4    S    
C25   O9    D    
Cu1   O4    S    
C9    C11   S    
C2    O4    A    
Cu2   N1    S    
C26   O11   D    
C40   H33   S    
C41   H41   S    
C42   H39   S    
C8    N2    D    
C38   H30   S    
C25   O10   S    
C35   H27   S    
C10   C12   S    
C24   C31   S    
Cu1   O1    S    
Cu2   O2    S    
C20   C22   A    
O12   H8    S    
C36   H24   S    
C13   C15   A    
C14   C16   A    
C13   C25   S    
C28   H9    S    
C1    O1    A    
C5    H4    S    
C2    O2    A    
C29   H17   S    
C15   C17   A    
C37   H31   S    
C30   H16   S    
C7    H6    S    
C3    C37   S    
C8    H5    S    
C12   C14   A    
C3    C5    D    
Cu1   O8    S    
Cu2   O3    S    
C14   C26   S    
C36   H25   S    
C9    O7    A    
C29   C30   S    
C27   C28   S    
Cu1   O5    S    
C11   C13   A    
Cu2   O6    S    
C15   H2    S    
C17   C19   A    
C42   H40   S    
C18   C20   A    
C41   C42   S    
O20   H22   S    
C21   C29   S    
C6    H3    S    
O16   H20   S    
C37   C38   S    
C16   C18   A    
C31   O13   D    
C42   H38   S    
C36   H23   S    
C38   H28   S    
C39   H37   S    
Cu2   O7    S    
C22   C27   S    
