data_mof_unit_64631.cif
_audit_creation_date              2012-12-10T16:51:49-0500
_audit_creation_method            fapswitch 2.2
_symmetry_space_group_name_H-M    P1
_symmetry_Int_Tables_number       1
_space_group_crystal_system       triclinic
_cell_length_a                    30.141895
_cell_length_b                    30.730735
_cell_length_c                    21.686505
_cell_angle_alpha                 90.049042
_cell_angle_beta                  134.78824
_cell_angle_gamma                 89.926811
_cell_volume                      14256.6310026

loop_
_atom_site_label
_atom_site_type_symbol
_atom_type_description
_atom_site_fract_x
_atom_site_fract_y
_atom_site_fract_z
_atom_type_partial_charge
C1    C     C_R   0.688587 0.809657 0.881047 0.941916
C2    C     C_R   0.523156 0.668903 0.999275 0.040611
C3    C     C_R   0.662022 0.249080 0.997577 0.880164
C4    C     C_R   0.406545 0.788753 0.997897 -0.261645
C5    C     C_R   0.593430 0.788771 0.002246 -0.260874
C6    C     C_R   0.907020 0.288640 0.998834 -0.256750
C7    C     C_R   0.093958 0.288616 0.003411 -0.263276
C8    C     C_R   0.385118 0.749452 0.000892 -0.084893
C9    C     C_R   0.615034 0.749470 0.999395 -0.083719
C10   C     C_R   0.885011 0.249376 0.000747 -0.052683
C11   C     C_R   0.115064 0.249396 0.999474 -0.055294
C12   C     C_R   0.409127 0.709753 0.003916 -0.219222
C13   C     C_R   0.976518 0.168609 0.999315 0.094110
C14   C     C_R   0.591303 0.709762 0.996706 -0.219165
C15   C     C_R   0.908342 0.209621 0.002625 -0.251734
C16   C     C_R   0.090844 0.209675 0.995667 -0.250601
C17   C     C_R   0.454579 0.708750 0.002167 0.087708
C18   C     C_R   0.545915 0.708754 0.998571 0.088272
C19   C     C_R   0.953810 0.208481 0.000850 0.018422
C20   C     C_R   0.045374 0.208508 0.997430 0.016927
C21   C     C_R   0.477043 0.748620 0.000459 0.011378
C22   C     C_R   0.523230 0.748623 0.000058 0.011217
C23   C     C_R   0.976917 0.248373 0.000309 0.032386
C24   C     C_R   0.021757 0.168626 0.996963 0.092854
C25   C     C_R   0.023183 0.248377 0.999991 0.032717
C26   C     C_R   0.523372 0.828151 0.000844 -0.217496
C27   C     C_R   0.476439 0.828146 0.999192 -0.218047
C28   C     C_R   0.024437 0.327919 0.003029 -0.222363
C29   C     C_R   0.977491 0.327930 0.001307 -0.222325
C30   C     C_2   0.558341 0.875308 0.681566 -0.201459
C31   C     C_2   0.441716 0.875314 0.318247 -0.202664
C32   C     C_2   0.058360 0.375361 0.681692 -0.204730
C33   C     C_R   0.311414 0.809654 0.118949 0.942473
C34   C     C_2   0.907524 0.409055 0.250921 -0.208798
C35   C     C_2   0.589088 0.902546 0.674389 -0.358823
C36   C     C_2   0.410990 0.902571 0.325557 -0.356266
C37   C     C_2   0.089089 0.402558 0.674419 -0.356116
C38   C     C_2   0.900749 0.412742 0.305381 -0.358298
C39   C     C_2   0.591255 0.838407 0.742024 0.148513
C40   C     C_2   0.408807 0.838403 0.257816 0.148124
C41   C     C_2   0.091259 0.338453 0.742132 0.149364
C42   C     C_2   0.867962 0.378744 0.177475 0.138769
C43   C     C_2   0.651495 0.843600 0.817072 -0.356106
C44   C     C_R   0.188599 0.309658 0.881053 0.942717
C45   C     C_2   0.348506 0.843595 0.182893 -0.356937
C46   C     C_2   0.151532 0.343607 0.817097 -0.356768
C47   C     C_2   0.850219 0.341457 0.187129 -0.334344
C48   C     C_R   0.130595 0.750772 0.073390 -0.270924
C49   C     C_R   0.869354 0.750618 0.926530 -0.271231
C50   C     C_R   0.630573 0.250814 0.073345 -0.272272
C51   C     C_R   0.369333 0.250580 0.926486 -0.271174
C52   C     C_R   0.112667 0.748140 0.994383 -0.112282
C53   C     C_R   0.887300 0.748031 0.005548 -0.112154
C54   C     C_R   0.612652 0.248135 0.994349 -0.110641
C55   C     C_R   0.811544 0.309465 0.119298 0.954885
C56   C     C_R   0.387286 0.248038 0.005515 -0.112698
C57   C     C_R   0.049084 0.744998 0.914949 0.065317
C58   C     C_R   0.950896 0.744936 0.084986 0.067415
C59   C     C_R   0.549073 0.244956 0.914913 0.067258
C60   C     C_R   0.450886 0.244982 0.084951 0.065283
C61   C     C_R   0.662976 0.749874 0.999699 0.889167
C62   C     C_R   0.337060 0.749857 0.000367 0.889338
C63   C     C_R   0.162973 0.249872 0.999699 0.885238
C64   C     C_R   0.837041 0.249855 0.000355 0.893801
C65   C     C_R   0.002939 0.748990 0.916166 0.096832
C66   C     C_R   0.453229 0.788715 0.999133 0.146284
C67   C     C_R   0.997022 0.748972 0.083760 0.096376
C68   C     C_R   0.502919 0.248936 0.916117 0.096271
C69   C     C_R   0.497002 0.249032 0.083710 0.096543
C70   C     C_R   0.022224 0.750197 0.997931 -0.010199
C71   C     C_R   0.977730 0.750165 0.001991 -0.010452
C72   C     C_R   0.522201 0.250198 0.997878 -0.010667
C73   C     C_R   0.477707 0.250170 0.001939 -0.010353
C74   C     C_R   0.086109 0.750842 0.075939 0.112137
C75   C     C_R   0.913840 0.750732 0.923980 0.112262
C76   C     C_R   0.586085 0.250894 0.075888 0.112958
C77   C     C_R   0.546797 0.788724 0.001113 0.146161
C78   C     C_R   0.413817 0.250686 0.923929 0.111911
C79   C     C_R   0.938227 0.751471 0.838812 0.099956
C80   C     C_R   0.061720 0.751528 0.161108 0.100569
C81   C     C_R   0.438202 0.251357 0.838756 0.100278
C82   C     C_R   0.561694 0.251649 0.161051 0.100090
C83   C     C_R   0.894652 0.752172 0.843821 -0.273880
C84   C     C_R   0.105290 0.752294 0.156095 -0.274060
C85   C     C_R   0.394627 0.252066 0.843766 -0.273915
C86   C     C_R   0.605264 0.252407 0.156039 -0.274972
C87   C     C_2   0.942253 0.627616 0.323561 -0.137833
C88   C     C_R   0.953697 0.288514 0.000092 0.146638
C89   C     C_2   0.098225 0.587838 0.755708 -0.138895
C90   C     C_2   0.401666 0.087741 0.244250 -0.138372
C91   C     C_2   0.557656 0.127613 0.676616 -0.136495
C92   C     C_2   0.912693 0.599389 0.331138 -0.286836
C93   C     C_2   0.102051 0.584788 0.698159 -0.287427
C94   C     C_2   0.397851 0.084769 0.301811 -0.287586
C95   C     C_2   0.587178 0.099405 0.668816 -0.288909
C96   C     C_2   0.905993 0.663113 0.260602 -0.177372
C97   C     C_2   0.138550 0.619293 0.826718 -0.174746
C98   C     C_2   0.361356 0.119213 0.173256 -0.175918
C99   C     C_R   0.047313 0.288501 0.002220 0.148178
C100  C     C_2   0.593915 0.163115 0.739545 -0.177085
C101  C     C_2   0.849378 0.655165 0.180852 -0.057073
C102  C     C_2   0.145447 0.659589 0.810516 -0.061741
C103  C     C_2   0.354494 0.159553 0.189474 -0.062363
C104  C     C_2   0.650661 0.155177 0.819169 -0.056985
C105  C     C_R   0.061745 0.557301 0.622663 0.916263
C106  C     C_R   0.942418 0.561425 0.385610 0.923260
C107  C     C_R   0.557534 0.061431 0.614371 0.927751
C108  C     C_R   0.438223 0.057298 0.377332 0.916138
C109  C     C_R   0.811619 0.690125 0.118714 0.867448
C110  C     C_R   0.477596 0.668901 0.001755 0.040418
C111  C     C_R   0.187732 0.690606 0.880341 0.867120
C112  C     C_R   0.312254 0.190599 0.119657 0.866513
C113  C     C_R   0.688387 0.190130 0.881287 0.865639
C114  C     C_R   0.558593 0.939356 0.616546 0.948080
C115  C     C_R   0.441444 0.939355 0.383455 0.935234
C116  C     C_R   0.058587 0.439352 0.616537 0.939655
C117  C     C_R   0.939060 0.441738 0.378754 0.949779
C118  C     C_R   0.837958 0.749051 0.002379 0.881240
C119  C     C_R   0.162029 0.749086 0.997594 0.880533
C120  C     C_R   0.337951 0.249058 0.002363 0.881143
H1    H     H_    0.387626 0.819285 0.996305 0.147148
H2    H     H_    0.066832 0.567348 0.751487 0.158823
H3    H     H_    0.433073 0.067190 0.248480 0.159068
H4    H     H_    0.507930 0.124949 0.637277 0.159211
H5    H     H_    0.864723 0.605542 0.298439 0.168941
H6    H     H_    0.138840 0.601825 0.709374 0.166898
H7    H     H_    0.361059 0.101871 0.290607 0.166304
H8    H     H_    0.635077 0.105586 0.701305 0.168325
H9    H     H_    0.390989 0.679833 0.005598 0.176856
H10   H     H_    0.609591 0.679843 0.995156 0.174984
H11   H     H_    0.889535 0.179904 0.003503 0.142755
H12   H     H_    0.612148 0.819306 0.003603 0.147222
H13   H     H_    0.108950 0.179973 0.993277 0.145786
H14   H     H_    0.541109 0.858962 0.001397 0.145639
H15   H     H_    0.458516 0.858953 0.998441 0.145264
H16   H     H_    0.042624 0.358727 0.004483 0.146085
H17   H     H_    0.960013 0.358745 0.001418 0.145079
H18   H     H_    0.508602 0.879318 0.641381 0.166586
H19   H     H_    0.491432 0.879302 0.358332 0.166788
H20   H     H_    0.008638 0.379405 0.641585 0.165712
H21   H     H_    0.940681 0.429237 0.258476 0.170697
H22   H     H_    0.673518 0.875401 0.835863 0.138048
H23   H     H_    0.888585 0.319204 0.998135 0.147227
H24   H     H_    0.326422 0.875403 0.164130 0.137088
H25   H     H_    0.173605 0.375387 0.835864 0.136704
H26   H     H_    0.869140 0.332118 0.250240 0.130766
H27   H     H_    0.179841 0.752690 0.133492 0.157837
H28   H     H_    0.820099 0.752499 0.866426 0.157978
H29   H     H_    0.679817 0.252767 0.133445 0.155428
H30   H     H_    0.320075 0.252426 0.866380 0.158230
H31   H     H_    0.009187 0.704104 0.814684 0.182358
H32   H     H_    0.069042 0.729975 0.842669 0.182811
H33   H     H_    0.991016 0.704105 0.185393 0.180764
H34   H     H_    0.113058 0.319168 0.005619 0.145237
H35   H     H_    0.930994 0.729878 0.157269 0.180468
H36   H     H_    0.509279 0.204021 0.814729 0.181438
H37   H     H_    0.569050 0.229994 0.842635 0.180756
H38   H     H_    0.491110 0.204195 0.185442 0.182590
H39   H     H_    0.431006 0.229867 0.157239 0.182751
H40   H     H_    0.890642 0.784069 0.726185 0.190626
H41   H     H_    0.885374 0.729235 0.716485 0.179057
H42   H     H_    0.109138 0.784169 0.273664 0.190323
H43   H     H_    0.114689 0.729340 0.283485 0.177636
H44   H     H_    0.390557 0.283857 0.726014 0.190319
H45   H     H_    0.845295 0.753803 0.784216 0.146304
H46   H     H_    0.385384 0.229015 0.716505 0.178509
H47   H     H_    0.609052 0.284388 0.273492 0.189569
H48   H     H_    0.614698 0.229568 0.283504 0.178982
H49   H     H_    0.926229 0.695509 0.279185 0.148755
H50   H     H_    0.161970 0.609490 0.891858 0.148703
H51   H     H_    0.337942 0.109393 0.108116 0.148743
H52   H     H_    0.573571 0.195502 0.721062 0.148337
H53   H     H_    0.783440 0.608420 0.127650 0.182448
H54   H     H_    0.823930 0.604877 0.100326 0.201716
H55   H     H_    0.077857 0.700068 0.711767 0.202864
H56   H     H_    0.154639 0.753980 0.215696 0.146139
H57   H     H_    0.134109 0.686983 0.715012 0.184425
H58   H     H_    0.422098 0.199960 0.288263 0.202908
H59   H     H_    0.365807 0.187039 0.284952 0.184034
H60   H     H_    0.716736 0.108472 0.872134 0.179178
H61   H     H_    0.676461 0.104859 0.899772 0.203460
H62   H     H_    0.434148 0.610711 0.947833 0.185804
H63   H     H_    0.491556 0.610974 0.058281 0.187262
H64   H     H_    0.509559 0.610884 0.943146 0.186834
H65   H     H_    0.566971 0.610806 0.053595 0.185784
H66   H     H_    0.963239 0.125353 0.055741 0.182880
H67   H     H_    0.345267 0.253653 0.784157 0.146785
H68   H     H_    0.905852 0.125861 0.945019 0.179546
H69   H     H_    0.091432 0.125204 0.049067 0.180929
H70   H     H_    0.034036 0.126102 0.938353 0.183206
H71   H     H_    0.637069 0.896084 0.707624 0.156959
H72   H     H_    0.363046 0.896127 0.292427 0.157240
H73   H     H_    0.137049 0.396068 0.707588 0.157385
H74   H     H_    0.863138 0.396164 0.292649 0.154065
H75   H     H_    0.513198 0.800347 0.660031 0.175672
H76   H     H_    0.553010 0.796500 0.765416 0.176051
H77   H     H_    0.486970 0.800333 0.339623 0.175854
H78   H     H_    0.654610 0.254137 0.215635 0.144991
H79   H     H_    0.446946 0.796444 0.234156 0.175960
H80   H     H_    0.013120 0.300457 0.660273 0.173851
H81   H     H_    0.053066 0.296620 0.765711 0.175492
H82   H     H_    0.893833 0.391621 0.115181 0.166513
H83   H     H_    0.829022 0.418067 0.075605 0.189027
H84   H     H_    0.992021 0.624968 0.363105 0.159053
N1    N     N_3   0.031054 0.734517 0.834805 -0.418961
N2    N     N_3   0.105715 0.674682 0.722352 -0.440568
N3    N     N_3   0.394212 0.174643 0.277642 -0.440474
N4    N     N_3   0.672348 0.111118 0.848535 -0.441744
N5    N     N_3   0.454229 0.628658 0.003318 -0.475606
N6    N     N_3   0.546774 0.628662 0.997986 -0.477021
N7    N     N_3   0.954105 0.127481 0.999540 -0.429502
N8    N     N_3   0.043222 0.127516 0.994654 -0.429130
N9    N     N_3   0.558248 0.798672 0.722698 -0.415033
N10   N     N_3   0.441862 0.798652 0.277044 -0.414902
N11   N     N_3   0.058207 0.298756 0.722884 -0.415672
N12   N     N_3   0.968971 0.734485 0.165155 -0.420936
N13   N     N_3   0.852185 0.388108 0.099109 -0.430607
N14   N     N_3   0.531059 0.234465 0.834783 -0.421259
N15   N     N_3   0.468978 0.234544 0.165135 -0.419065
N16   N     N_3   0.915977 0.755082 0.754882 -0.435640
N17   N     N_3   0.083953 0.755152 0.245031 -0.437080
N18   N     N_3   0.415942 0.254895 0.754811 -0.437031
N19   N     N_3   0.583917 0.255347 0.244959 -0.436050
N20   N     N_3   0.827878 0.611102 0.151439 -0.443053
O1    O     O_R   0.679230 0.769690 0.858450 -0.590078
O2    O     O_R   0.492070 0.954750 0.409550 -0.622762
O3    O     O_R   0.007930 0.454750 0.590450 -0.622866
O4    O     O_R   0.992070 0.454750 0.409550 -0.616305
O5    O     O_R   0.582530 0.954770 0.590430 -0.625356
O6    O     O_R   0.417470 0.954770 0.409570 -0.627665
O7    O     O_R   0.082530 0.454770 0.590430 -0.623861
O8    O     O_R   0.917470 0.454770 0.409570 -0.626884
O9    O     O_R   0.730270 0.820760 0.960570 -0.628951
O10   O     O_R   0.269730 0.820760 0.039430 -0.629051
O11   O     O_R   0.230270 0.320760 0.960570 -0.629095
O12   O     O_R   0.320770 0.769690 0.141550 -0.590132
O13   O     O_R   0.769730 0.320760 0.039430 -0.591051
O14   O     O_R   0.658400 0.724440 0.948940 -0.625037
O15   O     O_R   0.341600 0.724440 0.051060 -0.623302
O16   O     O_R   0.158400 0.224440 0.948940 -0.624358
O17   O     O_R   0.841600 0.224440 0.051060 -0.624685
O18   O     O_R   0.709450 0.775510 0.051050 -0.618868
O19   O     O_R   0.290550 0.775510 0.948950 -0.620725
O20   O     O_R   0.209450 0.275510 0.051050 -0.621887
O21   O     O_R   0.790550 0.275510 0.948950 -0.618386
O22   O     O_R   0.769710 0.679220 0.039380 -0.630561
O23   O     O_R   0.179230 0.269690 0.858450 -0.589990
O24   O     O_R   0.230290 0.679220 0.960620 -0.625887
O25   O     O_R   0.269710 0.179220 0.039380 -0.626958
O26   O     O_R   0.730290 0.179220 0.960620 -0.630781
O27   O     O_R   0.820750 0.730290 0.141500 -0.626221
O28   O     O_R   0.179250 0.730290 0.858500 -0.631418
O29   O     O_R   0.320750 0.230290 0.141500 -0.630944
O30   O     O_R   0.679250 0.230290 0.858500 -0.627320
O31   O     O_R   0.790530 0.724470 0.948890 -0.625251
O32   O     O_R   0.209470 0.724470 0.051110 -0.625943
O33   O     O_R   0.290530 0.224470 0.948890 -0.625528
O34   O     O_R   0.820770 0.269690 0.141550 -0.631872
O35   O     O_R   0.709470 0.224470 0.051110 -0.625233
O36   O     O_R   0.841580 0.775540 0.051010 -0.615913
O37   O     O_R   0.158420 0.775540 0.948990 -0.615405
O38   O     O_R   0.341580 0.275540 0.051010 -0.615482
O39   O     O_R   0.658420 0.275540 0.948990 -0.617654
O40   O     O_R   0.007900 0.545210 0.590430 -0.614919
O41   O     O_R   0.992100 0.545210 0.409570 -0.618118
O42   O     O_R   0.507900 0.045210 0.590430 -0.613679
O43   O     O_R   0.492100 0.045210 0.409570 -0.615054
O44   O     O_R   0.082500 0.545230 0.590410 -0.630604
O45   O     O_R   0.917500 0.545230 0.409590 -0.624413
O46   O     O_R   0.582500 0.045230 0.590410 -0.623950
O47   O     O_R   0.417500 0.045230 0.409590 -0.630444
O48   O     O_R   0.507930 0.954750 0.590450 -0.616361
Zn1   Zn    Zn3+2 0.715910 0.715890 0.931790 0.957920
Zn2   Zn    Zn3+2 0.549820 0.999980 0.500010 0.950744
Zn3   Zn    Zn3+2 0.950180 0.499980 0.499990 0.948664
Zn4   Zn    Zn3+2 0.049820 0.499980 0.500010 0.948983
Zn5   Zn    Zn3+2 0.284090 0.715890 0.068210 0.961190
Zn6   Zn    Zn3+2 0.215910 0.215890 0.931790 0.958085
Zn7   Zn    Zn3+2 0.784090 0.215890 0.068210 0.945406
Zn8   Zn    Zn3+2 0.784070 0.784090 0.068160 0.958836
Zn9   Zn    Zn3+2 0.215930 0.784090 0.931840 0.954543
Zn10  Zn    Zn3+2 0.284070 0.284090 0.068160 0.953649
Zn11  Zn    Zn3+2 0.715930 0.284090 0.931840 0.968363
Zn12  Zn    Zn3+2 0.450180 0.999980 0.499990 0.950236

loop_
_geom_bond_atom_site_label_1
_geom_bond_atom_site_label_2
_ccdc_geom_bond_type
C85   H67   S    
C71   C75   A    
C117  O4    A    
O48   Zn12  S    
C30   H18   S    
C53   C58   A    
C57   N1    S    
C21   C66   A    
C2    C18   A    
H79   N10   S    
C33   C45   S    
C90   H3    S    
C14   C18   A    
O35   Zn7   S    
O12   Zn5   S    
C34   C42   S    
O18   Zn8   S    
C96   H49   S    
C4    C8    A    
C42   N13   S    
C17   C110  A    
H46   N18   S    
C114  O5    A    
C24   N8    S    
O39   Zn11  S    
C112  O25   A    
C34   H21   S    
C37   C116  S    
C119  O37   A    
C94   H7    S    
C31   C40   S    
C105  O44   A    
C7    C11   A    
C81   N18   S    
C83   H45   S    
C94   C108  S    
C26   C27   A    
C50   C54   A    
C7    C99   A    
C30   C35   D    
O31   Zn1   S    
C65   C79   A    
C61   O14   A    
H82   N13   S    
C28   C29   A    
C61   O18   A    
C103  N3    S    
C87   C96   S    
C32   H20   S    
C11   C63   S    
C10   C15   A    
C31   C36   D    
C41   N11   S    
H68   N7    S    
C49   C53   A    
C68   C72   A    
C46   H25   S    
C100  H52   S    
C20   C25   A    
O42   Zn12  S    
C65   C70   A    
C48   H27   S    
O6    Zn12  S    
C100  C104  D    
H80   N11   S    
C6    C88   A    
H57   N2    S    
C35   C114  S    
C51   C56   A    
C101  C109  S    
H70   N8    S    
C93   H6    S    
H81   N11   S    
C29   C88   A    
O3    Zn3   S    
C69   C82   A    
C44   O23   A    
C93   C105  S    
C80   N17   S    
O27   Zn8   S    
C38   C117  S    
C95   H8    S    
C1    C43   S    
C5    H12   S    
C109  O27   A    
C64   O21   A    
C20   C24   A    
C51   H30   S    
C1    O9    A    
C111  O24   A    
C115  O6    A    
C12   C17   A    
C70   C74   A    
C45   H24   S    
C41   C46   D    
C49   C75   A    
C69   C73   A    
C70   C71   A    
C108  O47   A    
C91   C100  S    
O14   Zn1   S    
H44   N18   S    
C67   C71   A    
C97   C102  D    
C8    C12   A    
C101  N20   S    
C89   H2    S    
O30   Zn11  S    
C23   C25   A    
C47   H26   S    
O33   Zn6   S    
C34   C38   D    
H66   N7    S    
C92   H5    S    
C107  O46   A    
C56   C120  S    
O8    Zn3   S    
C102  C111  S    
C16   H13   S    
C25   C99   A    
C44   C46   S    
C120  O33   A    
C90   C94   D    
C54   C59   A    
H43   N17   S    
C40   C45   D    
C118  O36   A    
H59   N3    S    
O5    Zn2   S    
C2    N6    S    
O11   Zn10  S    
C12   H9    S    
O45   Zn3   S    
C116  O3    A    
C80   C84   A    
C26   C77   A    
C48   C74   A    
O32   Zn5   S    
C62   O19   A    
H61   N4    S    
C96   C101  D    
C115  O2    A    
C52   C57   A    
C60   N15   S    
C57   C65   A    
C63   O16   A    
C39   N9    S    
C53   C118  S    
H38   N15   S    
C13   C19   A    
C39   C43   D    
C82   N19   S    
C28   H16   S    
C111  O28   A    
C82   C86   A    
C73   C78   A    
C78   C85   A    
H69   N8    S    
H62   N5    S    
C17   C21   A    
C113  O26   A    
C56   C60   A    
C13   C24   A    
C89   C97   S    
C103  C112  S    
C37   H73   S    
O25   Zn6   S    
C108  O43   A    
C15   C19   A    
C9    C14   A    
C5    C9    A    
C26   H14   S    
C50   C76   A    
C59   C68   A    
C11   C16   A    
H32   N1    S    
O41   Zn4   S    
H42   N17   S    
C16   C20   A    
O10   Zn9   S    
H58   N3    S    
O44   Zn4   S    
C107  O42   A    
O40   Zn3   S    
O47   Zn12  S    
C72   C76   A    
H54   N20   S    
C32   C37   D    
C55   O13   A    
C84   H56   S    
C102  N2    S    
H47   N19   S    
O24   Zn5   S    
C33   O12   A    
C95   C107  S    
C86   H78   S    
O37   Zn9   S    
C98   H51   S    
C28   C99   A    
C92   C106  S    
C8    C62   S    
C109  O22   A    
C120  O38   A    
O46   Zn2   S    
C116  O7    A    
C9    C61   S    
C44   O11   A    
C110  N5    S    
H48   N19   S    
C68   C81   A    
C32   C41   S    
C5    C77   A    
C76   C86   A    
C87   H84   S    
C3    O39   A    
C87   C92   D    
O29   Zn10  S    
C19   C23   A    
C119  O32   A    
C47   C55   S    
C14   H10   S    
C1    O1    A    
O7    Zn4   S    
O9    Zn8   S    
C2    C110  A    
C106  O41   A    
C35   H71   S    
C113  O30   A    
H31   N1    S    
C36   H72   S    
O1    Zn1   S    
O22   Zn1   S    
C10   C64   S    
C67   C80   A    
C22   C77   A    
C74   C84   A    
C72   C73   A    
C43   H22   S    
C59   N14   S    
C114  O48   A    
C6    C10   A    
O17   Zn7   S    
O36   Zn8   S    
H64   N6    S    
O21   Zn11  S    
C64   O17   A    
H63   N5    S    
C29   H17   S    
C117  O8    A    
H39   N15   S    
C33   O10   A    
C23   C88   A    
C55   O34   A    
C27   H15   S    
O26   Zn7   S    
O23   Zn6   S    
C18   C22   A    
C51   C78   A    
C13   N7    S    
C27   C66   A    
H60   N4    S    
O28   Zn9   S    
O19   Zn9   S    
O43   Zn2   S    
C4    C66   A    
H76   N9    S    
C36   C115  S    
C50   H29   S    
C75   C83   A    
C79   N16   S    
H40   N16   S    
C7    H34   S    
C60   C69   A    
O4    Zn4   S    
C105  O40   A    
C3    O35   A    
C63   O20   A    
O15   Zn5   S    
O20   Zn10  S    
C3    C54   S    
C4    H1    S    
O16   Zn6   S    
C42   C47   D    
C104  N4    S    
C89   C93   D    
H35   N12   S    
O13   Zn11  S    
H83   N13   S    
H75   N9    S    
C118  O31   A    
C62   O15   A    
C91   C95   D    
C104  C113  S    
C79   C83   A    
C52   C119  S    
C38   H74   S    
C58   C67   A    
C48   C52   A    
C15   H11   S    
C49   H28   S    
C106  O45   A    
H37   N14   S    
O38   Zn10  S    
H41   N16   S    
C40   N10   S    
O34   Zn7   S    
C112  O29   A    
H65   N6    S    
C91   H4    S    
H36   N14   S    
O2    Zn2   S    
H55   N2    S    
C6    H23   S    
C21   C22   A    
H53   N20   S    
C31   H19   S    
C97   H50   S    
C90   C98   S    
H33   N12   S    
C81   C85   A    
H77   N10   S    
C98   C103  D    
C30   C39   S    
C58   N12   S    
