data_mof_unit_58614.cif
_audit_creation_date              2013-03-05T16:36:15-0500
_audit_creation_method            fapswitch 2.2
_symmetry_space_group_name_H-M    P1
_symmetry_Int_Tables_number       1
_space_group_crystal_system       triclinic
_cell_length_a                    27.892077
_cell_length_b                    9.110527
_cell_length_c                    7.759169
_cell_angle_alpha                 90.127594
_cell_angle_beta                  90.043506
_cell_angle_gamma                 90.123368
_cell_volume                      1971.68419793

loop_
_atom_site_label
_atom_site_type_symbol
_atom_site_description
_atom_site_fract_x
_atom_site_fract_y
_atom_site_fract_z
_atom_type_partial_charge
O1    O     O_R   0.500000 0.288390 0.642760 -0.574872
O2    O     O_R   0.500000 0.711610 0.357240 -0.574088
O3    O     O_R   0.500000 0.711610 0.642760 -0.577507
O4    O     O_R   0.500000 0.288390 0.357240 -0.571701
C1    C     C_R   0.500183 0.219894 0.499891 0.833573
C2    C     C_R   0.499840 0.780110 0.500110 0.829258
O5    O     O_R   0.430260 0.500000 0.642770 -0.578784
O6    O     O_R   0.569740 0.500000 0.357230 -0.584523
O7    O     O_R   0.569740 0.500000 0.642770 -0.584784
O8    O     O_R   0.430260 0.500000 0.357230 -0.587817
C3    C     C_R   0.407218 0.500224 0.499891 0.800512
C4    C     C_R   0.593035 0.500260 0.500073 0.804844
Cu1   Cu    Cu3+1 0.500000 0.500000 0.669080 0.980552
Cu2   Cu    Cu3+1 0.500000 0.500000 0.330920 0.978926
C5    C     C_R   0.177511 0.378550 0.544793 0.590144
C6    C     C_R   0.823830 0.633300 0.518666 0.585975
C7    C     C_R   0.177594 0.632584 0.470021 0.586959
C8    C     C_R   0.823960 0.372764 0.485251 0.586108
O9    O     O_2   0.202071 0.255783 0.584979 -0.529640
O10   O     O_2   0.799359 0.760676 0.528875 -0.525125
O11   O     O_2   0.202221 0.755473 0.429699 -0.533270
O12   O     O_2   0.799608 0.244915 0.473913 -0.525171
N1    N     N_R   0.201687 0.505502 0.506742 -0.456680
N2    N     N_R   0.799638 0.502787 0.501479 -0.456919
C9    C     C_R   0.278982 0.595454 0.616122 -0.124031
C10   C     C_R   0.722893 0.438975 0.364163 -0.138739
C11   C     C_R   0.277603 0.413170 0.389915 -0.136811
C12   C     C_R   0.722732 0.564808 0.637405 -0.139405
C13   C     C_R   0.329155 0.597459 0.614360 0.069373
C14   C     C_R   0.672691 0.432793 0.363194 0.075030
C15   C     C_R   0.327779 0.407828 0.387973 0.078610
C16   C     C_R   0.672535 0.569797 0.637699 0.075004
C17   C     C_R   0.253223 0.504957 0.504073 0.263153
C18   C     C_R   0.747963 0.502214 0.500965 0.268225
C19   C     C_R   0.101893 0.505366 0.507725 -0.064250
C20   C     C_R   0.899552 0.503757 0.503769 -0.065935
C21   C     C_R   0.127217 0.375552 0.543223 -0.094785
C22   C     C_R   0.874118 0.635754 0.523662 -0.093511
C23   C     C_R   0.127291 0.635404 0.472439 -0.092612
C24   C     C_R   0.874257 0.371287 0.482588 -0.093876
C25   C     C_R   0.101825 0.246933 0.580793 -0.234217
C26   C     C_R   0.899374 0.766324 0.553068 -0.234176
C27   C     C_R   0.101956 0.763834 0.434929 -0.234123
C28   C     C_R   0.899673 0.241188 0.454431 -0.233620
C29   C     C_R   0.354247 0.502081 0.500195 -0.088198
C30   C     C_R   0.646463 0.500917 0.500319 -0.084754
H1    H     H_    0.256954 0.343184 0.304400 0.160433
H2    H     H_    0.742832 0.613016 0.742935 0.158291
H3    H     H_    0.259613 0.666106 0.704367 0.164746
H4    H     H_    0.743112 0.391281 0.258886 0.158405
H5    H     H_    0.120428 0.147623 0.617968 0.213736
H6    H     H_    0.880612 0.867598 0.581121 0.211691
H7    H     H_    0.120615 0.863348 0.398063 0.214040
H8    H     H_    0.881065 0.139572 0.425432 0.211722
C31   C     C_R   0.975581 0.369717 0.497423 -0.049648
C32   C     C_R   0.025936 0.639036 0.489401 -0.046868
C33   C     C_R   0.975500 0.639169 0.513956 -0.049191
C34   C     C_R   0.025925 0.370722 0.524219 -0.046887
C35   C     C_R   0.950327 0.504220 0.505063 -0.078161
C36   C     C_R   0.051137 0.505065 0.507221 -0.075859
C37   C     C_R   0.949584 0.240832 0.456886 0.724160
C38   C     C_R   0.052065 0.765767 0.441077 0.717110
C39   C     C_R   0.949296 0.767597 0.553138 0.723762
C40   C     C_R   0.051950 0.244405 0.573580 0.717493
C41   C     C_1   0.500109 0.065310 0.499839 -0.187630
C42   C     C_1   0.499978 0.934691 0.500154 -0.186305
N3    N     N_1   0.500000 0.500000 0.076820 -0.058746
N4    N     N_1   0.500000 0.500000 0.923180 -0.056948
C43   C     C_3   0.351120 0.295079 0.270638 -0.387099
C44   C     C_3   0.370781 0.165657 0.373406 -0.774314
H9    H     H_    0.397614 0.202640 0.469599 0.233399
H10   H     H_    0.341119 0.108678 0.441636 0.260574
H11   H     H_    0.388241 0.086448 0.284540 0.236846
H12   H     H_    0.324624 0.250522 0.176874 0.203669
H13   H     H_    0.379571 0.345253 0.190486 0.223604
C45   C     C_3   0.649232 0.654968 0.784214 -0.383118
C46   C     C_3   0.627811 0.799530 0.721279 -0.752093
H14   H     H_    0.610926 0.858110 0.831150 0.235644
H15   H     H_    0.656462 0.870425 0.666758 0.255742
H16   H     H_    0.600166 0.780790 0.621024 0.236935
H17   H     H_    0.622263 0.587774 0.853013 0.220040
H18   H     H_    0.676083 0.683186 0.885103 0.194599
C47   C     C_3   0.353960 0.706910 0.732225 -0.387270
C48   C     C_3   0.357368 0.648142 0.916135 -0.751882
H19   H     H_    0.320968 0.629836 0.970107 0.242470
H20   H     H_    0.377405 0.543027 0.918955 0.260523
H21   H     H_    0.376439 0.729020 0.998805 0.237761
H22   H     H_    0.390140 0.737064 0.684667 0.205969
H23   H     H_    0.333422 0.811411 0.734030 0.205153
C49   C     C_3   0.649534 0.347607 0.216041 -0.383199
C50   C     C_3   0.628151 0.202451 0.278014 -0.750867
H24   H     H_    0.601080 0.220096 0.380449 0.235671
H25   H     H_    0.610545 0.145282 0.168240 0.235531
H26   H     H_    0.656966 0.130726 0.329465 0.255548
H27   H     H_    0.622555 0.414573 0.147281 0.219861
H28   H     H_    0.676444 0.320268 0.115315 0.194557
F1    F     F_    0.971884 0.118803 0.398305 -0.535386
F2    F     F_    0.029903 0.887100 0.380000 -0.542288
F3    F     F_    0.971330 0.890064 0.612760 -0.535665
F4    F     F_    0.029659 0.122826 0.634124 -0.542585

loop_
_geom_bond_atom_site_label_1
_geom_bond_atom_site_label_2
_geom_bond_distance
_ccdc_geom_bond_type
C31   C35   1.415882 A    
C48   H21   1.110413 S    
C14   C49   1.521830 S    
C20   C35   1.416231 A    
C49   H27   1.107215 S    
C46   H14   1.110437 S    
C11   C17   1.395117 A    
C5    O9    1.349811 S    
C7    N1    1.370325 A    
C2    C42   1.408305 S    
C21   C25   1.399263 A    
O1    C1    1.270926 A    
C19   C21   1.406496 A    
C48   H20   1.110093 S    
C13   C47   1.517032 S    
C10   H4    1.083647 S    
C33   C35   1.416044 A    
C34   C36   1.416704 A    
O7    Cu1   1.956028 S    
C32   C33   1.419741 A    
C7    C23   1.403482 A    
C8    C24   1.403138 A    
C5    C21   1.403054 A    
C20   C24   1.405914 A    
C39   F3    1.353114 S    
C38   F2    1.354050 S    
C27   H7    1.083521 S    
N1    C17   1.437616 S    
Cu2   N3    1.971604 S    
C44   H9    1.108017 S    
C8    N2    1.371950 A    
O3    Cu1   1.939117 S    
O6    C4    1.284331 A    
O3    C2    1.271878 A    
C5    N1    1.370429 A    
C47   H22   1.108963 S    
C12   C18   1.393340 A    
C6    N2    1.372088 A    
Cu1   Cu2   2.623841 S    
C9    C13   1.399587 A    
O2    C2    1.270952 A    
C10   C18   1.393573 A    
C33   C39   1.413522 A    
C46   H15   1.110980 S    
C34   C40   1.415318 A    
C47   H23   1.112236 S    
C11   C15   1.400574 A    
N3    N4    1.192120 T    
C12   C16   1.400943 A    
C45   C46   1.528336 S    
C4    C30   1.490203 S    
O8    Cu2   1.956030 S    
C45   H18   1.112286 S    
C50   H24   1.108397 S    
C23   C27   1.399236 A    
N2    C18   1.441315 S    
C32   C36   1.416765 A    
C13   C29   1.424669 A    
C19   C36   1.415703 A    
C19   C23   1.406573 A    
C50   H25   1.110937 S    
C15   C43   1.519031 S    
O5    C3    1.281027 A    
C47   C48   1.528204 S    
O5    Cu1   1.955722 S    
C6    O10   1.349769 S    
C44   H11   1.110478 S    
C43   H12   1.112118 S    
C48   H19   1.110940 S    
C1    C41   1.408337 S    
C10   C14   1.401243 A    
C32   C38   1.415471 A    
C3    C29   1.477616 S    
O1    Cu1   1.938214 S    
C46   H16   1.107589 S    
C11   H1    1.083722 S    
C12   H2    1.083663 S    
O6    Cu2   1.955719 S    
C8    O12   1.349769 S    
C16   C30   1.432742 A    
C14   C30   1.432699 A    
C37   F1    1.353009 S    
O4    C1    1.271869 A    
C45   H17   1.107086 S    
C16   C45   1.521951 S    
C49   H28   1.112234 S    
C28   C37   1.392231 A    
C20   C22   1.405798 A    
C40   F4    1.354220 S    
C50   H26   1.111423 S    
C49   C50   1.528287 S    
C31   C37   1.413457 A    
C43   H13   1.107202 S    
O4    Cu2   1.939118 S    
C43   C44   1.527465 S    
O2    Cu2   1.938213 S    
O7    C4    1.284211 A    
C9    H3    1.084022 S    
C9    C17   1.394693 A    
O8    C3    1.280401 A    
C22   C26   1.399395 A    
C28   H8    1.083464 S    
C24   C28   1.399238 A    
C41   C42   1.190017 T    
C15   C29   1.426009 A    
C31   C34   1.419348 A    
C6    C22   1.403269 A    
C44   H10   1.110986 S    
C25   C40   1.392336 A    
C26   C39   1.392462 A    
C25   H5    1.083522 S    
C27   C38   1.392543 A    
C26   H6    1.083460 S    
Cu1   N4    1.971604 S    
C7    O11   1.349728 S    
