data_mof_unit_32697.cif
_audit_creation_date              2012-12-10T17:20:57-0500
_audit_creation_method            fapswitch 2.2
_symmetry_space_group_name_H-M    P1
_symmetry_Int_Tables_number       1
_space_group_crystal_system       triclinic
_cell_length_a                    18.499657
_cell_length_b                    25.784894
_cell_length_c                    18.11017
_cell_angle_alpha                 90.029929
_cell_angle_beta                  90.471519
_cell_angle_gamma                 90.008753
_cell_volume                      8638.46906814

loop_
_atom_site_label
_atom_site_type_symbol
_atom_type_description
_atom_site_fract_x
_atom_site_fract_y
_atom_site_fract_z
_atom_type_partial_charge
C1    C     C_R   0.390699 0.251840 0.138796 0.923098
C2    C     C_R   0.616349 0.257614 0.925390 -0.133970
C3    C     C_R   0.030771 0.111520 0.234130 -0.164391
C4    C     C_R   0.653311 0.685247 0.148994 -0.247571
C5    C     C_R   0.387469 0.247003 0.585346 -0.191475
C6    C     C_R   0.652491 0.316835 0.150476 -0.213460
C7    C     C_R   0.387449 0.755573 0.585141 -0.218579
C8    C     C_R   0.141994 0.214122 0.713611 -0.179866
C9    C     C_R   0.959046 0.738475 0.106290 -0.125481
C10   C     C_R   0.140042 0.789569 0.715330 -0.136934
C11   C     C_R   0.063951 0.158092 0.215172 -0.134456
C12   C     C_R   0.639961 0.710144 0.215343 -0.171921
C13   C     C_R   0.355978 0.174975 0.342007 -0.131750
C14   C     C_R   0.459111 0.238631 0.606296 -0.125973
C15   C     C_R   0.639364 0.291463 0.216472 -0.105901
C16   C     C_R   0.459326 0.762765 0.606164 -0.118462
C17   C     C_R   0.288569 0.054077 0.131188 -0.144485
C18   C     C_R   0.288922 0.946085 0.131120 -0.134916
C19   C     C_R   0.787540 0.554068 0.631408 -0.134246
C20   C     C_R   0.787584 0.446076 0.631437 -0.132360
C21   C     C_R   0.307459 0.027070 0.195127 -0.135120
C22   C     C_R   0.307664 0.973170 0.195085 -0.129741
C23   C     C_R   0.805803 0.527062 0.695534 -0.128248
C24   C     C_R   0.616370 0.741034 0.924858 -0.149135
C25   C     C_R   0.805822 0.473162 0.695549 -0.128042
C26   C     C_R   0.269922 0.972777 0.065320 0.070078
C27   C     C_R   0.269809 0.027306 0.065339 0.070451
C28   C     C_R   0.769294 0.472767 0.565436 0.070772
C29   C     C_R   0.769267 0.527295 0.565422 0.069610
C30   C     C_R   0.249975 0.946190 0.000080 -0.133776
C31   C     C_R   0.249899 0.053818 0.000078 -0.134573
C32   C     C_R   0.750141 0.446176 0.499966 -0.130928
C33   C     C_R   0.750034 0.553806 0.499953 -0.133957
C34   C     C_R   0.229714 0.972707 0.934929 0.069396
C35   C     C_R   0.853248 0.319803 0.845199 -0.157803
C36   C     C_R   0.229693 0.027231 0.934923 0.070375
C37   C     C_R   0.731193 0.472678 0.434418 0.069851
C38   C     C_R   0.731018 0.527206 0.434441 0.070181
C39   C     C_R   0.210411 0.945944 0.869230 -0.138962
C40   C     C_R   0.210376 0.053921 0.869215 -0.140021
C41   C     C_R   0.713378 0.445894 0.368318 -0.147555
C42   C     C_R   0.712816 0.553887 0.368412 -0.141627
C43   C     C_R   0.191073 0.972951 0.805429 -0.125335
C44   C     C_R   0.191058 0.026844 0.805422 -0.130769
C45   C     C_R   0.695296 0.472890 0.304134 -0.128112
C46   C     C_R   0.116727 0.758167 0.425058 -0.144251
C47   C     C_R   0.694966 0.526789 0.304193 -0.130558
C48   C     C_R   0.249993 0.109515 0.000026 0.772708
C49   C     C_R   0.250012 0.890488 0.000057 0.774324
C50   C     C_R   0.750010 0.609510 0.499955 0.775568
C51   C     C_R   0.750036 0.390483 0.500014 0.768964
C52   C     C_R   0.249986 0.391490 0.000105 0.781054
C53   C     C_R   0.250119 0.608503 0.000080 0.832361
C54   C     C_R   0.750039 0.891494 0.500101 0.781264
C55   C     C_R   0.750217 0.108508 0.500079 0.820192
C56   C     C_3   0.250275 0.470252 0.080805 -0.365526
C57   C     C_R   0.855516 0.675619 0.842488 -0.153807
C58   C     C_3   0.181954 0.529942 0.959943 -0.406334
C59   C     C_3   0.250335 0.529759 0.080785 -0.369897
C60   C     C_3   0.181900 0.470013 0.959983 -0.387242
C61   C     C_3   0.748809 0.970272 0.580758 -0.364779
C62   C     C_3   0.683110 0.029957 0.458238 -0.406350
C63   C     C_3   0.748594 0.029781 0.580745 -0.371812
C64   C     C_3   0.682882 0.970048 0.458510 -0.389002
C65   C     C_3   0.318259 0.469977 0.960890 -0.372131
C66   C     C_3   0.318303 0.529927 0.960872 -0.328635
C67   C     C_3   0.819204 0.969969 0.462330 -0.369974
C68   C     C_R   0.956643 0.394848 0.259499 -0.128844
C69   C     C_3   0.819473 0.029934 0.462679 -0.357191
C70   C     C_3   0.250120 0.449135 0.000434 0.141069
C71   C     C_3   0.250193 0.550836 0.000399 0.119501
C72   C     C_3   0.750248 0.949147 0.500414 0.145418
C73   C     C_3   0.750366 0.050847 0.500397 0.139964
C74   C     C_R   0.972863 0.296244 0.886520 -0.135793
C75   C     C_R   0.150841 0.757417 0.297064 -0.145097
C76   C     C_R   0.974713 0.699941 0.884419 -0.141994
C77   C     C_R   0.042716 0.348534 0.185072 -0.157880
C78   C     C_R   0.475032 0.800337 0.384242 -0.141727
C79   C     C_R   0.367327 0.798712 0.276083 -0.159624
C80   C     C_R   0.650768 0.256414 0.797461 -0.150804
C81   C     C_R   0.475161 0.199311 0.383943 -0.145246
C82   C     C_R   0.650584 0.742054 0.796913 -0.145707
C83   C     C_R   0.906422 0.319722 0.899738 -0.127416
C84   C     C_R   0.169932 0.758486 0.371569 -0.143480
C85   C     C_R   0.909051 0.675083 0.896687 -0.158646
C86   C     C_R   0.011201 0.395001 0.207301 -0.147439
C87   C     C_R   0.409479 0.825338 0.396503 -0.159204
C88   C     C_R   0.669664 0.257262 0.872034 -0.137483
C89   C     C_R   0.409600 0.174303 0.396120 -0.159746
C90   C     C_R   0.543789 0.257904 0.904501 -0.115122
C91   C     C_R   0.669614 0.740760 0.871420 -0.143856
C92   C     C_R   0.367537 0.200931 0.275679 -0.150977
C93   C     C_R   0.390873 0.747785 0.860544 0.840748
C94   C     C_R   0.543738 0.741462 0.904111 -0.098597
C95   C     C_R   0.865856 0.295668 0.777688 -0.162552
C96   C     C_R   0.044076 0.757930 0.404372 -0.110519
C97   C     C_R   0.867189 0.701388 0.776046 -0.158605
C98   C     C_R   0.932691 0.348167 0.289206 -0.140984
C99   C     C_R   0.433499 0.772657 0.262389 0.068134
C100  C     C_R   0.522832 0.256007 0.829088 0.083303
C101  C     C_R   0.433629 0.227138 0.262187 0.065343
C102  C     C_R   0.522674 0.743606 0.828741 0.076718
C103  C     C_R   0.932800 0.270866 0.763145 0.068368
C104  C     C_R   0.390591 0.748300 0.138898 0.913455
C105  C     C_R   0.022951 0.756118 0.329001 0.082003
C106  C     C_R   0.933400 0.727398 0.762428 0.069899
C107  C     C_R   0.964456 0.300423 0.268406 0.083117
C108  C     C_R   0.987172 0.271886 0.817956 0.086696
C109  C     C_R   0.077360 0.754465 0.274387 0.077931
C110  C     C_R   0.987955 0.726127 0.817077 0.093960
C111  C     C_R   0.021180 0.300577 0.216217 0.085148
C112  C     C_R   0.488099 0.773952 0.316978 0.092355
C113  C     C_R   0.577311 0.254089 0.774562 0.079398
C114  C     C_R   0.488199 0.225824 0.316812 0.095962
C115  C     C_R   0.390926 0.252258 0.860610 0.807599
C116  C     C_R   0.577134 0.745257 0.774212 0.073229
C117  C     C_R   0.445920 0.745624 0.195525 -0.159516
C118  C     C_R   0.449345 0.259840 0.806718 -0.156420
C119  C     C_R   0.445913 0.254501 0.195602 -0.157011
C120  C     C_R   0.449076 0.740406 0.806375 -0.167996
C121  C     C_R   0.946343 0.245634 0.695070 -0.159985
C122  C     C_R   0.949386 0.759797 0.306706 -0.157204
C123  C     C_R   0.945895 0.754439 0.695629 -0.160444
C124  C     C_R   0.936839 0.252444 0.293663 -0.166237
C125  C     C_R   0.512243 0.719329 0.182114 -0.055035
C126  C     C_R   0.890671 0.751805 0.638829 0.923924
C127  C     C_R   0.432111 0.267395 0.730596 -0.035286
C128  C     C_R   0.511893 0.281388 0.182774 -0.051547
C129  C     C_R   0.431592 0.733570 0.730114 -0.090894
C130  C     C_R   0.014037 0.221553 0.680177 -0.060912
C131  C     C_R   0.932072 0.767281 0.230578 -0.036734
C132  C     C_R   0.012211 0.780782 0.682456 -0.053609
C133  C     C_R   0.959813 0.205604 0.259400 -0.025760
C134  C     C_R   0.070840 0.229143 0.732148 0.046464
C135  C     C_R   0.983124 0.751525 0.178297 0.038547
C136  C     C_R   0.069598 0.772765 0.733489 0.046909
C137  C     C_R   0.888034 0.250590 0.357589 0.847269
C138  C     C_R   0.026822 0.205642 0.223722 0.035398
C139  C     C_R   0.569573 0.727125 0.233359 0.046634
C140  C     C_R   0.483167 0.251616 0.678332 0.039730
C141  C     C_R   0.569254 0.273640 0.233958 0.033568
C142  C     C_R   0.483024 0.749122 0.678059 0.048596
C143  C     C_R   0.055515 0.250719 0.802144 -0.119134
C144  C     C_R   0.056641 0.750155 0.198910 -0.134587
C145  C     C_R   0.055433 0.749046 0.802244 -0.107455
C146  C     C_R   0.053899 0.252772 0.196158 -0.131798
C147  C     C_R   0.555459 0.750869 0.302170 -0.121899
C148  C     C_R   0.890693 0.248258 0.638768 0.920710
C149  C     C_R   0.556662 0.250080 0.698999 -0.133558
C150  C     C_R   0.555423 0.249193 0.302268 -0.104200
C151  C     C_R   0.556537 0.749913 0.698789 -0.136548
C152  C     C_R   0.525087 0.685857 0.119894 0.368084
C153  C     C_R   0.365936 0.288464 0.702999 0.398573
C154  C     C_R   0.524334 0.315494 0.121243 0.427227
C155  C     C_R   0.364739 0.713743 0.702185 0.402298
C156  C     C_R   0.028878 0.190657 0.615708 0.385789
C157  C     C_R   0.865836 0.788263 0.202994 0.406096
C158  C     C_R   0.024958 0.814563 0.620675 0.430537
C159  C     C_R   0.890966 0.752274 0.360640 0.808853
C160  C     C_R   0.920164 0.158243 0.259013 0.419079
C161  C     C_R   0.596317 0.672207 0.102519 -0.199716
C162  C     C_R   0.341783 0.273810 0.632497 -0.239470
C163  C     C_R   0.595430 0.329577 0.103957 -0.222361
C164  C     C_R   0.340956 0.729287 0.631986 -0.203078
C165  C     C_R   0.100813 0.179511 0.597776 -0.161393
C166  C     C_R   0.841638 0.773505 0.132550 -0.240345
C167  C     C_R   0.096220 0.827888 0.602905 -0.208609
C168  C     C_R   0.958018 0.111390 0.253011 -0.189451
C169  C     C_R   0.110707 0.250107 0.859578 0.762336
C170  C     C_R   0.355816 0.824654 0.342450 -0.154517
C171  C     C_R   0.110825 0.749934 0.140745 0.766983
C172  C     C_R   0.110620 0.749770 0.859664 0.755073
C173  C     C_R   0.110064 0.250862 0.139994 0.767580
C174  C     C_R   0.610656 0.750171 0.359618 0.763586
C175  C     C_R   0.610867 0.249959 0.640812 0.768552
C176  C     C_R   0.610606 0.249776 0.359689 0.752034
C177  C     C_R   0.610812 0.750074 0.640734 0.767441
C178  C     C_R   0.156854 0.191929 0.645725 -0.246250
C179  C     C_R   0.887359 0.746742 0.085390 -0.195693
C180  C     C_R   0.153326 0.814504 0.649019 -0.251684
H1    H     H_    0.298888 0.456043 0.111273 0.229775
H2    H     H_    0.790208 0.787307 0.111371 0.162046
H3    H     H_    0.429968 0.620899 0.777173 0.357226
H4    H     H_    0.931902 0.106560 0.658850 0.351236
H5    H     H_    0.720892 0.831388 0.220210 0.333260
H6    H     H_    0.895740 0.843658 0.475118 0.366964
H7    H     H_    0.788869 0.091034 0.287135 0.333676
H8    H     H_    0.107688 0.851318 0.554834 0.189993
H9    H     H_    0.929504 0.074741 0.255264 0.168034
H10   H     H_    0.607838 0.648841 0.054364 0.189676
H11   H     H_    0.290399 0.287687 0.611309 0.167377
H12   H     H_    0.606729 0.353230 0.056062 0.192179
H13   H     H_    0.289082 0.716396 0.610706 0.180714
H14   H     H_    0.187370 0.220010 0.750639 0.145327
H15   H     H_    0.995054 0.721394 0.066253 0.127157
H16   H     H_    0.185946 0.783003 0.751457 0.142582
H17   H     H_    0.180473 0.544190 0.901943 0.208811
H18   H     H_    0.118655 0.156673 0.194478 0.132339
H19   H     H_    0.685794 0.716522 0.251649 0.140449
H20   H     H_    0.495091 0.221496 0.566275 0.127726
H21   H     H_    0.685148 0.285383 0.252939 0.157110
H22   H     H_    0.495765 0.779595 0.566339 0.127527
H23   H     H_    0.176335 0.047787 0.755727 0.147047
H24   H     H_    0.176363 0.951954 0.755742 0.150312
H25   H     H_    0.681147 0.547723 0.254227 0.147420
H26   H     H_    0.681754 0.451881 0.254120 0.148820
H27   H     H_    0.288466 0.095992 0.134189 0.116802
H28   H     H_    0.298976 0.543934 0.111244 0.227288
H29   H     H_    0.289120 0.904171 0.134068 0.119151
H30   H     H_    0.787607 0.595986 0.634347 0.118468
H31   H     H_    0.787701 0.404161 0.634390 0.118832
H32   H     H_    0.321691 0.048074 0.244950 0.137052
H33   H     H_    0.322066 0.952223 0.244875 0.137917
H34   H     H_    0.819696 0.548068 0.745454 0.137968
H35   H     H_    0.819733 0.452218 0.745481 0.137860
H36   H     H_    0.201754 0.456053 0.110664 0.171512
H37   H     H_    0.132381 0.544448 0.987578 0.150940
H38   H     H_    0.201862 0.544009 0.110665 0.175081
H39   H     H_    0.180366 0.455684 0.902002 0.209912
H40   H     H_    0.132317 0.455575 0.987671 0.147632
H41   H     H_    0.699811 0.955964 0.609669 0.176342
H42   H     H_    0.632868 0.044589 0.484457 0.153663
H43   H     H_    0.699312 0.043937 0.609316 0.175875
H44   H     H_    0.632721 0.955733 0.485224 0.152184
H45   H     H_    0.210347 0.904031 0.866250 0.123142
H46   H     H_    0.210275 0.095832 0.866228 0.124142
H47   H     H_    0.713565 0.403976 0.365339 0.118936
H48   H     H_    0.712525 0.595802 0.365509 0.122753
H49   H     H_    0.367867 0.455529 0.989268 0.224805
H50   H     H_    0.796926 0.956175 0.612156 0.226701
H51   H     H_    0.319692 0.544206 0.902911 0.231534
H52   H     H_    0.367932 0.544384 0.989246 0.233506
H53   H     H_    0.319641 0.455629 0.902939 0.230071
H54   H     H_    0.868234 0.955346 0.491566 0.223528
H55   H     H_    0.822564 0.044367 0.404922 0.178816
H56   H     H_    0.868386 0.044231 0.492541 0.229572
H57   H     H_    0.821589 0.955771 0.404347 0.221088
H58   H     H_    0.211888 0.181747 0.631866 0.159582
H59   H     H_    0.869211 0.736765 0.030236 0.162671
H60   H     H_    0.207823 0.826159 0.635299 0.159392
H61   H     H_    0.683174 0.044080 0.400164 0.200143
H62   H     H_    0.059415 0.075238 0.227422 0.169631
H63   H     H_    0.707774 0.673402 0.135460 0.158491
H64   H     H_    0.369354 0.237049 0.530170 0.167712
H65   H     H_    0.706772 0.329288 0.137293 0.168112
H66   H     H_    0.369579 0.766055 0.530114 0.163631
H67   H     H_    0.013122 0.298286 0.930103 0.118585
H68   H     H_    0.194653 0.759593 0.258281 0.147003
H69   H     H_    0.015248 0.697608 0.927694 0.106614
H70   H     H_    0.083017 0.351096 0.142498 0.143131
H71   H     H_    0.515636 0.802740 0.427446 0.108664
H72   H     H_    0.796407 0.044071 0.612479 0.219717
H73   H     H_    0.694739 0.258198 0.758854 0.149056
H74   H     H_    0.515721 0.196942 0.427194 0.107512
H75   H     H_    0.694410 0.739941 0.758133 0.147070
H76   H     H_    0.896505 0.338454 0.952198 0.136228
H77   H     H_    0.226320 0.759975 0.387877 0.147176
H78   H     H_    0.899942 0.654952 0.948220 0.127470
H79   H     H_    0.028583 0.431267 0.183116 0.131791
H80   H     H_    0.400542 0.845675 0.447933 0.128443
H81   H     H_    0.726000 0.258075 0.888530 0.156561
H82   H     H_    0.400603 0.154013 0.447551 0.128130
H83   H     H_    0.682425 0.955627 0.400564 0.207129
H84   H     H_    0.725979 0.739164 0.887771 0.147183
H85   H     H_    0.305041 0.844348 0.351890 0.134380
H86   H     H_    0.631296 0.258865 0.983261 0.157776
H87   H     H_    0.305193 0.155277 0.351386 0.132773
H88   H     H_    0.631433 0.739730 0.982673 0.144955
H89   H     H_    0.801972 0.338669 0.855174 0.135457
H90   H     H_    0.131832 0.759338 0.482877 0.147140
H91   H     H_    0.804698 0.655972 0.851894 0.133876
H92   H     H_    0.931429 0.430957 0.275661 0.140984
H93   H     H_    0.323796 0.799494 0.235861 0.097935
H94   H     H_    0.113709 0.158372 0.547943 0.185779
H95   H     H_    0.505120 0.261479 0.948338 0.195552
H96   H     H_    0.324008 0.200196 0.235434 0.103396
H97   H     H_    0.505064 0.738315 0.948004 0.190524
H98   H     H_    0.822604 0.297007 0.737200 0.099572
H99   H     H_    0.005469 0.761049 0.448330 0.195689
H100  H     H_    0.823739 0.700549 0.735733 0.097361
H101  H     H_    0.886994 0.350032 0.325890 0.132853
H102  H     H_    0.428714 0.604226 0.171826 0.352797
H103  H     H_    0.220916 0.331835 0.720148 0.334775
H104  H     H_    0.396421 0.343580 0.974542 0.367163
O1    O     O_3   0.249990 0.250010 0.000000 -0.494393
O2    O     O_R   0.835430 0.219350 0.353840 -0.565034
O3    O     O_R   0.835430 0.219350 0.646160 -0.589380
O4    O     O_R   0.835430 0.780650 0.353840 -0.576268
O5    O     O_R   0.164550 0.280640 0.853840 -0.623263
O6    O     O_R   0.164550 0.719360 0.146160 -0.666873
O7    O     O_R   0.164550 0.719360 0.853840 -0.618973
O8    O     O_R   0.164550 0.280640 0.146160 -0.659886
O9    O     O_R   0.664550 0.780640 0.353840 -0.622876
O10   O     O_R   0.664550 0.219360 0.646160 -0.666801
O11   O     O_R   0.664550 0.219360 0.353840 -0.602766
O12   O     O_3   0.249990 0.749990 0.000000 -0.503692
O13   O     O_R   0.664550 0.780640 0.646160 -0.661873
O14   O     O_R   0.396160 0.219380 0.914560 -0.632732
O15   O     O_R   0.396160 0.780620 0.085440 -0.641791
O16   O     O_R   0.396160 0.780620 0.914560 -0.646338
O17   O     O_R   0.396160 0.219380 0.085440 -0.631425
O18   O     O_R   0.896160 0.719380 0.414560 -0.634255
O19   O     O_R   0.896160 0.280620 0.585440 -0.626343
O20   O     O_R   0.896160 0.280620 0.414560 -0.623211
O21   O     O_R   0.896160 0.719380 0.585440 -0.631407
O22   O     O_R   0.103840 0.219370 0.085450 -0.625807
O23   O     O_3   0.749990 0.750010 0.500000 -0.494161
O24   O     O_R   0.103840 0.780630 0.914550 -0.635972
O25   O     O_R   0.103840 0.780630 0.085450 -0.622377
O26   O     O_R   0.103840 0.219370 0.914550 -0.631232
O27   O     O_R   0.603840 0.719370 0.585450 -0.625295
O28   O     O_R   0.603840 0.280630 0.414550 -0.636865
O29   O     O_R   0.603840 0.280630 0.585450 -0.621020
O30   O     O_R   0.603840 0.719370 0.414550 -0.633730
O31   O     O_R   0.310730 0.133160 0.000000 -0.641542
O32   O     O_R   0.310730 0.866840 0.000000 -0.645563
O33   O     O_R   0.810730 0.633160 0.500000 -0.644661
O34   O     O_3   0.749990 0.249990 0.500000 -0.504533
O35   O     O_R   0.810730 0.366840 0.500000 -0.655207
O36   O     O_R   0.249970 0.366860 0.060720 -0.614726
O37   O     O_R   0.249970 0.633140 0.939280 -0.593673
O38   O     O_R   0.249970 0.633140 0.060720 -0.605662
O39   O     O_R   0.249970 0.366860 0.939280 -0.600866
O40   O     O_R   0.749970 0.866860 0.560720 -0.610237
O41   O     O_R   0.749970 0.133140 0.439280 -0.608778
O42   O     O_R   0.749970 0.133140 0.560720 -0.607263
O43   O     O_R   0.749970 0.866860 0.439280 -0.602217
O44   O     O_R   0.189290 0.133150 0.000000 -0.636887
O45   O     O_R   0.335430 0.280650 0.146160 -0.578102
O46   O     O_R   0.189290 0.866850 0.000000 -0.631276
O47   O     O_R   0.689290 0.633150 0.500000 -0.630748
O48   O     O_R   0.689290 0.366850 0.500000 -0.627546
O49   O     O_2   0.416464 0.680096 0.018648 -0.336817
O50   O     O_2   0.490083 0.602827 0.035583 -0.320725
O51   O     O_3   0.398715 0.625344 0.137707 -0.539270
O52   O     O_2   0.381670 0.371098 0.794114 -0.261294
O53   O     O_2   0.335790 0.387289 0.669548 -0.261263
O54   O     O_3   0.248858 0.345157 0.763023 -0.490586
O55   O     O_2   0.403507 0.372608 0.134021 -0.285726
O56   O     O_R   0.335430 0.719350 0.853840 -0.560732
O57   O     O_2   0.489270 0.399460 0.040117 -0.335684
O58   O     O_3   0.411166 0.318324 0.013039 -0.610256
O59   O     O_2   0.254578 0.658533 0.756978 -0.243119
O60   O     O_2   0.331274 0.615776 0.666865 -0.271362
O61   O     O_3   0.382110 0.627173 0.799619 -0.510525
O62   O     O_2   0.924250 0.187472 0.510576 -0.317413
O63   O     O_2   0.998152 0.110127 0.525029 -0.332196
O64   O     O_3   0.902780 0.128396 0.624875 -0.547998
O65   O     O_2   0.881611 0.871041 0.293833 -0.269740
O66   O     O_2   0.835669 0.887035 0.169239 -0.275268
O67   O     O_R   0.335430 0.719350 0.146160 -0.579766
O68   O     O_3   0.748784 0.845057 0.262894 -0.491580
O69   O     O_2   0.904801 0.872395 0.633703 -0.287509
O70   O     O_2   0.990780 0.898753 0.539668 -0.339429
O71   O     O_3   0.911687 0.818104 0.512700 -0.609912
O72   O     O_2   0.802361 0.209867 0.208096 -0.283624
O73   O     O_2   0.827161 0.124669 0.155617 -0.278577
O74   O     O_3   0.775573 0.128232 0.287763 -0.492077
O75   O     O_R   0.335430 0.280650 0.853840 -0.577699
O76   O     O_R   0.835430 0.780650 0.646160 -0.585140
S1    S     S_3+6 0.456874 0.648276 0.074795 -0.018325
S2    S     S_3+6 0.334380 0.349946 0.733248 0.068404
S3    S     S_3+6 0.455755 0.353243 0.077234 -0.020054
S4    S     S_3+6 0.331120 0.652594 0.731268 0.064252
S5    S     S_3+6 0.962842 0.153954 0.566009 -0.016824
S6    S     S_3+6 0.834291 0.849795 0.233060 0.058273
S7    S     S_3+6 0.956762 0.852747 0.576834 -0.022224
S8    S     S_3+6 0.829706 0.156283 0.225384 0.060262
Zn1   Zn    Zn3+2 0.249990 0.293780 0.913250 1.049243
Zn2   Zn    Zn3+2 0.336760 0.793760 0.000000 1.001260
Zn3   Zn    Zn3+2 0.836760 0.706240 0.500000 0.996899
Zn4   Zn    Zn3+2 0.836760 0.293760 0.500000 1.014175
Zn5   Zn    Zn3+2 0.163250 0.206230 0.000000 0.965542
Zn6   Zn    Zn3+2 0.163250 0.793770 0.000000 0.965617
Zn7   Zn    Zn3+2 0.663250 0.706230 0.500000 0.968415
Zn8   Zn    Zn3+2 0.663250 0.293770 0.500000 0.967908
Zn9   Zn    Zn3+2 0.249990 0.706220 0.086750 1.034182
Zn10  Zn    Zn3+2 0.249990 0.706220 0.913250 1.090532
Zn11  Zn    Zn3+2 0.249990 0.293780 0.086750 1.026748
Zn12  Zn    Zn3+2 0.749990 0.793780 0.413250 1.049025
Zn13  Zn    Zn3+2 0.749990 0.206220 0.586750 1.029729
Zn14  Zn    Zn3+2 0.749990 0.206220 0.413250 1.082147
Zn15  Zn    Zn3+2 0.749990 0.793780 0.586750 1.024497
Zn16  Zn    Zn3+2 0.336760 0.206240 0.000000 0.999341

loop_
_geom_bond_atom_site_label_1
_geom_bond_atom_site_label_2
_ccdc_geom_bond_type
C154  S3    S    
C59   H28   S    
O2    Zn14  S    
O4    Zn12  S    
O74   S8    S    
C74   C83   A    
C173  O22   A    
C67   H54   S    
O12   Zn9   S    
C7    H66   S    
C55   O41   A    
C155  S4    S    
C79   C99   A    
C97   H100  S    
C68   H92   S    
O15   Zn2   S    
C58   H37   S    
C169  O26   A    
C148  O19   A    
O17   Zn16  S    
C58   C60   S    
C29   C33   A    
H4    O64   S    
O51   S1    S    
C48   O31   A    
C2    C90   A    
C62   C64   S    
C152  S1    S    
C134  C143  A    
O12   Zn2   S    
O59   S4    D    
O44   Zn5   S    
C88   H81   S    
C44   H23   S    
C163  H12   S    
C93   C120  S    
C4    C12   A    
C110  C145  A    
C4    H63   S    
C128  C154  A    
C1    O45   A    
C119  C128  A    
O67   Zn9   S    
C167  C180  A    
C21   C22   A    
O23   Zn12  S    
O28   Zn8   S    
C130  C134  A    
C107  C124  A    
C35   H89   S    
C16   H22   S    
C158  C167  A    
C45   C47   A    
C47   H25   S    
C27   C31   A    
C124  C137  S    
C28   C32   A    
O8    Zn11  S    
C60   H39   S    
C123  C126  S    
C129  C142  A    
C20   C28   A    
C33   C50   S    
O1    Zn5   S    
O66   S6    D    
O23   Zn3   S    
C82   C91   A    
C34   C39   A    
C149  C175  S    
C142  C151  A    
C19   C23   A    
C43   C44   A    
O34   Zn4   S    
C37   C38   A    
O9    Zn12  S    
C115  C118  S    
C57   C97   A    
C172  O24   A    
C61   H50   S    
C12   C139  A    
C174  O30   A    
O40   Zn15  S    
C46   C84   A    
C124  C133  A    
O42   Zn13  S    
C30   C49   S    
O72   S8    D    
C31   C48   S    
H104  O58   S    
C82   H75   S    
C114  C150  A    
C53   C71   S    
O10   Zn13  S    
C104  C117  S    
O53   S2    D    
O70   S7    D    
C164  H13   S    
C69   H56   S    
C54   O43   A    
H102  O51   S    
C126  O76   A    
C9    H15   S    
C42   H48   S    
C33   C38   A    
C56   C59   S    
C83   H76   S    
C133  C160  A    
O23   Zn15  S    
O63   S5    D    
C93   O56   A    
O49   S1    D    
C80   C88   A    
O55   S3    D    
C109  C144  A    
C160  C168  A    
C40   H46   S    
O64   S5    S    
C68   C98   A    
C3    C11   A    
C46   C96   A    
C6    C163  A    
C94   C102  A    
C20   C25   A    
O1    Zn16  S    
C41   C45   A    
C31   C36   A    
C130  C156  A    
C77   H70   S    
H7    O74   S    
C76   C85   A    
C75   H68   S    
O24   Zn6   S    
C78   C87   A    
C45   H26   S    
C174  O9    A    
C123  C132  A    
C19   H30   S    
C115  O75   A    
O58   S3    S    
C166  H2    S    
C121  C130  A    
C98   H101  S    
O27   Zn7   S    
C53   O38   A    
C144  C171  S    
O50   S1    D    
C79   C170  A    
O75   Zn1   S    
C11   C138  A    
C169  O5    A    
O60   S4    D    
C75   C84   A    
C151  C177  S    
C57   H91   S    
O56   Zn10  S    
C65   C70   S    
C2    H86   S    
C137  O20   A    
C61   C63   S    
C67   C72   S    
C57   C85   A    
C81   C114  A    
C62   C73   S    
C152  C161  A    
C9    C179  A    
C145  C172  S    
C46   H90   S    
C170  H85   S    
C176  O11   A    
C15   H21   S    
C95   C103  A    
C141  C150  A    
O19   Zn4   S    
C30   C34   A    
C8    C134  A    
C120  C129  A    
C17   C27   A    
C63   H43   S    
C84   H77   S    
C25   H35   S    
O47   Zn7   S    
C126  O21   A    
C111  C146  A    
O34   Zn14  S    
C49   O46   A    
O31   Zn16  S    
O37   Zn10  S    
C66   H51   S    
C159  O18   A    
C10   H16   S    
C99   C117  A    
C132  C136  A    
C32   C37   A    
C69   C73   S    
C9    C135  A    
O21   Zn3   S    
C173  O8    A    
C14   C140  A    
C26   C30   A    
O6    Zn9   S    
C92   H96   S    
C127  C140  A    
C122  C131  A    
C62   H61   S    
C105  C109  A    
C18   C22   A    
C107  C111  A    
C161  H10   S    
C175  O29   A    
O12   Zn10  S    
C159  O4    A    
C21   H32   S    
C65   H49   S    
C69   H55   S    
C11   H18   S    
C137  O2    A    
C138  C146  A    
C167  H8    S    
O61   S4    S    
C50   O47   A    
C105  C122  A    
C63   H72   S    
C34   C36   A    
C62   H42   S    
C37   C41   A    
C56   H36   S    
H6    O71   S    
C55   C73   S    
C40   C44   A    
C80   C113  A    
C118  C127  A    
C22   H33   S    
C43   H24   S    
C175  O10   A    
O57   S3    D    
C117  C125  A    
C140  C149  A    
C116  C151  A    
C96   C105  A    
C58   H17   S    
C78   H71   S    
O22   Zn5   S    
O13   Zn15  S    
O12   Zn6   S    
C18   C26   A    
H3    O61   S    
C26   C27   A    
O18   Zn3   S    
C65   H53   S    
C28   C29   A    
C60   H40   S    
C58   C71   S    
C56   H1    S    
C180  H60   S    
O52   S2    D    
C64   H44   S    
C1    C119  S    
C131  C157  A    
C179  H59   S    
C15   C141  A    
O45   Zn11  S    
O33   Zn3   S    
C122  C159  S    
C8    H14   S    
C165  H94   S    
C128  C141  A    
O14   Zn16  S    
O65   S6    D    
O20   Zn4   S    
C81   C89   A    
O16   Zn2   S    
C133  C138  A    
C79   H93   S    
C95   H98   S    
C177  O27   A    
C24   H88   S    
C177  O13   A    
C101  C114  A    
C76   H69   S    
C162  H11   S    
O46   Zn6   S    
C147  C174  S    
C55   O42   A    
C80   H73   S    
C17   H27   S    
C18   H29   S    
C129  C155  A    
C35   C83   A    
C63   C73   S    
C14   H20   S    
C171  O25   A    
C132  C158  A    
C98   C107  A    
C3    H62   S    
C32   C51   S    
O43   Zn12  S    
C66   C71   S    
O71   S7    S    
C121  C148  S    
C5    C14   A    
C49   O32   A    
C92   C101  A    
O29   Zn8   S    
C97   C106  A    
C61   C72   S    
C7    C16   A    
O41   Zn14  S    
C13   C92   A    
C100  C118  A    
O3    Zn13  S    
C19   C29   A    
C178  H58   S    
C102  C120  A    
C96   H99   S    
O7    Zn10  S    
C59   H38   S    
C87   H80   S    
C112  C147  A    
C35   C95   A    
C53   O37   A    
C7    C164  A    
C153  C162  A    
C10   C180  A    
C5    C162  A    
C82   C116  A    
O1    Zn1   S    
C156  C165  A    
O30   Zn7   S    
C67   H57   S    
O54   S2    S    
C5    H64   S    
O39   Zn1   S    
C61   H41   S    
C39   H45   S    
C168  H9    S    
C74   C108  A    
C171  O6    A    
C51   O48   A    
C76   C110  A    
O26   Zn5   S    
C78   C112  A    
C89   H82   S    
C160  S8    S    
O62   S5    D    
H5    O68   S    
C108  C143  A    
C91   H84   S    
C23   H34   S    
C17   C21   A    
C150  C176  S    
C41   H47   S    
C156  S5    S    
C68   C86   A    
C6    H65   S    
O32   Zn2   S    
C158  S7    S    
C127  C153  A    
C125  C139  A    
O73   S8    D    
C139  C147  A    
O48   Zn8   S    
C52   O39   A    
C115  O14   A    
C10   C136  A    
C38   C42   A    
C131  C135  A    
O69   S7    D    
C146  C173  S    
C66   H52   S    
C20   H31   S    
C6    C15   A    
C148  O3    A    
C77   C111  A    
C106  C123  A    
O23   Zn7   S    
C93   O16   A    
C2    C88   A    
C90   H95   S    
C85   H78   S    
O34   Zn8   S    
C136  C145  A    
C23   C25   A    
O11   Zn14  S    
C4    C161  A    
C165  C178  A    
C1    O17   A    
C13   H87   S    
C90   C100  A    
C3    C168  A    
C75   C109  A    
C64   H83   S    
C101  C119  A    
C113  C149  A    
C154  C163  A    
C36   C40   A    
C102  C116  A    
C143  C169  S    
C50   O33   A    
O25   Zn6   S    
C39   C43   A    
C87   C170  A    
O68   S6    S    
C67   C69   S    
C16   C142  A    
C125  C152  A    
C24   C94   A    
C104  O67   A    
C60   C70   S    
O38   Zn9   S    
C54   C72   S    
C103  C108  A    
O35   Zn4   S    
C135  C144  A    
C77   C86   A    
C56   C70   S    
C81   H74   S    
C54   O40   A    
C24   C91   A    
C106  C110  A    
C13   C89   A    
H103  O54   S    
C100  C113  A    
C157  C166  A    
C153  S2    S    
O34   Zn13  S    
C172  O7    A    
C155  C164  A    
O36   Zn11  S    
O5    Zn1   S    
C94   H97   S    
C74   H67   S    
C157  S6    S    
O76   Zn15  S    
C48   O44   A    
C104  O15   A    
C99   C112  A    
O1    Zn11  S    
C12   H19   S    
C42   C47   A    
C64   C72   S    
C86   H79   S    
C52   C70   S    
C8    C178  A    
C51   O35   A    
C65   C66   S    
C52   O36   A    
C176  O28   A    
C166  C179  A    
C59   C71   S    
C103  C121  A    
