data_mof_unit_66993.cif
_audit_creation_date              2013-03-05T15:58:13-0500
_audit_creation_method            fapswitch 2.2
_symmetry_space_group_name_H-M    P1
_symmetry_Int_Tables_number       1
_space_group_crystal_system       triclinic
_cell_length_a                    8.482331
_cell_length_b                    13.069561
_cell_length_c                    14.573594
_cell_angle_alpha                 94.863437
_cell_angle_beta                  92.363733
_cell_angle_gamma                 96.88495
_cell_volume                      1596.04860038

loop_
_atom_site_label
_atom_site_type_symbol
_atom_site_description
_atom_site_fract_x
_atom_site_fract_y
_atom_site_fract_z
_atom_type_partial_charge
P1    P     P_3+3 0.054400 0.427280 0.286870 0.483204
O1    O     O_2   0.887370 0.460630 0.272300 -0.276482
O2    O     O_3   0.129410 0.451380 0.388510 -0.456471
O3    O     O_3   0.670210 0.653170 0.329170 -0.413517
O4    O     O_2   0.772658 0.590524 0.164500 -0.275030
O5    O     O_3   0.028045 0.291805 0.273167 -0.578174
O6    O     O_3   0.674363 0.772575 0.175632 -0.490739
H1    H     H_    0.720252 0.853194 0.304337 0.133965
C1    C     C_3   0.611273 0.944764 0.209547 -0.956105
H2    H     H_    0.582612 0.000411 0.266284 0.237541
H3    H     H_    0.722930 0.976234 0.179974 0.266589
P2    P     P_3+3 0.668300 0.742890 0.573060 0.398367
P3    P     P_3+3 0.132177 0.840308 0.388219 0.457557
O7    O     O_2   0.845380 0.761330 0.544970 -0.343099
O8    O     O_3   0.088930 0.704860 0.376040 -0.365408
O9    O     O_2   0.028416 0.876579 0.465755 -0.364460
O10   O     O_3   0.728539 0.761708 0.690703 -0.586510
O11   O     O_3   0.039365 0.886563 0.293246 -0.555383
C2    C     C_3   0.130837 0.882424 0.214906 0.826712
H4    H     H_    0.239386 0.939577 0.226740 -0.064190
C3    C     C_3   0.029094 0.909414 0.133951 -0.882444
H5    H     H_    0.921640 0.852440 0.121032 0.309172
H6    H     H_    0.990633 0.986705 0.148692 0.208668
C4    C     C_3   0.195399 0.753536 0.648613 0.417080
H7    H     H_    0.316413 0.745655 0.626397 0.012965
H8    H     H_    0.109424 0.720206 0.591869 0.166782
C5    C     C_3   0.171686 0.866700 0.665887 -0.836278
H9    H     H_    0.230240 0.899940 0.732226 0.287073
H10   H     H_    0.220058 0.911880 0.610193 0.234042
H11   H     H_    0.043716 0.872932 0.671324 0.273399
Ba1   Ba    Ba6+2 0.855630 0.555280 0.454520 1.560477
C6    C     C_3   0.979234 0.248622 0.353711 0.484995
H12   H     H_    0.860495 0.269997 0.369978 0.098561
H13   H     H_    0.064494 0.273809 0.413264 0.130549
C7    C     C_3   0.970666 0.131502 0.335534 -0.918229
H14   H     H_    0.901528 0.104893 0.269916 0.272182
H15   H     H_    0.913115 0.091008 0.390990 0.238269
H16   H     H_    0.092402 0.109329 0.331071 0.243856
C8    C     C_3   0.609773 0.728404 0.748833 0.709192
H17   H     H_    0.523032 0.665908 0.714326 0.051635
C9    C     C_3   0.527581 0.819492 0.781802 -0.856310
H18   H     H_    0.612124 0.876287 0.825892 0.267561
H19   H     H_    0.424835 0.794099 0.822604 0.285250
H20   H     H_    0.488446 0.855363 0.720692 0.179403
P4    P     P_3+3 0.135310 0.572810 0.713130 0.474554
O12   O     O_2   0.302330 0.539400 0.727760 -0.382233
O13   O     O_3   0.060300 0.548700 0.611500 -0.449663
O14   O     O_3   0.519500 0.346920 0.670840 -0.404324
O15   O     O_3   0.174284 0.707681 0.731618 -0.529092
P5    P     P_3+3 0.055296 0.158276 0.612781 0.431887
O16   O     O_3   0.614310 0.373510 0.452640 -0.468770
O17   O     O_3   0.100780 0.295230 0.623970 -0.410038
O18   O     O_2   0.175551 0.115932 0.547267 -0.369102
O19   O     O_3   0.109152 0.112577 0.717478 -0.513845
Ba2   Ba    Ba6+2 0.334200 0.444810 0.545490 1.505666
P6    P     P_3+3 0.638976 0.646296 0.207809 0.557947
C10   C     C_3   0.628388 0.841157 0.246533 0.498087
H21   H     H_    0.511813 0.812618 0.273029 0.035818
H22   H     H_    0.514602 0.935651 0.154752 0.292306
O20   O     O_3   0.575400 0.626570 0.547370 -0.482150
C11   C     C_3   0.475646 0.255069 0.239783 0.745218
H23   H     H_    0.386828 0.306822 0.259459 -0.070141
C12   C     C_3   0.419508 0.191072 0.148244 -0.425245
H24   H     H_    0.450045 0.238016 0.089662 0.218523
H25   H     H_    0.483236 0.121589 0.139783 0.247387
P7    P     P_3+3 0.521392 0.239645 0.423658 0.400765
O21   O     O_2   0.344320 0.238700 0.455090 -0.375551
O22   O     O_3   0.500265 0.186558 0.307007 -0.633818
H26   H     H_    0.095004 0.905355 0.070062 0.251010
C13   C     C_3   0.000878 0.136053 0.784506 0.381261
H27   H     H_    0.061678 0.197004 0.836095 0.101113
H28   H     H_    0.891252 0.164724 0.757327 0.022141
C14   C     C_3   0.952045 0.039024 0.832505 -0.927890
H29   H     H_    0.057702 0.011013 0.864078 0.311461
H30   H     H_    0.869876 0.055620 0.887470 0.234631
H31   H     H_    0.891770 0.976870 0.781961 0.260752
P8    P     P_3+3 0.540878 0.368787 0.792577 0.449363
C15   C     C_3   0.511858 0.173196 0.756649 0.332032
H32   H     H_    0.601314 0.185467 0.703685 0.004939
O23   O     O_2   0.384967 0.402705 0.829461 -0.371311
O24   O     O_3   0.544719 0.246905 0.832673 -0.537705
H33   H     H_    0.391364 0.177261 0.725777 0.165159
H34   H     H_    0.644834 0.047831 0.782774 0.088238
C16   C     C_3   0.520664 0.065048 0.783556 -0.113973
H35   H     H_    0.450490 0.013197 0.729134 0.072197
C17   C     C_R   0.988358 0.435793 0.047338 0.275712
C18   C     C_R   0.174799 0.492029 0.192318 0.211533
C19   C     C_R   0.320194 0.551839 0.223349 -0.088012
C20   C     C_R   0.436342 0.584285 0.162684 0.256082
C21   C     C_R   0.395236 0.578646 0.069216 -0.174703
C22   C     C_R   0.241273 0.539527 0.034335 0.064453
C23   C     C_R   0.130889 0.489121 0.093169 -0.097808
C24   C     C_R   0.046070 0.514812 0.901748 -0.081271
C25   C     C_R   0.934869 0.469108 0.961741 0.067897
C26   C     C_R   0.997076 0.524219 0.806733 0.244273
C27   C     C_R   0.831870 0.498496 0.781072 -0.191857
C28   C     C_R   0.725595 0.451344 0.840325 0.274759
C29   C     C_R   0.773988 0.446427 0.931735 -0.199478
C30   C     C_R   0.200209 0.548459 0.940019 -0.053568
H36   H     H_    0.482025 0.611459 0.025048 0.210336
H37   H     H_    0.686407 0.417456 0.977926 0.179136
H38   H     H_    0.287135 0.586882 0.898256 0.191103
C31   C     C_R   0.760551 0.170227 0.527116 -0.527894
C32   C     C_R   0.427970 0.819458 0.472060 -0.482736
C33   C     C_R   0.400384 0.993275 0.434916 -0.207977
C34   C     C_R   0.340229 0.888304 0.430444 0.159744
C35   C     C_R   0.574904 0.850769 0.519531 0.248560
C36   C     C_R   0.637585 0.959260 0.525242 -0.055606
C37   C     C_R   0.547946 0.031157 0.481968 -0.039758
C38   C     C_R   0.610292 0.138794 0.486262 0.316350
C39   C     C_R   0.849772 0.103741 0.568861 0.229366
C40   C     C_R   0.786999 0.998748 0.570308 -0.220301
H39   H     H_    0.329319 0.044741 0.402683 0.182240
H40   H     H_    0.856535 0.948525 0.604452 0.185434
H41   H     H_    0.816498 0.246318 0.518832 0.132064
H42   H     H_    0.376075 0.739937 0.471870 0.143920
N1    N     N_R   0.683768 0.691306 0.829415 0.215820
O25   O     O_R   0.829114 0.727819 0.857333 -0.356838
O26   O     O_R   0.594217 0.640934 0.884723 -0.480735
N2    N     N_R   0.625411 0.312221 0.220805 0.200790
O27   O     O_R   0.620838 0.390939 0.172259 -0.492553
O28   O     O_R   0.741545 0.257426 0.208843 -0.426406
C41   C     C_3   0.242491 0.158899 0.139303 -0.407091
C42   C     C_3   0.195570 0.109088 0.042258 -0.771775
H43   H     H_    0.065062 0.089298 0.033510 0.239260
H44   H     H_    0.234266 0.161924 0.989446 0.276576
H45   H     H_    0.253860 0.038256 0.030961 0.316759
H46   H     H_    0.208565 0.104983 0.191395 0.228813
H47   H     H_    0.183035 0.228298 0.151760 0.232194
N3    N     N_R   0.175255 0.779779 0.190554 0.201527
O29   O     O_R   0.067280 0.700172 0.188607 -0.341253
O30   O     O_R   0.295533 0.773408 0.138996 -0.480362
N4    N     N_R   0.459045 0.049235 0.873925 0.289865
O31   O     O_R   0.341210 0.977753 0.881276 -0.434087
O32   O     O_R   0.542047 0.089413 0.948005 -0.402468
C43   C     C_3   0.360783 0.579551 0.322523 -0.372748
C44   C     C_3   0.455838 0.498076 0.356298 -0.554756
H48   H     H_    0.382401 0.425571 0.365708 0.231059
H49   H     H_    0.548379 0.478410 0.309857 0.241454
H50   H     H_    0.516893 0.527555 0.420630 0.306840
H51   H     H_    0.415547 0.660107 0.333184 0.151236
H52   H     H_    0.264343 0.592991 0.365240 0.243307
C45   C     C_3   0.772303 0.503629 0.684171 -0.253711
C46   C     C_3   0.819027 0.407354 0.631186 -0.595508
H53   H     H_    0.938070 0.401756 0.653715 0.232660
H54   H     H_    0.767324 0.332191 0.651319 0.182312
H55   H     H_    0.819402 0.412127 0.557442 0.261004
H56   H     H_    0.644244 0.510475 0.677438 0.216613
H57   H     H_    0.820137 0.577077 0.658184 0.223979
C47   C     C_3   0.971682 0.319487 0.052295 -0.503517
C48   C     C_3   0.828529 0.250442 0.004469 -0.651416
H58   H     H_    0.715522 0.271433 0.031016 0.296260
H59   H     H_    0.829113 0.252004 0.928531 0.222986
H60   H     H_    0.835138 0.169555 0.020259 0.250708
H61   H     H_    0.078751 0.292628 0.022072 0.185070
H62   H     H_    0.971786 0.303849 0.123530 0.292314

loop_
_geom_bond_atom_site_label_1
_geom_bond_atom_site_label_2
_geom_bond_distance
_ccdc_geom_bond_type
P1    C18   1.940232 S    
O14   Ba2   2.843599 S    
O5    C6    1.401486 S    
C18   C19   1.414022 A    
C12   H25   1.111881 S    
C24   C25   1.425639 A    
C5    H10   1.107462 S    
C9    H19   1.109119 S    
C9    H18   1.109785 S    
O4    P6    1.547482 D    
P7    O22   1.774444 S    
C26   C27   1.427979 A    
C15   O24   1.400880 S    
C4    C5    1.517773 S    
O7    Ba1   2.908779 S    
C40   H40   1.072547 S    
C28   C29   1.386745 A    
C41   H46   1.102638 S    
C41   C42   1.522427 S    
C8    C9    1.504581 S    
P4    O12   1.543503 D    
C44   H49   1.096816 S    
P5    O19   1.748130 S    
P3    O11   1.751308 S    
C31   C38   1.384958 A    
C42   H44   1.110661 S    
C2    C3    1.523392 S    
C4    H8    1.103840 S    
O11   C2    1.407518 S    
N1    O26   1.296407 A    
O10   C8    1.396355 S    
C25   C29   1.404689 A    
C45   C46   1.522053 S    
P1    Ba1   3.454536 S    
C36   C37   1.446042 A    
C31   C39   1.381029 A    
P1    O1    1.543159 D    
C14   H29   1.105516 S    
C48   H60   1.108186 S    
C11   C12   1.539126 S    
C43   H52   1.070281 S    
C17   C25   1.429816 A    
C32   H42   1.078720 S    
O2    Ba2   2.828427 S    
C39   C40   1.413359 A    
O12   Ba2   2.870540 S    
P5    O17   1.777363 S    
C35   C36   1.447662 A    
P8    C28   1.865702 S    
C13   H27   1.110751 S    
P8    O24   1.746044 S    
C1    H2    1.108485 S    
C24   C30   1.405102 A    
O16   Ba2   2.987798 S    
O17   Ba2   2.947549 S    
C2    N3    1.455695 S    
P7    O21   1.587202 D    
C24   C26   1.448759 A    
Ba1   O13   2.827855 S    
Ba2   O20   2.940889 S    
O3    P6    1.770641 S    
C11   N2    1.443871 S    
C14   H30   1.107848 S    
O6    P6    1.748688 S    
C46   H55   1.081907 S    
C21   H36   1.072576 S    
N2    O28   1.294528 A    
P4    O13   1.578886 S    
C3    H6    1.104993 S    
C45   H56   1.101615 S    
C44   H50   1.070744 S    
C16   N4    1.458566 S    
P5    O18   1.544166 D    
C13   H28   1.113698 S    
P1    O5    1.751098 S    
C6    C7    1.523655 S    
C7    H16   1.108410 S    
C16   H35   1.102637 S    
C19   C43   1.476134 S    
C46   H54   1.095268 S    
C8    H17   1.103254 S    
C15   H32   1.112383 S    
C46   H53   1.061701 S    
C8    N1    1.454956 S    
P7    C38   1.877186 S    
C36   C40   1.421616 A    
C3    H26   1.106345 S    
O1    Ba1   2.869975 S    
P1    O2    1.579009 S    
O16   P7    1.837714 S    
C6    H13   1.107856 S    
O14   P8    1.771218 S    
P2    O10   1.757029 S    
C31   H41   1.068043 S    
C43   H51   1.094279 S    
H1    C10   1.111571 S    
C15   H33   1.108612 S    
Ba2   O21   2.909027 S    
H34   C16   1.103387 S    
O19   C13   1.408047 S    
P4    O15   1.749688 S    
C48   H58   1.104270 S    
C27   C28   1.399758 A    
C13   C14   1.522299 S    
C4    H7    1.102824 S    
O2    Ba1   2.980149 S    
C1    H3    1.105569 S    
C42   H45   1.104164 S    
Ba1   Ba2   4.648293 S    
P6    C20   1.877769 S    
P2    O7    1.569232 D    
C47   H61   1.106923 S    
P3    O8    1.756560 S    
P2    Ba1   3.458882 S    
N4    O31   1.298167 A    
C9    H20   1.098573 S    
C21   C22   1.402301 A    
P4    C26   1.933730 S    
C22   C23   1.435257 A    
C18   C23   1.473417 A    
N2    O27   1.300471 A    
O13   Ba2   2.980944 S    
C33   C34   1.400383 A    
P8    O23   1.546996 D    
C33   H39   1.078841 S    
C4    O15   1.403433 S    
C33   C37   1.416000 A    
C7    H15   1.102138 S    
Ba1   O16   2.941592 S    
P3    C34   1.861749 S    
P2    C35   1.904577 S    
C12   C41   1.507166 S    
O8    Ba1   2.946930 S    
C32   C34   1.395421 A    
C29   H37   1.079547 S    
C44   H48   1.091955 S    
N3    O30   1.298231 A    
C22   C30   1.421881 A    
C6    H12   1.106612 S    
C2    H4    1.111594 S    
C17   C47   1.517811 S    
N3    O29   1.298661 A    
C17   C23   1.430383 A    
N1    O25   1.303029 A    
C27   C45   1.489772 S    
C11   O22   1.407780 S    
C10   H21   1.110633 S    
P5    C39   1.868041 S    
C14   H31   1.109858 S    
C1    C10   1.519744 S    
C48   H59   1.108812 S    
C11   H23   1.102007 S    
O3    Ba1   2.844190 S    
C12   H24   1.114175 S    
P2    O20   1.632247 S    
C15   C16   1.507998 S    
C45   H57   1.100218 S    
C30   H38   1.079977 S    
C19   C20   1.402630 A    
P4    Ba2   3.455022 S    
P3    O9    1.538651 D    
C37   C38   1.437557 A    
C5    H9    1.098888 S    
N4    O32   1.299820 A    
C47   C48   1.528204 S    
C43   C44   1.512693 S    
C47   H62   1.074938 S    
C7    H14   1.108058 S    
Ba1   O20   2.988616 S    
C1    H22   1.109379 S    
C20   C21   1.385686 A    
C3    H5    1.104547 S    
O6    C10   1.408240 S    
C32   C35   1.399305 A    
C41   H47   1.095113 S    
C42   H43   1.105780 S    
C5    H11   1.103803 S    
