data_mof_unit_50743.cif
_audit_creation_date              2013-03-05T16:46:57-0500
_audit_creation_method            fapswitch 2.2
_symmetry_space_group_name_H-M    P1
_symmetry_Int_Tables_number       1
_space_group_crystal_system       triclinic
_cell_length_a                    15.066222
_cell_length_b                    8.935899
_cell_length_c                    8.095055
_cell_angle_alpha                 89.959583
_cell_angle_beta                  89.999914
_cell_angle_gamma                 89.999917
_cell_volume                      1089.83891096

loop_
_atom_site_label
_atom_site_type_symbol
_atom_site_description
_atom_site_fract_x
_atom_site_fract_y
_atom_site_fract_z
_atom_type_partial_charge
O1    O     O_R   0.500000 0.285350 0.636850 -0.624431
O2    O     O_R   0.500000 0.714650 0.363150 -0.624431
O3    O     O_R   0.500000 0.714650 0.636850 -0.606492
O4    O     O_R   0.500000 0.285350 0.363150 -0.606492
C1    C     C_R   0.500000 0.217950 0.500036 0.923710
C2    C     C_R   0.500000 0.782050 0.499964 0.923710
O5    O     O_R   0.367850 0.500000 0.636890 -0.567167
O6    O     O_R   0.632150 0.500000 0.363110 -0.567167
O7    O     O_R   0.632150 0.500000 0.636890 -0.567166
O8    O     O_R   0.367850 0.500000 0.363110 -0.567167
C3    C     C_R   0.326185 0.499999 0.500000 0.970866
C4    C     C_R   0.673815 0.500000 0.500000 0.970866
Zn1   Zn    Zn3+2 0.500000 0.500000 0.682780 1.117628
Zn2   Zn    Zn3+2 0.500000 0.500000 0.317220 1.117628
N1    N     N_1   0.500000 0.500000 0.073640 0.027043
N2    N     N_1   0.500000 0.500000 0.926360 0.027043
C5    C     C_R   0.815005 0.557033 0.636918 0.658618
C6    C     C_R   0.184995 0.442968 0.363082 0.658617
C7    C     C_R   0.815005 0.442968 0.363082 0.658618
C8    C     C_R   0.184995 0.557034 0.636918 0.658618
C9    C     C_R   0.769493 0.500000 0.500000 -0.408013
C10   C     C_R   0.230506 0.500000 0.500000 -0.408013
C11   C     C_R   0.907242 0.443847 0.361104 -0.193906
C12   C     C_R   0.092758 0.556155 0.638895 -0.193906
C13   C     C_R   0.907241 0.556155 0.638895 -0.193906
C14   C     C_R   0.092759 0.443847 0.361104 -0.193906
C15   C     C_R   0.953602 0.500001 0.500000 -0.174753
C16   C     C_R   0.046398 0.500001 0.500000 -0.174753
C17   C     C_R   0.954026 0.389464 0.223513 0.638264
C18   C     C_R   0.045974 0.610540 0.776486 0.638264
C19   C     C_R   0.954026 0.610539 0.776486 0.638265
C20   C     C_R   0.045974 0.389464 0.223513 0.638264
C21   C     C_1   0.500000 0.065176 0.500052 -0.121048
C22   C     C_1   0.500000 0.934824 0.499948 -0.121049
F1    F     F_    0.911358 0.336474 0.087683 -0.536621
F2    F     F_    0.088641 0.663531 0.912315 -0.536620
F3    F     F_    0.911357 0.663531 0.912315 -0.536620
F4    F     F_    0.088642 0.336474 0.087683 -0.536620
F5    F     F_    0.769158 0.616291 0.766174 -0.551445
F6    F     F_    0.230842 0.383710 0.233825 -0.551445
F7    F     F_    0.769159 0.383711 0.233825 -0.551444
F8    F     F_    0.230841 0.616290 0.766175 -0.551444

loop_
_geom_bond_atom_site_label_1
_geom_bond_atom_site_label_2
_geom_bond_distance
_ccdc_geom_bond_type
O3    Zn1   1.953536 S    
C13   C19   1.405107 A    
C8    F8    1.361290 S    
C14   C20   1.405107 A    
C11   C15   1.415859 A    
C13   C15   1.415859 A    
C17   F1    1.359120 S    
C3    C10   1.441515 S    
C14   C16   1.415860 A    
C6    C14   1.389768 A    
C18   F2    1.359120 S    
O6    C4    1.273580 A    
O3    C2    1.260825 A    
C2    C22   1.365174 S    
C21   C22   1.164818 T    
C5    C13   1.389770 A    
C6    C10   1.399699 A    
O5    C3    1.273580 A    
O2    C2    1.261060 A    
O1    C1    1.261060 A    
C11   C17   1.405107 A    
C7    C9    1.399700 A    
C8    C10   1.399700 A    
C17   C20   1.385309 A    
C20   F4    1.359120 S    
O4    Zn2   1.953537 S    
C18   C19   1.385309 A    
O2    Zn2   1.954051 S    
O7    C4    1.273580 A    
C12   C18   1.405107 A    
O1    Zn1   1.954052 S    
O8    C3    1.273579 A    
N1    N2    1.192239 T    
C12   C16   1.415859 A    
O5    Zn1   2.025361 S    
C5    F5    1.361290 S    
Zn1   N2    1.971793 S    
O8    Zn2   2.025360 S    
O7    Zn1   2.025358 S    
C7    C11   1.389768 A    
C6    F6    1.361291 S    
O6    Zn2   2.025359 S    
Zn2   N1    1.971793 S    
C4    C9    1.441515 S    
C8    C12   1.389768 A    
C5    C9    1.399698 A    
C7    F7    1.361290 S    
C19   F3    1.359121 S    
O4    C1    1.260825 A    
C15   C16   1.398088 A    
C1    C21   1.365174 S    
