data_mof_unit_25535.cif
_audit_creation_date              2013-03-05T16:00:54-0500
_audit_creation_method            fapswitch 2.2
_symmetry_space_group_name_H-M    P1
_symmetry_Int_Tables_number       1
_space_group_crystal_system       triclinic
_cell_length_a                    20.485232
_cell_length_b                    21.937486
_cell_length_c                    14.235654
_cell_angle_alpha                 90.004272
_cell_angle_beta                  89.999805
_cell_angle_gamma                 89.999263
_cell_volume                      6397.42445374

loop_
_atom_site_label
_atom_site_type_symbol
_atom_site_description
_atom_site_fract_x
_atom_site_fract_y
_atom_site_fract_z
_atom_type_partial_charge
O1    O     O_R   0.066090 0.433930 0.580280 -0.631348
O2    O     O_R   0.933910 0.566070 0.419720 -0.631843
O3    O     O_R   0.933910 0.566070 0.580280 -0.631221
O4    O     O_R   0.066090 0.433930 0.419720 -0.631743
O5    O     O_R   0.933910 0.433930 0.419720 -0.631337
O6    O     O_R   0.066090 0.566070 0.580280 -0.631613
O7    O     O_R   0.066090 0.566070 0.419720 -0.631605
O8    O     O_R   0.933910 0.433930 0.580280 -0.631805
O9    O     O_R   0.566090 0.933930 0.580280 -0.631876
O10   O     O_R   0.433910 0.066070 0.419720 -0.631383
O11   O     O_R   0.433910 0.066070 0.580280 -0.631777
O12   O     O_R   0.566090 0.933930 0.419720 -0.631254
O13   O     O_R   0.433910 0.933930 0.419720 -0.631585
O14   O     O_R   0.566090 0.066070 0.580280 -0.631303
O15   O     O_R   0.566090 0.066070 0.419720 -0.631776
O16   O     O_R   0.433910 0.933930 0.580280 -0.631570
C1    C     C_R   0.086811 0.413613 0.499993 0.885897
C2    C     C_R   0.913191 0.586387 0.499996 0.885905
C3    C     C_R   0.913189 0.413613 0.500003 0.885860
C4    C     C_R   0.086814 0.586384 0.500004 0.885912
C5    C     C_R   0.586811 0.913614 0.500004 0.885882
C6    C     C_R   0.413187 0.086385 0.500007 0.885873
C7    C     C_R   0.413187 0.913614 0.499995 0.885935
C8    C     C_R   0.586809 0.086388 0.499996 0.885883
Zn1   Zn    Zn3+2 1.000000 0.500000 0.607200 0.936262
Zn2   Zn    Zn3+2 0.000000 0.500000 0.392800 0.936015
Zn3   Zn    Zn3+2 0.500000 0.000000 0.607200 0.936017
Zn4   Zn    Zn3+2 0.500000 0.000000 0.392800 0.936257
C9    C     C_R   0.156599 0.658362 0.585559 -0.259316
C10   C     C_R   0.844523 0.340674 0.585467 -0.259280
C11   C     C_R   0.844595 0.659387 0.414531 -0.259329
C12   C     C_R   0.155588 0.340762 0.414506 -0.259260
C13   C     C_R   0.655467 0.159334 0.414533 -0.259284
C14   C     C_R   0.343409 0.841630 0.414440 -0.259318
C15   C     C_R   0.344402 0.159229 0.585494 -0.259258
C16   C     C_R   0.655414 0.840621 0.585469 -0.259327
C17   C     C_R   0.135021 0.634233 0.500021 -0.069367
C18   C     C_R   0.864989 0.365760 0.500029 -0.069322
C19   C     C_R   0.864993 0.634243 0.499968 -0.069299
C20   C     C_R   0.135012 0.365760 0.499964 -0.069312
C21   C     C_R   0.635006 0.134245 0.499970 -0.069311
C22   C     C_R   0.364982 0.865764 0.499978 -0.069355
C23   C     C_R   0.364982 0.134234 0.500035 -0.069321
C24   C     C_R   0.635013 0.865762 0.500031 -0.069308
C25   C     C_R   0.159366 0.655948 0.414493 -0.259711
C26   C     C_R   0.839535 0.345004 0.414611 -0.259709
C27   C     C_R   0.839473 0.654943 0.585385 -0.259618
C28   C     C_R   0.160355 0.344916 0.585404 -0.259700
C29   C     C_R   0.660463 0.154999 0.585387 -0.259704
C30   C     C_R   0.340631 0.844054 0.585507 -0.259706
C31   C     C_R   0.339639 0.155078 0.414594 -0.259702
C32   C     C_R   0.660532 0.845063 0.414613 -0.259621
C33   C     C_R   0.205316 0.702167 0.413851 0.117278
C34   C     C_R   0.793561 0.298803 0.413968 0.117443
C35   C     C_R   0.793500 0.701145 0.586030 0.117443
C36   C     C_R   0.206322 0.298710 0.586051 0.117427
C37   C     C_R   0.706435 0.201201 0.586031 0.117443
C38   C     C_R   0.294682 0.797834 0.586149 0.117279
C39   C     C_R   0.293671 0.201282 0.413948 0.117427
C40   C     C_R   0.706506 0.798862 0.413968 0.117442
C41   C     C_R   0.226957 0.726690 0.500009 0.062423
C42   C     C_R   0.773044 0.273310 0.500013 0.062426
C43   C     C_R   0.773050 0.726696 0.499985 0.062393
C44   C     C_R   0.226951 0.273305 0.499984 0.062391
C45   C     C_R   0.726950 0.226696 0.499986 0.062427
C46   C     C_R   0.273043 0.773309 0.499991 0.062422
C47   C     C_R   0.273040 0.226687 0.500014 0.062389
C48   C     C_R   0.726957 0.773311 0.500014 0.062392
C49   C     C_R   0.202502 0.704624 0.586182 0.116805
C50   C     C_R   0.798631 0.294400 0.586084 0.116650
C51   C     C_R   0.798702 0.705662 0.413914 0.116668
C52   C     C_R   0.201481 0.294487 0.413891 0.116677
C53   C     C_R   0.701362 0.205607 0.413916 0.116652
C54   C     C_R   0.297501 0.795372 0.413818 0.116807
C55   C     C_R   0.298509 0.205504 0.586108 0.116675
C56   C     C_R   0.701306 0.794346 0.586085 0.116666
C57   C     C_R   0.229812 0.724265 0.328591 -0.217518
C58   C     C_R   0.767931 0.277683 0.328813 -0.217476
C59   C     C_R   0.767806 0.722210 0.671185 -0.217430
C60   C     C_R   0.231833 0.277497 0.671230 -0.217473
C61   C     C_R   0.732066 0.222321 0.671186 -0.217482
C62   C     C_R   0.270184 0.775737 0.671409 -0.217526
C63   C     C_R   0.268158 0.222495 0.328769 -0.217465
C64   C     C_R   0.732201 0.777797 0.328813 -0.217423
C65   C     C_R   0.778081 0.268863 0.671213 -0.217607
C66   C     C_R   0.224178 0.729189 0.671427 -0.217547
C67   C     C_R   0.222146 0.269040 0.328739 -0.217566
C68   C     C_R   0.778217 0.731255 0.328784 -0.217613
C69   C     C_R   0.275823 0.770809 0.328573 -0.217556
C70   C     C_R   0.721913 0.231143 0.328786 -0.217616
C71   C     C_R   0.721791 0.768753 0.671215 -0.217604
C72   C     C_R   0.277844 0.230951 0.671260 -0.217556
H1    H     H_    0.137624 0.641411 0.651719 0.167340
H2    H     H_    0.864389 0.356865 0.651538 0.167555
H3    H     H_    0.864514 0.643241 0.348459 0.167518
H4    H     H_    0.135811 0.357023 0.348416 0.167518
H5    H     H_    0.635597 0.143147 0.348463 0.167540
H6    H     H_    0.362389 0.858577 0.348281 0.167324
H7    H     H_    0.364177 0.142966 0.651584 0.167534
H8    H     H_    0.635497 0.856768 0.651541 0.167535
H9    H     H_    0.142600 0.637073 0.348340 0.166513
H10   H     H_    0.855420 0.364644 0.348552 0.166131
H11   H     H_    0.855304 0.635257 0.651444 0.166094
H12   H     H_    0.144384 0.364486 0.651482 0.166141
H13   H     H_    0.644581 0.135356 0.651447 0.166109
H14   H     H_    0.357392 0.862932 0.651660 0.166490
H15   H     H_    0.355611 0.135508 0.348515 0.166158
H16   H     H_    0.644700 0.864749 0.348553 0.166111
H17   H     H_    0.213385 0.705592 0.262174 0.145757
H18   H     H_    0.783481 0.297113 0.262485 0.145701
H19   H     H_    0.783305 0.702735 0.737513 0.145681
H20   H     H_    0.216195 0.296859 0.737574 0.145675
H21   H     H_    0.716518 0.202889 0.737513 0.145692
H22   H     H_    0.286609 0.794412 0.737826 0.145748
H23   H     H_    0.283797 0.203134 0.262424 0.145683
H24   H     H_    0.716701 0.797271 0.262485 0.145690
H25   H     H_    0.797584 0.284855 0.737561 0.146144
H26   H     H_    0.205557 0.712435 0.737855 0.146021
H27   H     H_    0.202735 0.285105 0.262374 0.146115
H28   H     H_    0.797770 0.715306 0.262437 0.146117
H29   H     H_    0.294445 0.787562 0.262144 0.146012
H30   H     H_    0.702409 0.215151 0.262439 0.146137
H31   H     H_    0.702239 0.784702 0.737562 0.146124
H32   H     H_    0.297255 0.214886 0.737625 0.146122
C73   C     C_R   0.941603 0.499947 0.799141 0.235986
C74   C     C_R   0.058397 0.499898 0.200862 0.235555
C75   C     C_R   0.058397 0.500047 0.799141 0.236286
C76   C     C_R   0.941603 0.500117 0.200861 0.235951
C77   C     C_R   0.441602 0.000029 0.799138 0.235556
C78   C     C_R   0.558397 0.000124 0.200859 0.235980
C79   C     C_R   0.558397 0.999956 0.799140 0.235953
C80   C     C_R   0.441602 0.999882 0.200859 0.236279
N1    N     N_R   1.000000 0.500000 0.750030 -0.109251
N2    N     N_R   0.000000 0.500000 0.249970 -0.109287
N3    N     N_R   0.500000 0.000000 0.750030 -0.109290
N4    N     N_R   0.500000 0.000000 0.249970 -0.109254
C81   C     C_R   0.059114 0.500004 0.899417 0.017710
C82   C     C_R   0.940887 0.500100 0.100585 0.017697
C83   C     C_R   0.940887 0.499995 0.899417 0.017694
C84   C     C_R   0.059114 0.499915 0.100586 0.017699
C85   C     C_R   0.559114 0.000005 0.899415 0.017699
C86   C     C_R   0.440886 0.999891 0.100583 0.017713
C87   C     C_R   0.440885 0.999979 0.899414 0.017701
C88   C     C_R   0.559114 0.000110 0.100583 0.017696
C89   C     C_R   0.000000 0.500002 0.949593 0.024497
C90   C     C_R   0.000000 0.500004 0.050410 0.024588
C91   C     C_R   0.500000 0.999996 0.949590 0.024580
C92   C     C_R   0.500000 0.999998 0.050408 0.024491
C93   C     C_R   0.117840 0.499953 0.951142 -0.202438
C94   C     C_R   0.882161 0.500161 0.048862 -0.202442
C95   C     C_R   0.882161 0.500051 0.951141 -0.202403
C96   C     C_R   0.117839 0.499860 0.048863 -0.202465
C97   C     C_R   0.617841 0.000075 0.951139 -0.202436
C98   C     C_R   0.382158 0.999812 0.048858 -0.202434
C99   C     C_R   0.382158 0.999903 0.951137 -0.202459
C100  C     C_R   0.617841 0.000183 0.048859 -0.202399
H33   H     H_    0.165069 0.499965 0.917345 0.154271
H34   H     H_    0.834932 0.500277 0.082660 0.154295
H35   H     H_    0.834932 0.500032 0.917343 0.154282
H36   H     H_    0.165067 0.499760 0.082663 0.154319
H37   H     H_    0.665071 0.000068 0.917341 0.154288
H38   H     H_    0.334928 0.999691 0.082656 0.154269
H39   H     H_    0.334929 0.999893 0.917338 0.154313
H40   H     H_    0.665070 0.000310 0.082657 0.154280
C101  C     C_3   0.876641 0.499796 0.748870 -0.858174
H41   H     H_    0.879402 0.499984 0.672901 0.293206
H42   H     H_    0.848747 0.458250 0.768269 0.207588
H43   H     H_    0.848390 0.541062 0.768594 0.204720
C102  C     C_3   0.123358 0.499756 0.251139 -0.857697
H44   H     H_    0.120594 0.499985 0.327105 0.293309
H45   H     H_    0.151241 0.458193 0.231793 0.207437
H46   H     H_    0.151616 0.541009 0.231387 0.205178
C103  C     C_3   0.123361 0.500171 0.748873 -0.858700
H47   H     H_    0.151575 0.458876 0.768553 0.204937
H48   H     H_    0.120602 0.500024 0.672903 0.293172
H49   H     H_    0.151291 0.541684 0.768324 0.207101
C104  C     C_3   0.876641 0.500297 0.251135 -0.858146
H50   H     H_    0.848811 0.541901 0.231850 0.207638
H51   H     H_    0.848331 0.459090 0.231307 0.204724
H52   H     H_    0.879402 0.500005 0.327101 0.293233
C105  C     C_3   0.376641 0.000137 0.748862 -0.857678
H53   H     H_    0.379406 0.000026 0.672894 0.293308
H54   H     H_    0.348452 0.958817 0.768493 0.205196
H55   H     H_    0.348688 0.041635 0.768334 0.207403
C106  C     C_3   0.623359 0.000305 0.251132 -0.858163
H56   H     H_    0.620597 0.000006 0.327100 0.293204
H57   H     H_    0.651673 0.959098 0.231294 0.204701
H58   H     H_    0.651188 0.041911 0.231850 0.207614
C107  C     C_3   0.623359 0.999809 0.748866 -0.858128
H59   H     H_    0.620597 0.999984 0.672898 0.293235
H60   H     H_    0.651601 0.041083 0.768574 0.204742
H61   H     H_    0.651261 0.958270 0.768276 0.207603
C108  C     C_3   0.376639 0.999728 0.251129 -0.858680
H62   H     H_    0.379399 0.999986 0.327099 0.293170
H63   H     H_    0.348359 0.040961 0.231333 0.204915
H64   H     H_    0.348774 0.958151 0.231797 0.207124

loop_
_geom_bond_atom_site_label_1
_geom_bond_atom_site_label_2
_geom_bond_distance
_ccdc_geom_bond_type
C75   C103  1.510990 S    
C63   C67   1.389611 A    
C96   H36   1.080526 S    
C60   C72   1.389610 A    
C101  H41   1.082956 S    
O8    Zn1   2.020046 S    
O10   Zn4   2.020018 S    
O2    C2    1.297954 A    
C102  H45   1.110581 S    
C102  H44   1.082913 S    
C73   C101  1.510993 S    
C91   C92   1.435200 A    
C14   C22   1.399377 A    
C88   C92   1.405937 A    
C44   C52   1.410798 A    
C85   C97   1.410486 A    
C89   C90   1.435199 A    
C82   C94   1.410466 A    
C78   C106  1.510997 S    
C45   C53   1.410676 A    
C12   C52   1.383628 A    
C103  H47   1.110504 S    
O10   C6    1.298090 A    
C87   C91   1.405939 A    
C26   H10   1.084413 S    
C74   C84   1.427563 A    
C64   H24   1.083941 S    
C7    C22   1.441214 S    
O12   Zn4   2.020061 S    
C54   C69   1.400021 A    
C81   C89   1.405915 A    
C39   C63   1.400041 A    
C53   C70   1.399932 A    
C79   N3    1.385587 A    
C72   H32   1.083942 S    
C105  H55   1.110613 S    
O6    Zn1   2.020083 S    
C9    C17   1.399378 A    
C73   N1    1.385590 A    
C28   H12   1.084502 S    
C29   C37   1.383579 A    
C78   C88   1.427570 A    
C42   C50   1.410674 A    
O3    C2    1.298112 A    
C20   C28   1.399321 A    
O14   C8    1.298113 A    
C107  H60   1.110504 S    
C76   C82   1.427559 A    
C32   C40   1.383572 A    
C39   C47   1.410760 A    
C77   N3    1.385582 A    
C33   C41   1.410738 A    
C41   C46   1.391848 A    
C38   C46   1.410739 A    
C104  H51   1.110483 S    
C35   C43   1.410741 A    
C36   C44   1.410757 A    
O13   Zn4   2.020085 S    
O14   Zn3   2.020083 S    
C68   H28   1.083925 S    
C15   C23   1.399394 A    
C84   C96   1.410455 A    
C59   C71   1.389614 A    
C26   C34   1.383585 A    
C79   C85   1.427562 A    
C108  H64   1.110607 S    
O16   Zn3   2.020046 S    
C103  H48   1.082960 S    
C27   C35   1.383567 A    
C25   C33   1.383555 A    
C101  H42   1.110616 S    
C71   H31   1.083925 S    
O1    Zn1   2.020018 S    
C8    C21   1.441188 S    
C70   H30   1.083850 S    
C81   C93   1.410479 A    
C15   H7    1.084711 S    
C21   C29   1.399198 A    
C10   C50   1.383633 A    
O13   C7    1.298016 A    
C9    C49   1.383591 A    
C79   C107  1.510994 S    
C80   C86   1.427570 A    
C105  H54   1.110534 S    
O8    C3    1.297966 A    
C27   H11   1.084474 S    
C30   C38   1.383551 A    
C44   C47   1.391857 A    
C63   H23   1.083963 S    
O3    Zn1   2.020061 S    
C62   H22   1.083941 S    
C66   H26   1.083931 S    
C93   C96   1.391120 A    
C84   C90   1.405926 A    
C106  H58   1.110624 S    
C29   H13   1.084408 S    
C34   C42   1.410655 A    
C99   H39   1.080545 S    
C105  H53   1.082937 S    
O12   C5    1.298107 A    
C58   C70   1.389623 A    
O5    Zn2   2.020085 S    
C97   H37   1.080544 S    
C1    C20   1.441174 S    
C95   H35   1.080530 S    
C88   C100  1.410485 A    
C107  H61   1.110615 S    
C33   C57   1.400022 A    
C2    C19   1.441167 S    
C67   H27   1.083943 S    
Zn2   N2    2.033280 S    
C3    C18   1.441188 S    
C76   N2    1.385582 A    
C5    C24   1.441162 S    
C35   C59   1.400015 A    
C87   C99   1.410479 A    
C6    C23   1.441168 S    
O11   Zn3   2.020061 S    
C80   N4    1.385606 A    
C104  H52   1.082928 S    
C15   C55   1.383624 A    
C60   H20   1.083960 S    
C108  H63   1.110530 S    
O2    Zn2   2.020018 S    
C48   C56   1.410770 A    
C86   C98   1.410497 A    
C97   C100  1.391114 A    
C57   H17   1.083940 S    
O7    Zn2   2.020043 S    
C86   C92   1.405929 A    
C100  H40   1.080548 S    
C98   C99   1.391120 A    
C25   H9    1.084541 S    
C55   C72   1.400046 A    
C22   C30   1.399350 A    
C77   C87   1.427566 A    
O4    C1    1.297976 A    
C13   C53   1.383635 A    
O15   C8    1.297965 A    
C12   H4    1.084707 S    
C14   C54   1.383593 A    
O7    C4    1.298074 A    
C101  H43   1.110511 S    
C80   C108  1.510993 S    
C102  H46   1.110509 S    
C37   C61   1.399922 A    
C16   C24   1.399378 A    
C65   H25   1.083848 S    
C31   C39   1.383555 A    
C17   C25   1.399335 A    
C52   C67   1.400046 A    
Zn1   N1    2.033278 S    
O9    Zn3   2.020018 S    
C19   C27   1.399281 A    
C75   N1    1.385601 A    
C103  H49   1.110588 S    
C41   C49   1.410763 A    
C28   C36   1.383549 A    
C77   C105  1.511006 S    
C43   C48   1.391863 A    
C83   C89   1.405925 A    
C94   H34   1.080527 S    
C42   C45   1.391876 A    
Zn4   N4    2.033280 S    
C57   C69   1.389604 A    
C104  H50   1.110582 S    
C98   H38   1.080548 S    
C78   N4    1.385592 A    
C64   C68   1.389617 A    
C43   C51   1.410770 A    
C24   C32   1.399282 A    
O4    Zn2   2.020061 S    
C16   H8    1.084697 S    
O5    C3    1.298109 A    
O16   C7    1.298076 A    
O6    C4    1.298016 A    
O11   C6    1.297977 A    
O1    C1    1.298094 A    
C36   C60   1.400039 A    
C59   H19   1.083940 S    
C82   C90   1.405918 A    
C40   C48   1.410746 A    
Zn3   N3    2.033278 S    
C38   C62   1.400025 A    
C13   C21   1.399284 A    
C10   H2    1.084615 S    
C74   C102  1.511003 S    
C62   C66   1.389601 A    
C9    H1    1.084649 S    
C4    C17   1.441211 S    
C40   C64   1.400017 A    
O9    C5    1.297957 A    
C106  H56   1.082963 S    
C69   H29   1.083935 S    
C23   C31   1.399323 A    
C11   H3    1.084693 S    
C83   C95   1.410469 A    
C14   H6    1.084655 S    
C11   C19   1.399374 A    
C13   H5    1.084612 S    
C12   C20   1.399389 A    
C107  H59   1.082949 S    
C18   C26   1.399196 A    
C106  H57   1.110526 S    
C85   C91   1.405929 A    
C56   C71   1.400024 A    
C58   H18   1.083868 S    
C51   C68   1.400024 A    
O15   Zn4   2.020043 S    
C16   C56   1.383621 A    
C47   C55   1.410798 A    
C74   N2    1.385573 A    
C73   C83   1.427569 A    
C31   H15   1.084517 S    
C108  H62   1.082974 S    
C61   H21   1.083868 S    
C30   H14   1.084544 S    
C94   C95   1.391114 A    
C32   H16   1.084486 S    
C76   C104  1.510996 S    
C75   C81   1.427570 A    
C10   C18   1.399287 A    
C34   C58   1.399923 A    
C50   C65   1.399934 A    
C93   H33   1.080531 S    
C61   C65   1.389620 A    
C49   C66   1.400024 A    
C11   C51   1.383625 A    
C37   C45   1.410652 A    
C46   C54   1.410767 A    
