data_mof_unit_12786.cif
_audit_creation_date              2012-10-26T20:06:14-0400
_audit_creation_method            fapswitch 2.2
_symmetry_space_group_name_H-M    P1
_symmetry_Int_Tables_number       1
_space_group_crystal_system       triclinic
_cell_length_a                    9.618989
_cell_length_b                    10.736572
_cell_length_c                    13.410104
_cell_angle_alpha                 91.896729
_cell_angle_beta                  71.347432
_cell_angle_gamma                 89.807931
_cell_volume                      1311.3242256

loop_
_atom_site_label
_atom_site_type_symbol
_atom_type_description
_atom_site_fract_x
_atom_site_fract_y
_atom_site_fract_z
_atom_type_partial_charge
C1    C     C_R   0.500002 0.737185 0.499675 0.551953
C2    C     C_R   0.368196 0.492656 0.816326 -0.002054
C3    C     C_R   0.580770 0.931346 0.404606 -0.015533
C4    C     C_R   0.420034 0.494929 0.700300 0.535200
C5    C     C_R   0.577679 0.061184 0.406572 -0.132541
C6    C     C_R   0.500312 0.128471 0.498640 0.011174
C7    C     C_R   0.419837 0.067715 0.588807 -0.146364
C8    C     C_R   0.419579 0.938607 0.587666 -0.146503
C9    C     C_R   0.500923 0.870783 0.496736 0.036952
C10   C     C_R   0.896760 0.576144 0.569542 0.084342
C11   C     C_R   0.044783 0.575037 0.568759 -0.002705
C12   C     C_R   0.425267 0.482970 0.981385 0.029824
C13   C     C_R   0.107491 0.424346 0.432638 0.020592
C14   C     C_R   0.963860 0.430486 0.425707 0.104471
C15   C     C_R   0.500179 0.262490 0.499619 0.531694
C16   C     C_R   0.579213 0.497796 0.299146 0.523910
C17   C     C_R   0.773493 0.376839 0.021817 -0.134570
C18   C     C_R   0.621639 0.479955 0.183503 -0.014558
C19   C     C_R   0.231840 0.548070 0.871372 -0.134147
C20   C     C_R   0.189651 0.566849 0.979920 -0.150135
C21   C     C_R   0.286199 0.538342 0.034455 -0.130833
C22   C     C_R   0.800928 0.672787 0.639155 0.069772
C23   C     C_R   0.458557 0.448110 0.873110 0.021772
C24   C     C_R   0.738035 0.653075 0.747033 -0.087235
C25   C     C_R   0.656654 0.747788 0.815027 -0.116206
C26   C     C_R   0.643971 0.865186 0.776512 -0.117226
C27   C     C_R   0.715570 0.888529 0.670630 -0.116709
C28   C     C_R   0.795968 0.793374 0.602601 -0.071369
C29   C     C_3   0.958253 0.385035 0.319287 -0.224737
C30   C     C_3   0.880890 0.260182 0.319712 -0.270286
C31   C     C_3   0.962578 0.174642 0.225344 -0.485580
C32   C     C_3   0.662782 0.861070 0.302621 -0.248399
C33   C     C_3   0.820602 0.828620 0.297253 -0.292880
C34   C     C_R   0.532838 0.461249 0.031499 0.025246
C35   C     C_3   0.908917 0.774837 0.188733 -0.463391
C36   C     C_R   0.663484 0.394140 0.975751 0.045680
C37   C     C_R   0.682383 0.343685 0.875054 -0.159911
C38   C     C_R   0.580678 0.369341 0.824587 -0.142118
C39   C     C_R   0.516062 0.505539 0.134699 -0.135528
C40   C     C_R   0.752786 0.419916 0.124603 -0.158910
Cu1   Cu    Cu3+1 0.359340 0.499980 0.500000 0.919571
Cu2   Cu    Cu3+1 0.640660 0.500020 0.500000 0.916056
H1    H     H_    0.836874 0.400370 0.158306 0.114370
H2    H     H_    0.158963 0.580036 0.830138 0.123843
H3    H     H_    0.247419 0.558223 0.118190 0.092712
H4    H     H_    0.083345 0.608126 0.021466 0.114512
H5    H     H_    0.599863 0.327864 0.746668 0.143390
H6    H     H_    0.754591 0.565224 0.778406 0.120718
H7    H     H_    0.605684 0.730755 0.897801 0.117107
H8    H     H_    0.581667 0.938815 0.829134 0.109146
H9    H     H_    0.709610 0.980495 0.641367 0.116233
H10   H     H_    0.854077 0.813564 0.521461 0.096099
H11   H     H_    0.988032 0.224609 0.150585 0.150566
H12   H     H_    0.632408 0.109435 0.335611 0.093184
H13   H     H_    0.066641 0.140009 0.234447 0.154793
H14   H     H_    0.893544 0.093895 0.220018 0.141977
H15   H     H_    0.870417 0.210093 0.392976 0.176316
H16   H     H_    0.770411 0.279012 0.314788 0.187992
H17   H     H_    0.917976 0.461070 0.282807 0.154747
H18   H     H_    0.071721 0.374451 0.262813 0.096076
H19   H     H_    0.856514 0.689037 0.170047 0.157792
H20   H     H_    0.916401 0.844087 0.127567 0.149750
H21   H     H_    0.021631 0.750701 0.187930 0.135971
H22   H     H_    0.875964 0.912902 0.315361 0.153915
H23   H     H_    0.358396 0.120186 0.659754 0.109701
H24   H     H_    0.820690 0.758466 0.355816 0.196633
H25   H     H_    0.603870 0.774799 0.293495 0.146499
H26   H     H_    0.665386 0.919074 0.234821 0.132599
H27   H     H_    0.357970 0.891364 0.658041 0.112284
H28   H     H_    0.077992 0.636684 0.622370 0.112640
H29   H     H_    0.191835 0.366533 0.377421 0.124333
H30   H     H_    0.778418 0.287134 0.833808 0.109331
H31   H     H_    0.874439 0.327208 0.979124 0.107819
H32   H     H_    0.420160 0.558641 0.179978 0.115350
N1    N     N_R   0.147940 0.499970 0.499970 -0.245551
N2    N     N_R   0.852060 0.500060 0.499990 -0.222729
O1    O     O_R   0.381250 0.680340 0.500010 -0.500611
O2    O     O_R   0.618820 0.680370 0.500010 -0.500501
O3    O     O_R   0.323240 0.499950 0.650980 -0.504119
O4    O     O_R   0.560810 0.499980 0.650980 -0.491478
O5    O     O_R   0.381180 0.319630 0.499990 -0.492920
O6    O     O_R   0.618750 0.319660 0.499990 -0.513674
O7    O     O_R   0.439190 0.500020 0.349020 -0.504846
O8    O     O_R   0.676760 0.500050 0.349020 -0.519752

loop_
_geom_bond_atom_site_label_1
_geom_bond_atom_site_label_2
_ccdc_geom_bond_type
Cu2   O4    S    
C1    O1    A    
Cu1   Cu2   S    
C19   C20   A    
Cu2   O6    S    
C11   H28   S    
C7    C8    A    
C15   O5    A    
C10   C22   S    
C12   C23   A    
C26   C27   A    
C29   C30   S    
C36   C37   A    
C4    O4    A    
C26   H8    S    
Cu1   O1    S    
C5    C6    A    
Cu1   N1    S    
Cu1   O7    S    
C30   H15   S    
C16   O8    A    
C39   H32   S    
C18   C40   A    
C6    C15   S    
C10   N2    A    
C40   H1    S    
C13   N1    A    
C8    C9    A    
C17   C36   A    
C31   H14   S    
C32   H26   S    
C22   C28   A    
C13   C14   A    
C17   H31   S    
C1    O2    A    
C27   H9    S    
C33   H24   S    
C15   O6    A    
C21   H3    S    
C34   C39   A    
C24   H6    S    
C29   H17   S    
C5    H12   S    
Cu2   O8    S    
C24   C25   A    
C4    O3    A    
C13   H29   S    
C25   C26   A    
C12   C21   A    
C16   O7    A    
C17   C40   A    
C14   N2    A    
C2    C4    S    
C18   C39   A    
C37   C38   A    
C3    C9    A    
C7    H23   S    
C29   H18   S    
Cu1   O5    S    
C8    H27   S    
C1    C9    S    
C35   H19   S    
C31   H11   S    
C38   H5    S    
C32   H25   S    
Cu2   O2    S    
C22   C24   A    
C14   C29   S    
C12   C34   A    
C2    C23   A    
C19   H2    S    
C2    C19   A    
C3    C5    A    
Cu1   O3    S    
C6    C7    A    
C23   C38   A    
Cu2   N2    S    
C32   C33   S    
C11   N1    A    
C28   H10   S    
C30   C31   S    
C33   H22   S    
C30   H16   S    
C33   C35   S    
C35   H20   S    
C34   C36   A    
C3    C32   S    
C25   H7    S    
C10   C11   A    
C20   C21   A    
C16   C18   S    
C37   H30   S    
C27   C28   A    
C35   H21   S    
C31   H13   S    
C20   H4    S    
