data_mof_unit_12258.cif
_audit_creation_date              2012-12-11T17:02:12-0500
_audit_creation_method            fapswitch 2.2
_symmetry_space_group_name_H-M    P1
_symmetry_Int_Tables_number       1
_space_group_crystal_system       triclinic
_cell_length_a                    21.659435
_cell_length_b                    7.060173
_cell_length_c                    14.808217
_cell_angle_alpha                 89.999088
_cell_angle_beta                  105.992421
_cell_angle_gamma                 90.000162
_cell_volume                      2176.82412674

loop_
_atom_site_label
_atom_site_type_symbol
_atom_type_description
_atom_site_fract_x
_atom_site_fract_y
_atom_site_fract_z
_atom_type_partial_charge
O1    O     O_R   0.585850 0.505770 0.002130 -0.547190
O2    O     O_R   0.414150 0.005770 0.997870 -0.547188
O3    O     O_R   0.467530 0.173560 0.861970 -0.547212
O4    O     O_R   0.532470 0.673560 0.138030 -0.547236
C1    C     C_R   0.455991 0.344601 0.825112 0.731752
C2    C     C_R   0.544005 0.844600 0.174889 0.731697
O5    O     O_R   0.588690 0.175900 0.993250 -0.512980
O6    O     O_R   0.411310 0.675900 0.006750 -0.512998
O7    O     O_R   0.536170 0.007950 0.130090 -0.541588
O8    O     O_R   0.463830 0.507950 0.869910 -0.541608
C3    C     C_R   0.615092 0.344558 0.997632 0.757068
C4    C     C_R   0.384908 0.844558 0.002368 0.757028
O9    O     O_3   0.482630 0.339970 0.044740 -0.373377
O10   O     O_3   0.517370 0.839970 0.955260 -0.373375
V1    V     V_3+5 0.503220 0.064200 0.991700 1.473902
V2    V     V_3+5 0.496780 0.564200 0.008300 1.473854
C5    C     C_R   0.275244 0.994065 0.948804 -0.010192
C6    C     C_R   0.724757 0.494057 0.051198 -0.010192
C7    C     C_R   0.315680 0.851554 0.998731 -0.205132
C8    C     C_R   0.684320 0.351556 0.001268 -0.205140
C9    C     C_R   0.286838 0.709193 0.040622 0.586424
C10   C     C_R   0.713160 0.209199 0.959375 0.586447
C11   C     C_R   0.221405 0.720458 0.038394 -0.257914
C12   C     C_R   0.778595 0.220462 0.961604 -0.257920
H1    H     H_    0.201687 0.612459 0.074367 0.146543
H2    H     H_    0.798312 0.112467 0.925630 0.146542
C13   C     C_R   0.183128 0.875730 0.996207 -0.175445
C14   C     C_R   0.816872 0.375729 0.003793 -0.175441
C15   C     C_R   0.210996 0.006733 0.948210 0.079916
C16   C     C_R   0.789004 0.506725 0.051792 0.079920
C17   C     C_3   0.213005 0.217843 0.951871 -0.367388
C18   C     C_3   0.786999 0.717835 0.048140 -0.367396
C19   C     C_3   0.283122 0.203893 0.951807 -0.324755
C20   C     C_3   0.716881 0.703886 0.048202 -0.324779
H3    H     H_    0.206459 0.274605 0.018647 0.185200
H4    H     H_    0.793546 0.774612 0.981367 0.185200
H5    H     H_    0.181901 0.283103 0.886847 0.160436
H6    H     H_    0.818103 0.783077 0.113166 0.160438
H7    H     H_    0.317376 0.251645 0.018301 0.241390
H8    H     H_    0.682628 0.751655 0.981710 0.241387
H9    H     H_    0.292292 0.260434 0.886639 0.146436
H10   H     H_    0.707712 0.760411 0.113373 0.146438
C21   C     C_R   0.927488 0.884284 0.723135 -0.023617
C22   C     C_R   0.072510 0.384278 0.276865 -0.023615
C23   C     C_R   0.571670 0.853267 0.276794 -0.063895
C24   C     C_R   0.428325 0.353274 0.723208 -0.063915
C25   C     C_R   0.939548 0.893266 0.566249 -0.135691
C26   C     C_R   0.060450 0.393279 0.433750 -0.135695
C27   C     C_R   0.966736 0.892174 0.663006 -0.199702
C28   C     C_R   0.033261 0.392171 0.336992 -0.199702
C29   C     C_R   0.860894 0.874520 0.686741 -0.188430
C30   C     C_R   0.139104 0.374529 0.313259 -0.188432
C31   C     C_R   0.831546 0.875265 0.588534 0.029101
C32   C     C_R   0.168452 0.375285 0.411467 0.029102
C33   C     C_R   0.872303 0.885332 0.527840 0.100113
C34   C     C_R   0.127694 0.385354 0.472159 0.100117
C35   C     C_R   0.763318 0.869227 0.549244 0.047053
C36   C     C_R   0.236680 0.369254 0.450757 0.047049
C37   C     C_R   0.736694 0.872447 0.449552 0.033063
C38   C     C_R   0.263302 0.372488 0.550449 0.033065
C39   C     C_R   0.778943 0.886903 0.392341 -0.260115
C40   C     C_R   0.221053 0.386944 0.607659 -0.260117
C41   C     C_R   0.845447 0.891399 0.429980 0.266382
C42   C     C_R   0.154549 0.391431 0.570020 0.266385
C43   C     C_R   0.720702 0.861565 0.606422 -0.161932
C44   C     C_R   0.279295 0.361577 0.393580 -0.161936
C45   C     C_R   0.654699 0.860885 0.567969 -0.191772
C46   C     C_R   0.345299 0.360876 0.432033 -0.191763
C47   C     C_R   0.628055 0.864150 0.471136 0.099382
C48   C     C_R   0.371942 0.364143 0.528866 0.099377
C49   C     C_R   0.668418 0.864620 0.410263 0.112149
C50   C     C_R   0.331579 0.364656 0.589739 0.112157
C51   C     C_R   0.560992 0.865792 0.434891 -0.239268
C52   C     C_R   0.439004 0.365736 0.565111 -0.239262
C53   C     C_R   0.532460 0.861372 0.337964 0.270393
C54   C     C_R   0.467535 0.361307 0.662038 0.270374
C55   C     C_R   0.638566 0.855315 0.312451 -0.283841
C56   C     C_R   0.361430 0.355381 0.687553 -0.283853
H11   H     H_    0.665608 0.846471 0.261505 0.104092
H12   H     H_    0.334388 0.346596 0.738501 0.104088
H13   H     H_    0.624165 0.855592 0.614870 0.126527
H14   H     H_    0.375834 0.355565 0.385132 0.126531
H15   H     H_    0.971615 0.902025 0.521770 0.157900
H16   H     H_    0.028382 0.402044 0.478227 0.157897
H17   H     H_    0.018447 0.898393 0.691143 0.107787
H18   H     H_    0.981551 0.398383 0.308855 0.107785
H19   H     H_    0.833800 0.869143 0.737655 0.092435
H20   H     H_    0.166198 0.369157 0.262346 0.092433
H21   H     H_    0.761993 0.896816 0.317030 0.126758
H22   H     H_    0.238002 0.396854 0.682970 0.126756
H23   H     H_    0.736381 0.857225 0.681885 0.132205
H24   H     H_    0.263617 0.357231 0.318118 0.132208
H25   H     H_    0.530521 0.868943 0.482011 0.119942
H26   H     H_    0.469477 0.368841 0.517992 0.119953
O11   O     O_R   0.036080 0.231270 0.130120 -0.537387
O12   O     O_R   0.963920 0.731270 0.869880 -0.537385
O13   O     O_R   0.911300 0.558970 0.006750 -0.541769
O14   O     O_R   0.088700 0.058970 0.993250 -0.541768
C57   C     C_R   0.884840 0.389893 0.001791 0.721181
C58   C     C_R   0.115160 0.889894 0.998209 0.721181
O15   O     O_R   0.032450 0.561140 0.138040 -0.541101
O16   O     O_R   0.967550 0.061140 0.861960 -0.541102
O17   O     O_R   0.085870 0.728910 0.002130 -0.540820
O18   O     O_R   0.914130 0.228910 0.997870 -0.540820
C59   C     C_R   0.044542 0.392418 0.175209 0.688879
C60   C     C_R   0.955457 0.892420 0.824791 0.688880
O19   O     O_3   0.017320 0.394650 0.955270 -0.373412
O20   O     O_3   0.982680 0.894650 0.044730 -0.373412
V3    V     V_3+5 0.996780 0.670490 0.008300 1.411342
V4    V     V_3+5 0.003220 0.170490 0.991700 1.411343
F1    F     F_    0.322776 0.567033 0.090190 -0.727041
F2    F     F_    0.677222 0.067045 0.909806 -0.727029
N1    N     N_2   0.885211 0.906958 0.368051 -0.527687
H27   H     H_    0.866810 0.995614 0.311635 0.254860
C61   C     C_3   0.905006 0.726790 0.338893 -0.573907
H28   H     H_    0.862637 0.647565 0.296088 0.192976
H29   H     H_    0.929853 0.640644 0.401068 0.208147
H30   H     H_    0.938823 0.751117 0.295699 0.206080
N2    N     N_2   0.114785 0.406992 0.631947 -0.527685
H31   H     H_    0.133188 0.495634 0.688367 0.254860
C62   C     C_3   0.094984 0.226825 0.661101 -0.573908
H32   H     H_    0.137350 0.147582 0.703902 0.192977
H33   H     H_    0.070133 0.140694 0.598924 0.208146
H34   H     H_    0.061169 0.251155 0.704297 0.206080
N3    N     N_2   0.464429 0.867546 0.302491 -0.544383
H35   H     H_    0.443216 0.958802 0.339485 0.256637
C63   C     C_3   0.434244 0.683200 0.291460 -0.490380
H36   H     H_    0.444537 0.610212 0.360489 0.170574
H37   H     H_    0.451898 0.595133 0.241649 0.230983
H38   H     H_    0.381458 0.699843 0.263199 0.233436
N4    N     N_2   0.535566 0.367376 0.697515 -0.544343
H39   H     H_    0.556793 0.458650 0.660545 0.256630
C64   C     C_3   0.565718 0.182983 0.708476 -0.490389
H40   H     H_    0.555441 0.110160 0.639408 0.170533
H41   H     H_    0.548020 0.094807 0.758207 0.230907
H42   H     H_    0.618504 0.199529 0.736794 0.233514

loop_
_geom_bond_atom_site_label_1
_geom_bond_atom_site_label_2
_ccdc_geom_bond_type
C44   C46   A    
O14   V4    S    
C2    C23   S    
C13   C15   A    
C5    C15   A    
C52   H26   S    
C31   C33   A    
C20   H10   S    
C51   H25   S    
O2    C4    A    
C2    O7    A    
C24   C54   A    
C25   C27   A    
C22   C59   S    
O5    C3    A    
C19   H7    S    
C42   N2    S    
C52   C54   A    
C20   H8    S    
C18   H4    S    
C7    C9    A    
C12   H2    S    
C54   N4    S    
C56   H12   S    
C35   C37   A    
C38   C50   A    
C36   C38   A    
C61   H28   S    
O20   V3    S    
C38   C40   A    
C47   C49   A    
C62   H34   S    
C50   C56   A    
O11   C59   A    
C9    F1    S    
C36   C44   A    
C30   C32   A    
C61   H29   S    
C33   C41   A    
C48   C52   A    
C64   H42   S    
C40   C42   A    
C17   C19   S    
C47   C51   A    
C6    C16   A    
C18   H6    S    
C16   C18   S    
C6    C8    A    
C26   C34   A    
C22   C30   A    
C26   C28   A    
C57   O18   A    
O6    V2    S    
C51   C53   A    
C5    C19   S    
O13   C57   A    
C39   H21   S    
O19   V3    S    
C55   H11   S    
O15   C59   A    
C13   C58   S    
C32   C34   A    
C3    C8    S    
C37   C39   A    
C27   H17   S    
O12   V3    S    
C30   H20   S    
O4    C2    A    
C29   H19   S    
C24   C56   A    
C31   C35   A    
C21   C27   A    
C44   H24   S    
C43   C45   A    
C58   O17   A    
C26   H16   S    
C29   C31   A    
C21   C60   S    
C18   C20   S    
O4    V2    S    
C63   H37   S    
O13   V3    S    
C53   N3    S    
O6    C4    A    
C61   H30   S    
C39   C41   A    
O1    V2    S    
N3    C63   S    
O2    V1    S    
C6    C20   S    
C62   H32   S    
N2    C62   S    
C14   C57   S    
C8    C10   A    
C45   H13   S    
C11   C13   A    
C9    C11   A    
C64   H40   S    
O19   V4    S    
C17   H3    S    
O16   V4    S    
N4    H39   S    
O3    C1    A    
C49   C55   A    
O3    V1    S    
C25   C33   A    
N1    H27   S    
C32   C36   A    
C22   C28   A    
C43   H23   S    
O12   C60   A    
C12   C14   A    
C35   C43   A    
N4    C64   S    
O11   V4    S    
C48   C50   A    
N2    H31   S    
C1    C24   S    
C10   F2    S    
O17   V3    S    
C23   C53   A    
C19   H9    S    
C14   C16   A    
O7    V1    S    
C63   H38   S    
C46   H14   S    
C1    O8    A    
C15   C17   S    
O8    V2    S    
O18   V4    S    
C21   C29   A    
C34   C42   A    
N3    H35   S    
C40   H22   S    
C4    C7    S    
O5    V1    S    
C5    C7    A    
O20   V4    S    
O16   C60   A    
C10   C12   A    
C11   H1    S    
O14   C58   A    
C62   H33   S    
C28   H18   S    
C25   H15   S    
C41   N1    S    
C17   H5    S    
C46   C48   A    
O9    V2    S    
C64   H41   S    
O10   V1    S    
C23   C55   A    
O1    C3    A    
C45   C47   A    
O15   V3    S    
C63   H36   S    
C37   C49   A    
N1    C61   S    
