data_mof_unit_57970.cif
_audit_creation_date              2012-10-26T20:33:21-0400
_audit_creation_method            fapswitch 2.2
_symmetry_space_group_name_H-M    P1
_symmetry_Int_Tables_number       1
_space_group_crystal_system       triclinic
_cell_length_a                    17.729183
_cell_length_b                    10.837557
_cell_length_c                    9.551472
_cell_angle_alpha                 89.158722
_cell_angle_beta                  90.104382
_cell_angle_gamma                 92.721542
_cell_volume                      1832.96094663

loop_
_atom_site_label
_atom_site_type_symbol
_atom_type_description
_atom_site_fract_x
_atom_site_fract_y
_atom_site_fract_z
_atom_type_partial_charge
C1    C     C_R   0.497667 0.262634 0.500694 0.577879
C2    C     C_R   0.113666 0.499212 0.498335 -0.053952
C3    C     C_R   0.440648 0.057475 0.569200 0.046760
C4    C     C_R   0.355612 0.506505 0.499810 0.604567
C5    C     C_R   0.496022 0.129819 0.498808 -0.020640
C6    C     C_R   0.545354 0.071794 0.409643 -0.078234
C7    C     C_R   0.546230 0.943356 0.408591 0.433890
C8    C     C_R   0.497369 0.871132 0.495955 0.033989
C9    C     C_R   0.441984 0.930533 0.569359 -0.121780
C10   C     C_3   0.412994 0.918137 0.715911 -0.169966
C11   C     C_3   0.410089 0.058874 0.714395 0.588906
C12   C     C_R   0.884522 0.467139 0.496052 -0.007919
C13   C     C_R   0.558186 0.558898 0.072170 0.179126
C14   C     C_R   0.448575 0.429226 0.075472 0.073332
C15   C     C_R   0.448582 0.429229 0.926582 0.097342
C16   C     C_R   0.500025 0.737734 0.499204 0.601051
C17   C     C_R   0.556642 0.560157 0.924768 0.118950
C18   C     C_3   0.579483 0.692403 0.909779 -0.165904
C19   C     C_3   0.582696 0.694370 0.068228 0.572780
C20   C     C_R   0.643851 0.488267 0.500551 0.581354
C21   C     C_R   0.845635 0.431308 0.618200 0.431495
C22   C     C_R   0.766236 0.425363 0.620332 0.255967
C23   C     C_1   0.965274 0.477058 0.495800 0.112279
C24   C     C_R   0.726227 0.467932 0.500697 -0.062277
C25   C     C_R   0.766664 0.491160 0.375773 -0.132827
C26   C     C_R   0.845056 0.492388 0.373724 -0.145835
C27   C     C_1   0.032966 0.486762 0.496686 0.116640
C28   C     C_R   0.152756 0.462572 0.617062 -0.110667
C29   C     C_R   0.231220 0.470898 0.619004 0.369842
C30   C     C_R   0.272263 0.514881 0.500178 -0.043926
C31   C     C_R   0.231847 0.563829 0.384255 0.188897
C32   C     C_R   0.152564 0.550954 0.383097 0.407374
Cu1   Cu    Cu3+1 0.500000 0.499980 0.640670 1.112705
Cu2   Cu    Cu3+1 0.500000 0.500020 0.359330 1.140296
F1    F     F_    0.885527 0.402200 0.734741 -0.544203
F2    F     F_    0.599083 0.891622 0.331052 -0.518289
F3    F     F_    0.459602 0.115766 0.808365 -0.578107
F4    F     F_    0.529680 0.769627 0.123341 -0.532497
F5    F     F_    0.266564 0.434485 0.737750 -0.578884
F6    F     F_    0.112659 0.588832 0.270088 -0.561592
H1    H     H_    0.357453 0.866522 0.721284 0.173847
H2    H     H_    0.585910 0.125759 0.346397 0.169720
H3    H     H_    0.248838 0.199316 0.876133 0.397559
H4    H     H_    0.752052 0.893633 0.121745 0.380697
H5    H     H_    0.750453 0.223161 0.930586 0.377135
H6    H     H_    0.206553 0.713261 0.074701 0.392901
H7    H     H_    0.455654 0.884667 0.790091 0.165347
H8    H     H_    0.406032 0.373851 0.132026 0.167824
H9    H     H_    0.406039 0.373922 0.871557 0.222262
H10   H     H_    0.634571 0.706325 0.855032 0.169122
H11   H     H_    0.533904 0.747306 0.866147 0.145818
H12   H     H_    0.737758 0.509535 0.278873 0.230301
H13   H     H_    0.874893 0.515231 0.277144 0.199485
H14   H     H_    0.122414 0.426012 0.708176 0.195624
N1    N     N_R   0.500470 0.500930 0.147930 -0.248266
N2    N     N_R   0.500480 0.500890 0.852020 -0.254822
O1    O     O_R   0.500000 0.319640 0.618810 -0.421279
O2    O     O_2   0.258958 0.019701 0.675059 -0.262880
O3    O     O_3   0.298521 0.161499 0.882738 -0.448990
O4    O     O_2   0.682539 0.714251 0.283666 -0.227738
O5    O     O_2   0.731585 0.648260 0.058484 -0.300184
O6    O     O_3   0.700357 0.878216 0.084397 -0.431153
O7    O     O_2   0.700473 0.449451 0.868972 -0.256190
O8    O     O_2   0.650833 0.279786 0.722510 -0.260818
O9    O     O_3   0.778798 0.255037 0.847311 -0.409160
O10   O     O_2   0.343174 0.726542 0.299815 -0.227381
O11   O     O_2   0.303715 0.562431 0.138024 -0.276888
O12   O     O_R   0.500010 0.319680 0.381230 -0.537211
O13   O     O_3   0.216727 0.746584 0.169249 -0.395609
O14   O     O_R   0.391250 0.499990 0.618840 -0.449082
O15   O     O_R   0.391260 0.500020 0.381250 -0.471629
O16   O     O_R   0.499990 0.680320 0.618770 -0.563871
O17   O     O_R   0.500000 0.680360 0.381190 -0.372909
O18   O     O_R   0.608740 0.499980 0.618750 -0.452522
O19   O     O_R   0.608750 0.500010 0.381160 -0.497551
O20   O     O_2   0.314578 0.225531 0.620316 -0.263223
S1    S     S_3+6 0.317233 0.116823 0.719117 0.102351
S2    S     S_3+6 0.677239 0.730326 0.127782 0.106294
S3    S     S_3+6 0.720849 0.352399 0.767226 0.100171
S4    S     S_3+6 0.276804 0.650154 0.245472 0.114977

loop_
_geom_bond_atom_site_label_1
_geom_bond_atom_site_label_2
_ccdc_geom_bond_type
O9    S3    S    
C7    F2    S    
C16   O16   A    
O3    S1    S    
C4    O14   A    
C31   S4    S    
O7    S3    D    
C12   C23   S    
O4    S2    D    
C1    C5    S    
C28   C29   A    
C22   S3    S    
C5    C6    A    
C1    O12   A    
C2    C32   A    
C18   C19   S    
C11   F3    S    
H6    O13   S    
C11   S1    S    
O2    S1    D    
C20   C24   S    
C8    C9    A    
C2    C27   S    
C23   C27   T    
C9    C10   S    
Cu1   O16   S    
H3    O3    S    
Cu2   O19   S    
Cu1   N2    S    
C15   H9    S    
C14   N1    A    
Cu2   N1    S    
C8    C16   S    
C21   C22   A    
C10   H1    S    
C18   H11   S    
Cu1   Cu2   S    
C13   C19   S    
C16   O17   A    
C7    C8    A    
C24   C25   A    
Cu2   O12   S    
C28   H14   S    
C14   H8    S    
H4    O6    S    
C25   C26   A    
C12   C21   A    
C20   O19   A    
C12   C26   A    
C19   S2    S    
C29   C30   A    
C3    C9    A    
C19   F4    S    
C1    O1    A    
C31   C32   A    
O5    S2    D    
C29   F5    S    
C17   C18   S    
C20   O18   A    
O20   S1    D    
C17   N2    A    
Cu1   O14   S    
H5    O9    S    
O8    S3    D    
C22   C24   A    
C26   H13   S    
C18   H10   S    
Cu1   O1    S    
O6    S2    S    
O11   S4    D    
C3    C5    A    
C6    C7    A    
C21   F1    S    
O10   S4    D    
C13   C17   A    
C15   N2    A    
C25   H12   S    
C30   C31   A    
C32   F6    S    
C3    C11   S    
C10   C11   S    
Cu2   O17   S    
Cu1   O18   S    
C6    H2    S    
C10   H7    S    
C14   C15   A    
O13   S4    S    
C2    C28   A    
Cu2   O15   S    
C4    O15   A    
C4    C30   S    
C13   N1    A    
