data_mof_unit_38985.cif
_audit_creation_date              2012-12-10T16:39:32-0500
_audit_creation_method            fapswitch 2.2
_symmetry_space_group_name_H-M    P1
_symmetry_Int_Tables_number       1
_space_group_crystal_system       triclinic
_cell_length_a                    16.838422
_cell_length_b                    16.848101
_cell_length_c                    16.829681
_cell_angle_alpha                 65.984451
_cell_angle_beta                  66.005587
_cell_angle_gamma                 65.872132
_cell_volume                      3811.26399214

loop_
_atom_site_label
_atom_site_type_symbol
_atom_type_description
_atom_site_fract_x
_atom_site_fract_y
_atom_site_fract_z
_atom_type_partial_charge
C1    C     C_R   0.302362 0.025531 0.434512 0.057675
C2    C     C_R   0.317406 0.438381 0.992651 0.048807
C3    C     C_R   0.550351 0.407658 0.988256 -0.047461
C4    C     C_R   0.946820 0.473998 0.606298 -0.024208
C5    C     C_R   0.931556 0.561808 0.428009 -0.047278
C6    C     C_R   0.972759 0.698455 0.565824 0.011023
C7    C     C_R   0.923517 0.331131 0.463719 0.057018
C8    C     C_R   0.436470 0.047831 0.436767 0.039359
C9    C     C_R   0.528944 0.070885 0.529475 0.036580
C10   C     C_R   0.930316 0.470560 0.470158 0.039626
C11   C     C_R   0.953168 0.563372 0.562635 0.041126
C12   C     C_R   0.458985 0.448962 0.988396 0.037320
C13   C     C_R   0.550184 0.540231 0.012974 0.040360
C14   C     C_R   0.961547 0.179319 0.437882 0.882432
C15   C     C_R   0.668301 0.078934 0.535457 0.007018
C16   C     C_R   0.016071 0.825388 0.569513 0.912291
C17   C     C_R   0.177126 0.431455 0.977645 0.928461
C18   C     C_R   0.820900 0.561434 0.038425 0.876695
C19   C     C_R   0.430682 0.983232 0.174903 0.935429
C20   C     C_R   0.562010 0.038515 0.820746 0.880721
C21   C     C_R   0.568287 0.822697 0.022853 0.930795
C22   C     C_R   0.438719 0.179107 0.961135 0.871911
C23   C     C_R   0.017787 0.569025 0.824680 0.929169
C24   C     C_R   0.960924 0.438295 0.179212 0.868548
C25   C     C_R   0.820674 0.039246 0.561688 0.852689
C26   C     C_R   0.921407 0.464603 0.331247 0.003171
C27   C     C_R   0.175040 0.982923 0.430754 0.940024
C28   C     C_R   0.392504 0.029683 0.392592 -0.017099
C29   C     C_R   0.577970 0.074645 0.578201 0.002713
C30   C     C_R   0.926206 0.421839 0.421402 0.003953
C31   C     C_R   0.970618 0.607707 0.606964 -0.000409
C32   C     C_R   0.412607 0.404255 0.975502 0.000625
C33   C     C_R   0.594947 0.586907 0.025419 -0.018686
C34   C     C_R   0.264154 0.995864 0.392529 -0.103171
C35   C     C_R   0.721218 0.066008 0.590499 -0.115743
C36   C     C_R   0.934129 0.409555 0.278534 -0.120440
C37   C     C_R   0.975694 0.565271 0.696901 0.055750
C38   C     C_R   0.004807 0.607335 0.735456 -0.103765
C39   C     C_R   0.409081 0.276964 0.944181 -0.115098
C40   C     C_R   0.603589 0.727251 0.027748 -0.108714
C41   C     C_R   0.590782 0.065207 0.721418 -0.105185
C42   C     C_R   0.392446 0.996194 0.264012 -0.099900
C43   C     C_R   0.723061 0.590933 0.055117 -0.095080
C44   C     C_R   0.272389 0.395538 0.973282 -0.109216
C45   C     C_R   0.003006 0.736424 0.607657 -0.116541
C46   C     C_R   0.935106 0.278680 0.408963 -0.104713
C47   C     C_R   0.439932 0.096769 0.702177 0.120788
C48   C     C_R   0.460636 0.324162 0.948796 0.011378
C49   C     C_R   0.510997 0.059701 0.252690 0.134549
C50   C     C_R   0.937430 0.748362 0.489506 0.135247
C51   C     C_R   0.904738 0.297910 0.559494 0.116139
C52   C     C_R   0.708048 0.443080 0.066539 0.119427
C53   C     C_R   0.271300 0.513049 0.029778 0.135780
C54   C     C_R   0.252803 0.058702 0.511609 0.129794
C55   C     C_R   0.700155 0.100686 0.439030 0.135828
C56   C     C_R   0.557536 0.293718 0.929947 0.135040
C57   C     C_R   0.483320 0.727432 0.975174 0.138942
C58   C     C_R   0.899200 0.561073 0.299346 0.136129
C59   C     C_R   0.559800 0.681936 0.009740 0.046611
C60   C     C_R   0.944398 0.487156 0.745790 0.132244
C61   C     C_R   0.312106 0.976660 0.311973 -0.324379
C62   C     C_R   0.680635 0.063423 0.680608 -0.292976
C63   C     C_R   0.936601 0.319526 0.319169 -0.288093
C64   C     C_R   0.023177 0.688180 0.687832 -0.308187
C65   C     C_R   0.319379 0.317831 0.946668 -0.291001
C66   C     C_R   0.681942 0.680411 0.053259 -0.309778
C67   C     C_R   0.657931 0.083192 0.392548 -0.079498
C68   C     C_R   0.300363 0.056922 0.565591 -0.130931
C69   C     C_R   0.947402 0.433420 0.697557 -0.138278
C70   C     C_R   0.535794 0.077367 0.668925 0.057397
C71   C     C_R   0.916201 0.607850 0.341661 -0.079283
C72   C     C_R   0.424280 0.678129 0.993307 -0.128632
C73   C     C_R   0.599095 0.326054 0.964725 -0.099875
C74   C     C_R   0.564563 0.058893 0.300152 -0.130423
C75   C     C_R   0.393161 0.078500 0.660531 -0.123796
C76   C     C_R   0.319579 0.572470 0.013183 -0.126867
C77   C     C_R   0.676081 0.401574 0.030921 -0.143130
C78   C     C_R   0.924006 0.339243 0.605724 -0.132096
C79   C     C_R   0.937995 0.701023 0.436173 -0.076883
C80   C     C_R   0.700398 0.077948 0.302064 0.356252
C81   C     C_R   0.434263 0.026040 0.302248 0.058318
C82   C     C_R   0.258552 0.057907 0.657110 0.331002
C83   C     C_R   0.949015 0.341429 0.738443 0.328667
C84   C     C_R   0.918513 0.699244 0.300202 0.342629
C85   C     C_R   0.330867 0.718470 0.998581 0.330801
C86   C     C_R   0.687420 0.280864 0.976170 0.349697
C87   C     C_R   0.655275 0.062369 0.257816 0.306796
C88   C     C_R   0.303739 0.070030 0.703895 0.324689
C89   C     C_R   0.277963 0.665074 0.011174 0.326355
C90   C     C_R   0.722715 0.314995 0.015036 0.311084
C91   C     C_R   0.934294 0.295405 0.694519 0.331617
C92   C     C_R   0.676126 0.539372 0.050041 0.063916
C93   C     C_R   0.930064 0.744954 0.346802 0.330168
C94   C     C_R   0.524839 0.056995 0.392239 -0.024322
C95   C     C_R   0.438493 0.066830 0.572588 -0.027015
C96   C     C_R   0.935355 0.427223 0.560269 -0.026597
C97   C     C_R   0.942819 0.608233 0.474683 -0.040924
C98   C     C_R   0.413515 0.535592 0.001311 -0.028126
C99   C     C_R   0.592680 0.449644 0.010551 -0.030503
C100  C     C_R   0.571327 0.068689 0.438502 -0.041898
C101  C     C_R   0.392241 0.055674 0.525712 -0.023928
C102  C     C_R   0.462430 0.584756 0.002763 -0.027596
Cl1   Cl    Cl    0.250648 0.060419 0.820994 -0.446394
Cl2   Cl    Cl    0.275091 0.831397 0.004483 -0.440775
Cl3   Cl    Cl    0.918384 0.755573 0.185406 -0.423995
Cl4   Cl    Cl    0.990247 0.277133 0.834296 -0.416348
Cl5   Cl    Cl    0.720467 0.027373 0.158503 -0.405945
Cl6   Cl    Cl    0.948405 0.852824 0.286017 -0.416829
Cl7   Cl    Cl    0.942282 0.178955 0.748415 -0.433003
Cl8   Cl    Cl    0.829853 0.250612 0.033884 -0.422330
Cl9   Cl    Cl    0.163677 0.719900 0.009373 -0.446030
Cl10  Cl    Cl    0.157597 0.025518 0.720369 -0.421117
Cl11  Cl    Cl    0.814670 0.079136 0.245609 -0.417615
Cl12  Cl    Cl    0.752940 0.176878 0.950162 -0.407853
H1    H     H_    0.283923 0.950186 0.283676 0.206467
H2    H     H_    0.507300 0.186429 0.164866 0.172429
H3    H     H_    0.846258 0.847128 0.551779 0.177558
H4    H     H_    0.896304 0.887062 0.438931 0.284580
H5    H     H_    0.788068 0.274791 0.655983 0.207251
H6    H     H_    0.872495 0.178419 0.641136 0.268957
H7    H     H_    0.818947 0.356069 0.112862 0.268209
H8    H     H_    0.716985 0.341534 0.184380 0.215896
H9    H     H_    0.137660 0.564116 0.098475 0.271523
H10   H     H_    0.208401 0.501933 0.164067 0.183812
H11   H     H_    0.165649 0.185785 0.508662 0.180386
H12   H     H_    0.721714 0.052858 0.721675 0.209183
H13   H     H_    0.115450 0.102432 0.572777 0.278356
H14   H     H_    0.738348 0.206942 0.428134 0.166876
H15   H     H_    0.819967 0.134893 0.368995 0.264740
H16   H     H_    0.634931 0.184199 0.878892 0.259689
H17   H     H_    0.576235 0.273150 0.810540 0.164904
H18   H     H_    0.492321 0.789725 0.841197 0.185992
H19   H     H_    0.429098 0.860171 0.906873 0.272752
H20   H     H_    0.864896 0.631237 0.179396 0.261897
H21   H     H_    0.793451 0.571416 0.260411 0.163963
H22   H     H_    0.900391 0.422621 0.882082 0.272959
H23   H     H_    0.946870 0.278528 0.278187 0.209703
H24   H     H_    0.817195 0.490300 0.832090 0.174309
H25   H     H_    0.049574 0.716414 0.716149 0.205832
H26   H     H_    0.283563 0.284062 0.935686 0.203915
H27   H     H_    0.715952 0.716258 0.063873 0.208049
H28   H     H_    0.358726 0.128528 0.822174 0.268821
H29   H     H_    0.344029 0.213579 0.726186 0.202800
H30   H     H_    0.573002 0.102372 0.115572 0.273520
N1    N     N_3   0.392009 0.159386 0.756120 -0.454479
N2    N     N_3   0.487528 0.806113 0.896936 -0.426328
N3    N     N_3   0.833357 0.611201 0.248830 -0.410792
N4    N     N_3   0.880515 0.484141 0.834749 -0.418317
N5    N     N_3   0.512505 0.122885 0.163631 -0.422021
N6    N     N_3   0.869778 0.835285 0.488573 -0.416935
N7    N     N_3   0.841699 0.244631 0.607891 -0.451204
N8    N     N_3   0.750919 0.389672 0.138067 -0.442439
N9    N     N_3   0.192743 0.506700 0.107881 -0.429071
N10   N     N_3   0.164049 0.122760 0.512863 -0.422709
N11   N     N_3   0.750433 0.166453 0.388638 -0.428220
N12   N     N_3   0.613085 0.254817 0.855697 -0.417186
O1    O     O_R   0.982940 0.138950 0.510160 -0.635937
O2    O     O_R   0.982940 0.510160 0.138950 -0.642093
O3    O     O_R   0.861050 0.017060 0.489840 -0.665602
O4    O     O_R   0.138950 0.982940 0.510160 -0.612486
O5    O     O_R   0.867700 0.025880 0.612340 -0.624841
O6    O     O_R   0.132300 0.974120 0.387660 -0.606891
O7    O     O_R   0.025880 0.612340 0.867700 -0.608553
O8    O     O_R   0.974120 0.387660 0.132300 -0.622783
O9    O     O_R   0.612340 0.867700 0.025880 -0.608635
O10   O     O_R   0.387660 0.132300 0.974120 -0.622289
O11   O     O_R   0.387660 0.974120 0.132300 -0.609586
O12   O     O_R   0.017060 0.861050 0.489840 -0.631746
O13   O     O_R   0.612340 0.025880 0.867700 -0.635725
O14   O     O_R   0.132300 0.387660 0.974120 -0.611894
O15   O     O_R   0.867700 0.612340 0.025880 -0.632640
O16   O     O_R   0.974120 0.132300 0.387660 -0.636431
O17   O     O_R   0.025880 0.867700 0.612340 -0.602217
O18   O     O_R   0.138950 0.510160 0.982940 -0.607500
O19   O     O_R   0.861050 0.489840 0.017060 -0.638788
O20   O     O_R   0.510160 0.982940 0.138950 -0.613031
O21   O     O_R   0.489840 0.017060 0.861050 -0.628116
O22   O     O_R   0.489840 0.861050 0.017060 -0.608633
O23   O     O_R   0.510160 0.138950 0.982940 -0.654238
O24   O     O_R   0.017060 0.489840 0.861050 -0.613032
Zn1   Zn    Zn3+2 0.004880 0.004880 0.583590 1.063147
Zn2   Zn    Zn3+2 0.995120 0.995120 0.416410 1.054532
Zn3   Zn    Zn3+2 0.004880 0.583590 0.004880 1.072655
Zn4   Zn    Zn3+2 0.995120 0.416410 0.995120 1.060696
Zn5   Zn    Zn3+2 0.583590 0.004880 0.004880 1.060905
Zn6   Zn    Zn3+2 0.416410 0.995120 0.995120 1.073513

loop_
_geom_bond_atom_site_label_1
_geom_bond_atom_site_label_2
_ccdc_geom_bond_type
C16   O17   A    
C2    C44   A    
C47   N1    S    
C53   N9    S    
C6    C45   A    
C63   H23   S    
C74   C94   A    
C48   C56   A    
C56   N12   S    
C50   C79   A    
C72   C85   A    
C75   C95   A    
O20   Zn5   S    
C14   C46   S    
C66   H27   S    
C18   O15   A    
H11   N10   S    
C55   N11   S    
H20   N3    S    
C24   C36   S    
O1    Zn1   S    
O8    Zn4   S    
O15   Zn3   S    
H17   N12   S    
O6    Zn2   S    
C80   C87   A    
C93   Cl6   S    
C24   O2    A    
C58   C71   A    
C57   C59   A    
C54   C68   A    
C76   C98   A    
C21   O9    A    
C2    C32   A    
C49   C81   A    
H4    N6    S    
C10   C30   A    
C19   O20   A    
H2    N5    S    
C6    C31   A    
C3    C12   A    
H14   N11   S    
C4    C96   A    
C65   H26   S    
H24   N4    S    
C61   H1    S    
C1    C28   A    
H3    N6    S    
C22   O10   A    
C10   C96   A    
C74   C87   A    
C36   C63   A    
C8    C101  A    
C9    C95   A    
C12   C98   A    
C19   C42   S    
C9    C29   A    
C76   C89   A    
C18   O19   A    
C20   O13   A    
C11   C31   A    
C33   C59   A    
C7    C30   A    
C40   C66   A    
C57   N2    S    
C12   C32   A    
O3    Zn2   S    
C39   C65   A    
H28   N1    S    
C44   C65   A    
C24   O8    A    
C42   C81   A    
C19   O11   A    
C41   C62   A    
C20   C41   S    
H13   N10   S    
C15   C35   A    
C4    C69   A    
C1    C34   A    
C15   C29   A    
C23   O7    A    
C27   C34   S    
H5    N7    S    
C77   C90   A    
C11   C97   A    
C14   O1    A    
O7    Zn3   S    
O13   Zn5   S    
C7    C46   A    
C8    C94   A    
C68   C101  A    
C14   O16   A    
C86   C90   A    
C33   C92   A    
C78   C96   A    
C62   H12   S    
C85   C89   A    
C17   O14   A    
C27   O4    A    
C98   C102  A    
O11   Zn6   S    
C34   C61   A    
O9    Zn5   S    
O21   Zn6   S    
C31   C37   A    
C15   C55   A    
C13   C99   A    
C1    C54   A    
C51   N7    S    
C47   C70   A    
C13   C33   A    
C37   C38   A    
C69   C83   A    
O16   Zn2   S    
C68   C82   A    
C58   N3    S    
C50   N6    S    
C94   C100  A    
C52   N8    S    
C71   C84   A    
C84   Cl3   S    
C6    C50   A    
C4    C11   A    
C26   C58   A    
C42   C61   A    
C23   O24   A    
H22   N4    S    
C85   Cl2   S    
C67   C100  A    
C25   C35   S    
C25   O3    A    
H21   N3    S    
C26   C36   A    
C21   O22   A    
C5    C97   A    
C26   C30   A    
C9    C100  A    
C25   O5    A    
C8    C28   A    
C52   C92   A    
C53   C76   A    
C90   Cl8   S    
C52   C77   A    
O4    Zn1   S    
C88   Cl1   S    
C17   O18   A    
H15   N11   S    
C29   C70   A    
H9    N9    S    
H29   N1    S    
H6    N7    S    
C56   C73   A    
H30   N5    S    
O14   Zn4   S    
C28   C81   A    
O10   Zn6   S    
C79   C97   A    
C67   C80   A    
C22   O23   A    
C2    C53   A    
O18   Zn3   S    
C54   N10   S    
C55   C67   A    
C83   Cl4   S    
C79   C93   A    
C20   O21   A    
O23   Zn5   S    
C78   C91   A    
C23   C38   S    
C83   C91   A    
C89   Cl9   S    
C45   C64   A    
O12   Zn2   S    
C43   C92   A    
H7    N8    S    
C49   N5    S    
C46   C63   A    
C86   Cl12  S    
H18   N2    S    
C91   Cl7   S    
C51   C78   A    
C7    C51   A    
C5    C10   A    
C27   O6    A    
C18   C43   S    
C32   C48   A    
C21   C40   S    
C72   C102  A    
C60   C69   A    
C16   O12   A    
C43   C66   A    
C82   C88   A    
C22   C39   S    
C95   C101  A    
C77   C99   A    
C35   C62   A    
C84   C93   A    
O17   Zn1   S    
C57   C72   A    
O5    Zn1   S    
C3    C73   A    
C73   C86   A    
C17   C44   S    
C37   C60   A    
C16   C45   S    
C47   C75   A    
O22   Zn6   S    
C3    C99   A    
C75   C88   A    
C87   Cl5   S    
C80   Cl11  S    
C5    C71   A    
C40   C59   A    
C38   C64   A    
C49   C74   A    
C39   C48   A    
H16   N12   S    
H19   N2    S    
C60   N4    S    
C13   C102  A    
H10   N9    S    
O24   Zn4   S    
O2    Zn3   S    
C82   Cl10  S    
C41   C70   A    
O19   Zn4   S    
C64   H25   S    
H8    N8    S    
