data_mof_unit_45666.cif
_audit_creation_date              2012-12-10T18:47:02-0500
_audit_creation_method            fapswitch 2.2
_symmetry_space_group_name_H-M    P1
_symmetry_Int_Tables_number       1
_space_group_crystal_system       triclinic
_cell_length_a                    10.650117
_cell_length_b                    9.849461
_cell_length_c                    14.969631
_cell_angle_alpha                 90.596445
_cell_angle_beta                  90.130873
_cell_angle_gamma                 89.975487
_cell_volume                      1570.19372913

loop_
_atom_site_label
_atom_site_type_symbol
_atom_type_description
_atom_site_fract_x
_atom_site_fract_y
_atom_site_fract_z
_atom_type_partial_charge
C1    C     C_R   0.260366 0.500025 0.499871 0.948095
C2    C     C_R   0.739634 0.499975 0.500129 0.948096
C3    C     C_R   0.320368 0.339197 0.039038 0.112212
C4    C     C_R   0.679617 0.660815 0.960961 0.112212
C5    C     C_R   0.065491 0.427178 0.566256 0.027136
C6    C     C_R   0.934509 0.572820 0.433743 0.027137
C7    C     C_R   0.935181 0.427000 0.566282 0.009475
C8    C     C_R   0.064819 0.573000 0.433717 0.009473
C9    C     C_R   0.872040 0.499936 0.500071 -0.073551
C10   C     C_R   0.127959 0.500063 0.499928 -0.073550
C11   C     C_R   0.586161 0.072660 0.549134 -0.062272
C12   C     C_R   0.413838 0.927340 0.450866 -0.062272
C13   C     C_R   0.413794 0.071167 0.450913 -0.075541
C14   C     C_R   0.586206 0.928832 0.549087 -0.075539
C15   C     C_R   0.496765 0.499181 0.327032 0.891942
C16   C     C_R   0.503234 0.500819 0.672968 0.891944
C17   C     C_R   0.595530 0.581964 0.815168 0.042702
C18   C     C_R   0.404465 0.418039 0.184832 0.042700
C19   C     C_R   0.506781 0.502664 0.768402 -0.113764
C20   C     C_R   0.493216 0.497336 0.231598 -0.113763
C21   C     C_R   0.419790 0.422709 0.811993 -0.268605
C22   C     C_R   0.580204 0.577292 0.188007 -0.268607
C23   C     C_R   0.416542 0.421728 0.903918 0.111404
C24   C     C_R   0.583451 0.578274 0.096081 0.111404
C25   C     C_R   0.502739 0.501096 0.953290 -0.017275
C26   C     C_R   0.497253 0.498906 0.046710 -0.017275
C27   C     C_R   0.594099 0.582233 0.909227 0.115195
C28   C     C_R   0.405892 0.417772 0.090772 0.115195
C29   C     C_R   0.327004 0.342338 0.946375 -0.285230
C30   C     C_R   0.672984 0.657670 0.053624 -0.285230
H1    H     H_    0.352860 0.362513 0.773665 0.161833
H2    H     H_    0.647134 0.637489 0.226334 0.161833
H3    H     H_    0.261218 0.281886 0.907373 0.144224
H4    H     H_    0.738765 0.718126 0.092626 0.144225
H5    H     H_    0.655036 0.127676 0.588475 0.134957
H6    H     H_    0.344964 0.872324 0.411525 0.134958
H7    H     H_    0.344731 0.124966 0.411753 0.121306
H8    H     H_    0.655269 0.875034 0.588247 0.121305
N1    N     N_R   0.500000 0.857200 0.500000 -0.081623
N2    N     N_R   0.500000 0.142800 0.500000 -0.081623
O1    O     O_R   0.316770 0.614620 0.499990 -0.612751
O2    O     O_R   0.683230 0.385380 0.500010 -0.612752
O3    O     O_R   0.683230 0.614620 0.500010 -0.621055
O4    O     O_R   0.316770 0.385380 0.499990 -0.621055
O5    O     O_R   0.499980 0.614680 0.367850 -0.610263
O6    O     O_R   0.500020 0.385320 0.632150 -0.610264
O7    O     O_R   0.500020 0.614680 0.632150 -0.634006
O8    O     O_R   0.499980 0.385320 0.367850 -0.634007
Zn1   Zn    Zn3+2 0.500000 0.653120 0.500000 0.955077
Zn2   Zn    Zn3+2 0.500000 0.346880 0.500000 0.955077
N3    N     N_3   0.688389 0.658135 0.767435 -0.433236
H9    H     H_    0.734341 0.594043 0.721997 0.178439
H10   H     H_    0.644163 0.736508 0.732989 0.205843
N4    N     N_3   0.311612 0.341865 0.232566 -0.433235
H11   H     H_    0.355843 0.263491 0.267007 0.205840
H12   H     H_    0.265662 0.405951 0.278008 0.178441
N5    N     N_3   0.226660 0.255131 0.079112 -0.434252
H13   H     H_    0.138541 0.286698 0.056384 0.181574
H14   H     H_    0.240788 0.155136 0.057195 0.182550
N6    N     N_3   0.773312 0.744899 0.920887 -0.434254
H15   H     H_    0.759170 0.844890 0.942806 0.182550
H16   H     H_    0.861436 0.713346 0.943613 0.181576
N7    N     N_3   0.135524 0.357337 0.633932 -0.455965
H17   H     H_    0.111654 0.254450 0.631773 0.188766
H18   H     H_    0.111339 0.397357 0.696496 0.172295
N8    N     N_3   0.864476 0.642659 0.366065 -0.455966
H19   H     H_    0.888347 0.745546 0.368220 0.188764
H20   H     H_    0.888659 0.602633 0.303502 0.172297
N9    N     N_3   0.865872 0.356307 0.633690 -0.466463
H21   H     H_    0.891032 0.395118 0.696447 0.176465
H22   H     H_    0.889609 0.253399 0.630705 0.184359
N10   N     N_3   0.134128 0.643696 0.366312 -0.466461
H23   H     H_    0.108968 0.604889 0.303553 0.176467
H24   H     H_    0.110389 0.746605 0.369300 0.184359

loop_
_geom_bond_atom_site_label_1
_geom_bond_atom_site_label_2
_ccdc_geom_bond_type
C7    N9    S    
N8    H20   S    
N7    H18   S    
C6    C8    A    
C12   H6    S    
N10   H24   S    
C20   C22   A    
O6    Zn2   S    
C1    O4    A    
C13   H7    S    
O5    Zn1   S    
C2    O3    A    
C25   C27   A    
C4    C30   A    
C17   N3    S    
C12   N1    A    
O8    Zn2   S    
N8    H19   S    
C25   C26   A    
N9    H22   S    
C5    C10   A    
O7    Zn1   S    
N6    H16   S    
C13   N2    A    
C21   H1    S    
C4    N6    S    
N5    H13   S    
N9    H21   S    
C22   H2    S    
C15   O8    A    
C2    O2    A    
C16   C19   S    
N2    Zn2   S    
C23   C29   A    
C16   O7    A    
C1    O1    A    
C3    C28   A    
C19   C21   A    
O2    Zn2   S    
C18   C20   A    
C23   C25   A    
C21   C23   A    
C11   N2    A    
C11   C14   A    
N4    H12   S    
N1    Zn1   S    
C8    N10   S    
C24   C30   A    
N5    H14   S    
C18   N4    S    
N3    H10   S    
C16   O6    A    
C14   H8    S    
C17   C27   A    
C29   H3    S    
C6    N8    S    
C6    C9    A    
C18   C28   A    
C12   C13   A    
C5    N7    S    
C7    C9    A    
C22   C24   A    
O1    Zn1   S    
C5    C7    A    
C30   H4    S    
N4    H11   S    
N10   H23   S    
C3    C29   A    
O4    Zn2   S    
C4    C27   A    
N6    H15   S    
C17   C19   A    
C14   N1    A    
N7    H17   S    
C2    C9    S    
C26   C28   A    
C11   H5    S    
C8    C10   A    
O3    Zn1   S    
C1    C10   S    
N3    H9    S    
C24   C26   A    
C15   C20   S    
C3    N5    S    
C15   O5    A    
