data_mof_unit_64289.cif
_audit_creation_date              2012-10-26T17:46:00-0400
_audit_creation_method            fapswitch 2.2
_symmetry_space_group_name_H-M    P1
_symmetry_Int_Tables_number       1
_space_group_crystal_system       triclinic
_cell_length_a                    35.701201
_cell_length_b                    35.701294
_cell_length_c                    23.6512
_cell_angle_alpha                 89.999312
_cell_angle_beta                  89.99949
_cell_angle_gamma                 90.000113
_cell_volume                      30145.3245692

loop_
_atom_site_label
_atom_site_type_symbol
_atom_type_description
_atom_site_fract_x
_atom_site_fract_y
_atom_site_fract_z
_atom_type_partial_charge
C1    C     C_R   0.000014 0.427802 0.500117 0.584324
C2    C     C_1   0.267425 0.999126 0.501472 0.056224
C3    C     C_R   0.825530 0.980757 0.459401 0.239870
C4    C     C_R   0.980209 0.826525 0.543918 0.242174
C5    C     C_R   0.173473 0.980197 0.543903 0.242190
C6    C     C_R   0.019787 0.173472 0.543915 0.242187
C7    C     C_R   0.826528 0.019795 0.543914 0.242181
C8    C     C_R   0.480761 0.674470 0.959390 0.239874
C9    C     C_R   0.674468 0.519239 0.959393 0.239877
C10   C     C_R   0.519240 0.325534 0.959388 0.239885
C11   C     C_R   0.325529 0.480756 0.959401 0.239871
C12   C     C_R   0.480224 0.326529 0.043926 0.242181
C13   C     C_1   0.999132 0.732572 0.501485 0.056234
C14   C     C_R   0.673470 0.480207 0.043914 0.242188
C15   C     C_R   0.519791 0.673472 0.043913 0.242183
C16   C     C_R   0.326527 0.519798 0.043910 0.242183
C17   C     C_R   0.978698 0.134917 0.459579 -0.012393
C18   C     C_R   0.134917 0.021310 0.459591 -0.012386
C19   C     C_R   0.021310 0.865081 0.459592 -0.012383
C20   C     C_R   0.865082 0.978690 0.459593 -0.012387
C21   C     C_R   0.978490 0.865996 0.541589 -0.014089
C22   C     C_R   0.134002 0.978483 0.541580 -0.014092
C23   C     C_R   0.021507 0.134002 0.541589 -0.014110
C24   C     C_1   0.732575 0.000872 0.501482 0.056268
C25   C     C_R   0.865998 0.021515 0.541582 -0.014101
C26   C     C_R   0.478694 0.634917 0.959584 -0.012392
C27   C     C_R   0.634916 0.521308 0.959587 -0.012397
C28   C     C_R   0.521307 0.365086 0.959582 -0.012407
C29   C     C_R   0.365082 0.478689 0.959594 -0.012383
C30   C     C_R   0.478499 0.365998 0.041595 -0.014120
C31   C     C_R   0.634001 0.478487 0.041584 -0.014109
C32   C     C_R   0.521510 0.634002 0.041585 -0.014103
C33   C     C_R   0.365997 0.521516 0.041582 -0.014094
C34   C     C_R   0.000019 0.114212 0.500219 -0.063592
C35   C     C_1   0.500869 0.767424 0.001476 0.056277
C36   C     C_R   0.114212 0.999979 0.500220 -0.063584
C37   C     C_R   0.999981 0.885786 0.500223 -0.063590
C38   C     C_R   0.885788 0.000020 0.500221 -0.063589
C39   C     C_R   0.500019 0.614212 0.000219 -0.063590
C40   C     C_R   0.614211 0.499980 0.000220 -0.063589
C41   C     C_R   0.499984 0.385789 0.000222 -0.063592
C42   C     C_R   0.385787 0.500020 0.000222 -0.063586
C43   C     C_R   0.000356 0.193376 0.502014 0.010212
C44   C     C_R   0.193377 0.999641 0.502014 0.010215
C45   C     C_R   0.999649 0.806621 0.502027 0.010218
C46   C     C_1   0.767422 0.499129 0.001478 0.056333
C47   C     C_R   0.806623 0.000354 0.502024 0.010209
C48   C     C_R   0.500354 0.693377 0.002018 0.010211
C49   C     C_R   0.693375 0.499645 0.002019 0.010206
C50   C     C_R   0.499655 0.306626 0.002023 0.010203
C51   C     C_R   0.306622 0.500356 0.002022 0.010214
C52   C     C_1   0.000825 0.233732 0.501864 0.053240
C53   C     C_1   0.233734 0.999172 0.501864 0.053211
C54   C     C_1   0.999180 0.766263 0.501878 0.053193
C55   C     C_1   0.766266 0.000825 0.501874 0.053234
C56   C     C_1   0.500823 0.733733 0.001868 0.053255
C57   C     C_1   0.499138 0.232580 0.001478 0.056359
C58   C     C_1   0.733731 0.499176 0.001870 0.053300
C59   C     C_1   0.499186 0.266271 0.001871 0.053346
C60   C     C_1   0.266264 0.500826 0.001872 0.053218
C61   C     C_3   0.984981 0.202533 0.373516 -0.117800
C62   C     C_3   0.202538 0.015055 0.373528 -0.117775
C63   C     C_3   0.015052 0.797458 0.373537 -0.117745
C64   C     C_3   0.797462 0.984950 0.373535 -0.117767
C65   C     C_3   0.984351 0.793689 0.626750 -0.111711
C66   C     C_3   0.206324 0.984320 0.626725 -0.111717
C67   C     C_3   0.015629 0.206305 0.626746 -0.111690
C68   C     C_1   0.232574 0.500873 0.001480 0.056265
C69   C     C_3   0.793700 0.015655 0.626751 -0.111690
C70   C     C_3   0.484965 0.702537 0.873524 -0.117783
C71   C     C_3   0.702533 0.515037 0.873525 -0.117796
C72   C     C_3   0.515019 0.297476 0.873518 -0.117826
C73   C     C_3   0.297461 0.484945 0.873535 -0.117765
C74   C     C_3   0.484393 0.293702 0.126761 -0.111671
C75   C     C_3   0.706302 0.484354 0.126747 -0.111693
C76   C     C_3   0.515645 0.706307 0.126744 -0.111697
C77   C     C_3   0.293689 0.515666 0.126742 -0.111705
C78   C     C_3   0.952846 0.115987 0.416772 -0.241973
C79   C     C_R   0.973835 0.327010 0.468837 0.229648
C80   C     C_3   0.918427 0.099000 0.445100 -0.419517
C81   C     C_3   0.115987 0.047171 0.416796 -0.241980
C82   C     C_3   0.099002 0.081585 0.445142 -0.419513
C83   C     C_3   0.047167 0.884012 0.416791 -0.241984
C84   C     C_3   0.081582 0.900999 0.445128 -0.419513
C85   C     C_3   0.884012 0.952831 0.416795 -0.241980
C86   C     C_3   0.900999 0.918417 0.445136 -0.419517
C87   C     C_3   0.951823 0.885875 0.582023 -0.221893
C88   C     C_3   0.969580 0.892665 0.639934 -0.402155
C89   C     C_3   0.114123 0.951818 0.582017 -0.221900
C90   C     C_R   0.327011 0.026127 0.468767 0.229659
C91   C     C_3   0.107339 0.969577 0.639929 -0.402172
C92   C     C_3   0.048170 0.114124 0.582029 -0.221885
C93   C     C_3   0.030406 0.107332 0.639937 -0.402151
C94   C     C_3   0.885878 0.048190 0.582003 -0.221889
C95   C     C_3   0.892671 0.030443 0.639922 -0.402145
C96   C     C_3   0.452840 0.615987 0.916780 -0.241978
C97   C     C_3   0.418423 0.599000 0.945113 -0.419513
C98   C     C_3   0.615987 0.547165 0.916787 -0.241979
C99   C     C_3   0.599001 0.581581 0.945125 -0.419511
C100  C     C_3   0.547160 0.384017 0.916776 -0.241975
C101  C     C_R   0.026070 0.672986 0.468660 0.229662
C102  C     C_3   0.581578 0.401004 0.945106 -0.419505
C103  C     C_3   0.384012 0.452829 0.916798 -0.241982
C104  C     C_3   0.400998 0.418416 0.945142 -0.419517
C105  C     C_3   0.451832 0.385874 0.082032 -0.221879
C106  C     C_3   0.469592 0.392670 0.139941 -0.402145
C107  C     C_3   0.614121 0.451817 0.082013 -0.221886
C108  C     C_3   0.607330 0.469569 0.139928 -0.402150
C109  C     C_3   0.548177 0.614123 0.082019 -0.221889
C110  C     C_3   0.530420 0.607332 0.139931 -0.402156
C111  C     C_3   0.385877 0.548186 0.082009 -0.221895
C112  C     C_R   0.427802 0.999986 0.500117 0.584411
C113  C     C_R   0.672990 0.973878 0.468763 0.229652
C114  C     C_3   0.392666 0.530434 0.139926 -0.402158
C115  C     C_3   0.915337 0.302534 0.467033 -0.078544
C116  C     C_3   0.302561 0.084633 0.466784 -0.078550
C117  C     C_3   0.084586 0.697403 0.466383 -0.078547
C118  C     C_3   0.697430 0.915368 0.466727 -0.078555
C119  C     C_3   0.914090 0.696163 0.535954 -0.081981
C120  C     C_3   0.303857 0.914016 0.535609 -0.081994
C121  C     C_3   0.086019 0.303849 0.535382 -0.081979
C122  C     C_3   0.696148 0.085979 0.535611 -0.081986
C123  C     C_3   0.415333 0.802574 0.966923 -0.078563
C124  C     C_R   0.972881 0.672445 0.533255 0.226496
C125  C     C_3   0.802578 0.584708 0.967135 -0.078579
C126  C     C_3   0.584768 0.197414 0.967450 -0.078594
C127  C     C_3   0.197423 0.415386 0.966609 -0.078563
C128  C     C_3   0.413906 0.196165 0.034886 -0.081971
C129  C     C_3   0.803859 0.413949 0.035225 -0.081990
C130  C     C_3   0.586007 0.803849 0.035444 -0.081980
C131  C     C_3   0.196138 0.585960 0.035757 -0.082002
C132  C     C_3   0.964911 0.390376 0.379318 -0.080454
C133  C     C_3   0.390382 0.034949 0.379229 -0.080526
C134  C     C_3   0.034727 0.609611 0.379092 -0.080597
C135  C     C_R   0.327550 0.972822 0.533141 0.226494
C136  C     C_3   0.609621 0.965071 0.379221 -0.080527
C137  C     C_3   0.965207 0.608372 0.621954 -0.080355
C138  C     C_3   0.391608 0.964998 0.621824 -0.080312
C139  C     C_3   0.035136 0.391598 0.621738 -0.080264
C140  C     C_3   0.608390 0.034997 0.621833 -0.080326
C141  C     C_3   0.464959 0.890377 0.879290 -0.080493
C142  C     C_3   0.890365 0.535175 0.879373 -0.080453
C143  C     C_3   0.535359 0.109648 0.879492 -0.080420
C144  C     C_3   0.109616 0.465145 0.879168 -0.080557
C145  C     C_3   0.464572 0.108417 0.121555 -0.080183
C146  C     C_R   0.027212 0.327547 0.533070 0.226504
C147  C     C_3   0.891592 0.464762 0.121682 -0.080261
C148  C     C_3   0.535103 0.891601 0.121760 -0.080278
C149  C     C_3   0.108385 0.534916 0.121886 -0.080325
C150  C     C_R   0.672449 0.027175 0.533150 0.226504
C151  C     C_R   0.473846 0.827010 0.968815 0.229654
C152  C     C_R   0.827007 0.526189 0.968884 0.229646
C153  C     C_R   0.526242 0.172995 0.968979 0.229641
C154  C     C_R   0.172988 0.473897 0.968726 0.229659
C155  C     C_R   0.472715 0.172459 0.032926 0.226488
C156  C     C_R   0.999986 0.572197 0.500117 0.584543
C157  C     C_R   0.827545 0.472762 0.033027 0.226493
C158  C     C_R   0.527201 0.827548 0.033092 0.226491
C159  C     C_R   0.172447 0.527155 0.033187 0.226502
C160  C     C_R   0.974455 0.366381 0.466816 0.211300
C161  C     C_R   0.366383 0.025506 0.466750 0.211274
C162  C     C_R   0.025447 0.633614 0.466649 0.211236
C163  C     C_R   0.633618 0.974498 0.466747 0.211263
C164  C     C_R   0.974055 0.633087 0.534747 0.213011
C165  C     C_R   0.366908 0.973995 0.534643 0.212990
C166  C     C_R   0.026042 0.366904 0.534576 0.212984
C167  C     C_R   0.572198 0.000014 0.500118 0.584424
C168  C     C_R   0.633091 0.026002 0.534651 0.212989
C169  C     C_R   0.474466 0.866381 0.966797 0.211257
C170  C     C_R   0.866379 0.525570 0.966861 0.211251
C171  C     C_R   0.525624 0.133624 0.966952 0.211246
C172  C     C_R   0.133616 0.474520 0.966706 0.211261
C173  C     C_R   0.473879 0.133102 0.034438 0.212974
C174  C     C_R   0.866903 0.473931 0.034534 0.212971
C175  C     C_R   0.526032 0.866905 0.034594 0.212982
C176  C     C_R   0.133089 0.525979 0.034690 0.212986
C177  C     C_R   0.000128 0.386495 0.500537 -0.065634
C178  C     C_R   0.500014 0.927802 0.000117 0.584360
C179  C     C_R   0.386497 0.999872 0.500538 -0.065586
C180  C     C_R   0.999873 0.613501 0.500539 -0.065518
C181  C     C_R   0.613503 0.000128 0.500540 -0.065575
C182  C     C_R   0.500128 0.886495 0.000537 -0.065607
C183  C     C_R   0.886494 0.499872 0.000539 -0.065629
C184  C     C_R   0.499873 0.113509 0.000536 -0.065691
C185  C     C_R   0.113502 0.500128 0.000539 -0.065552
C186  C     C_R   0.000677 0.307720 0.501058 -0.054479
C187  C     C_R   0.307722 0.999321 0.501058 -0.054446
C188  C     C_R   0.999324 0.692274 0.501066 -0.054413
C189  C     C_R   0.927801 0.499986 0.000118 0.584285
C190  C     C_R   0.692278 0.000679 0.501065 -0.054433
C191  C     C_R   0.500676 0.807720 0.001060 -0.054441
C192  C     C_R   0.807718 0.499323 0.001062 -0.054439
C193  C     C_R   0.499328 0.192285 0.001060 -0.054463
C194  C     C_R   0.192276 0.500679 0.001063 -0.054411
C195  C     C_R   0.927597 0.999799 0.499994 0.545167
C196  C     C_R   0.999799 0.072403 0.499993 0.545172
C197  C     C_R   0.072403 0.000200 0.499993 0.545170
C198  C     C_R   0.000200 0.927597 0.499994 0.545161
C199  C     C_R   0.427597 0.499800 0.999994 0.545166
C200  C     C_R   0.499986 0.072199 0.000117 0.584171
C201  C     C_R   0.499799 0.572403 0.999993 0.545169
C202  C     C_R   0.572403 0.500200 0.999993 0.545174
C203  C     C_R   0.500201 0.427598 0.999994 0.545180
C204  C     C_R   1.000000 0.500000 0.608191 0.532600
C205  C     C_R   0.500000 1.000000 0.608191 0.532594
C206  C     C_R   0.000000 0.500000 0.391808 0.532961
C207  C     C_R   0.500000 0.000000 0.391808 0.532953
C208  C     C_R   0.500000 0.000000 0.108191 0.532516
C209  C     C_R   1.000000 0.500000 0.108191 0.532574
C210  C     C_R   0.500000 1.000000 0.891808 0.532883
C211  C     C_R   0.072197 0.500014 0.000117 0.584476
C212  C     C_R   0.000000 0.500000 0.891808 0.532935
C213  C     C_1   1.000000 0.500001 0.669012 -0.036568
C214  C     C_1   0.500000 0.999999 0.669012 -0.036564
C215  C     C_1   0.000000 0.500000 0.330987 -0.035765
C216  C     C_1   0.500000 0.000000 0.330987 -0.035764
C217  C     C_1   0.500000 0.000000 0.169012 -0.036535
C218  C     C_1   0.000001 0.499999 0.169012 -0.036555
C219  C     C_1   0.500000 0.999999 0.830987 -0.035737
C220  C     C_1   0.000000 0.500001 0.830987 -0.035754
C221  C     C_1   1.000000 0.500001 0.720075 -0.054229
C222  C     C_1   0.000872 0.267423 0.501472 0.056218
C223  C     C_1   0.500000 0.999999 0.720075 -0.054222
C224  C     C_1   0.000001 0.500000 0.279923 -0.053857
C225  C     C_1   0.499999 0.000000 0.279923 -0.053849
C226  C     C_1   0.499999 0.000000 0.220075 -0.054189
C227  C     C_1   0.000001 0.500000 0.220075 -0.054217
C228  C     C_1   0.500001 0.999999 0.779923 -0.053820
C229  C     C_1   0.000000 0.500001 0.779923 -0.053844
C230  C     C_R   0.980767 0.174469 0.459383 0.239867
C231  C     C_R   0.174470 0.019242 0.459395 0.239874
C232  C     C_R   0.019245 0.825528 0.459402 0.239873
Cu1   Cu    Cu3+1 0.037270 0.500000 0.500000 0.985309
Cu2   Cu    Cu3+1 1.000000 0.000000 0.444220 0.859152
Cu3   Cu    Cu3+1 0.500000 0.500000 0.055780 0.851951
Cu4   Cu    Cu3+1 0.500000 0.500000 0.944220 0.859143
Cu5   Cu    Cu3+1 0.500000 0.962730 0.500000 0.985310
Cu6   Cu    Cu3+1 0.962730 0.500000 0.500000 0.985326
Cu7   Cu    Cu3+1 0.500000 0.037270 0.500000 0.985318
Cu8   Cu    Cu3+1 0.537270 0.000000 0.000000 0.985349
Cu9   Cu    Cu3+1 1.000000 0.462730 0.000000 0.985328
Cu10  Cu    Cu3+1 0.462730 0.000000 0.000000 0.985347
Cu11  Cu    Cu3+1 0.000000 0.537270 0.000000 0.985329
Cu12  Cu    Cu3+1 0.000000 0.000000 0.555780 0.851954
H1    H     H_    0.968869 0.217993 0.340909 0.153562
H2    H     H_    0.782001 0.968830 0.340939 0.153589
H3    H     H_    0.596862 0.379294 0.969596 0.155616
H4    H     H_    0.600666 0.412630 0.912450 0.130655
H5    H     H_    0.557769 0.363990 0.884743 0.180237
H6    H     H_    0.531991 0.405265 0.891550 0.156463
H7    H     H_    0.423987 0.426592 0.973738 0.158315
H8    H     H_    0.379288 0.403137 0.969641 0.155613
H9    H     H_    0.412622 0.399321 0.912495 0.130644
H10   H     H_    0.363985 0.442216 0.884769 0.180216
H11   H     H_    0.405261 0.467994 0.891568 0.156463
H12   H     H_    0.498241 0.404421 0.135743 0.165383
H13   H     H_    0.823781 0.995385 0.353792 0.092592
H14   H     H_    0.452120 0.412757 0.164221 0.121226
H15   H     H_    0.471079 0.366247 0.164373 0.151452
H16   H     H_    0.441884 0.412863 0.064590 0.141462
H17   H     H_    0.425846 0.369128 0.087577 0.172332
H18   H     H_    0.595576 0.498218 0.135740 0.165390
H19   H     H_    0.587246 0.452094 0.164209 0.121217
H20   H     H_    0.633754 0.471057 0.164354 0.151456
H21   H     H_    0.587131 0.441875 0.064571 0.141459
H22   H     H_    0.630864 0.425827 0.087549 0.172327
H23   H     H_    0.501773 0.595575 0.135738 0.165393
H24   H     H_    0.779496 0.008975 0.386233 0.123599
H25   H     H_    0.547895 0.587251 0.164216 0.121219
H26   H     H_    0.528927 0.633757 0.164354 0.151453
H27   H     H_    0.558121 0.587133 0.064578 0.141464
H28   H     H_    0.574166 0.630866 0.087558 0.172328
H29   H     H_    0.404422 0.501787 0.135740 0.165394
H30   H     H_    0.412746 0.547912 0.164208 0.121218
H31   H     H_    0.366239 0.528944 0.164348 0.151456
H32   H     H_    0.412869 0.558125 0.064567 0.141462
H33   H     H_    0.369135 0.574177 0.087542 0.172322
H34   H     H_    0.902120 0.329929 0.477368 0.145278
H35   H     H_    0.968231 0.789917 0.666435 0.139732
H36   H     H_    0.920426 0.286166 0.506363 0.103437
H37   H     H_    0.895182 0.286464 0.440852 0.147837
H38   H     H_    0.329966 0.097882 0.476961 0.145439
H39   H     H_    0.286261 0.079604 0.506196 0.103406
H40   H     H_    0.286435 0.104733 0.440584 0.147838
H41   H     H_    0.097861 0.669986 0.476404 0.145596
H42   H     H_    0.079658 0.713655 0.505870 0.103431
H43   H     H_    0.104619 0.713562 0.440111 0.147834
H44   H     H_    0.670021 0.902115 0.476868 0.145494
H45   H     H_    0.713718 0.920376 0.506157 0.103399
H46   H     H_    0.008031 0.813061 0.636310 0.091066
H47   H     H_    0.713564 0.895281 0.440516 0.147833
H48   H     H_    0.901167 0.668670 0.525363 0.147415
H49   H     H_    0.918820 0.712828 0.496806 0.103605
H50   H     H_    0.893848 0.711827 0.562539 0.146525
H51   H     H_    0.331359 0.901111 0.525028 0.147490
H52   H     H_    0.287224 0.918802 0.496446 0.103510
H53   H     H_    0.288172 0.893733 0.562097 0.146498
H54   H     H_    0.098902 0.331349 0.524726 0.147430
H55   H     H_    0.081188 0.287192 0.496255 0.103492
H56   H     H_    0.106341 0.288187 0.561832 0.146490
H57   H     H_    0.995471 0.765816 0.614624 0.145808
H58   H     H_    0.668647 0.098882 0.525010 0.147456
H59   H     H_    0.712790 0.081189 0.496458 0.103517
H60   H     H_    0.711826 0.106265 0.562101 0.146501
H61   H     H_    0.402092 0.829984 0.977091 0.145493
H62   H     H_    0.420382 0.786289 0.006344 0.103340
H63   H     H_    0.395217 0.786439 0.940764 0.147822
H64   H     H_    0.829992 0.597937 0.977321 0.145518
H65   H     H_    0.786301 0.579618 0.006553 0.103281
H66   H     H_    0.786439 0.604851 0.941030 0.147811
H67   H     H_    0.597978 0.169997 0.977670 0.145531
H68   H     H_    0.210066 0.968202 0.666418 0.139699
H69   H     H_    0.579618 0.213681 0.006858 0.103188
H70   H     H_    0.604955 0.213557 0.941427 0.147790
H71   H     H_    0.170012 0.402128 0.976725 0.145510
H72   H     H_    0.213710 0.420366 0.006048 0.103435
H73   H     H_    0.213558 0.395316 0.940370 0.147842
H74   H     H_    0.401046 0.168667 0.024152 0.147401
H75   H     H_    0.418846 0.212818 0.995786 0.103372
H76   H     H_    0.393516 0.211832 0.061208 0.146468
H77   H     H_    0.831364 0.401064 0.024603 0.147504
H78   H     H_    0.787237 0.418812 0.996072 0.103415
H79   H     H_    0.186978 0.008025 0.636266 0.091038
H80   H     H_    0.788167 0.393614 0.061612 0.146477
H81   H     H_    0.598898 0.831349 0.024808 0.147451
H82   H     H_    0.581186 0.787200 0.996306 0.103491
H83   H     H_    0.606318 0.788178 0.061900 0.146491
H84   H     H_    0.168635 0.598869 0.025191 0.147492
H85   H     H_    0.212779 0.581207 0.996593 0.103547
H86   H     H_    0.211816 0.606224 0.062287 0.146509
H87   H     H_    0.970906 0.363109 0.358366 0.142780
H88   H     H_    0.990839 0.407634 0.381686 0.096842
H89   H     H_    0.944585 0.405716 0.352448 0.141153
H90   H     H_    0.234214 0.995406 0.614612 0.145780
H91   H     H_    0.363115 0.028927 0.358292 0.142775
H92   H     H_    0.407642 0.009025 0.381669 0.096865
H93   H     H_    0.405721 0.055244 0.352305 0.141147
H94   H     H_    0.028666 0.636876 0.358177 0.142803
H95   H     H_    0.008808 0.592350 0.381643 0.096892
H96   H     H_    0.054973 0.594271 0.352084 0.141182
H97   H     H_    0.636887 0.971094 0.358285 0.142799
H98   H     H_    0.592361 0.990995 0.381668 0.096876
H99   H     H_    0.594281 0.944780 0.352291 0.141165
H100  H     H_    0.970966 0.635558 0.643294 0.141874
H101  H     H_    0.031742 0.210079 0.666436 0.139724
H102  H     H_    0.991335 0.591458 0.619018 0.096520
H103  H     H_    0.945203 0.592583 0.648782 0.141337
H104  H     H_    0.364418 0.970717 0.643177 0.141871
H105  H     H_    0.408521 0.991132 0.618997 0.096529
H106  H     H_    0.407395 0.944948 0.648578 0.141336
H107  H     H_    0.029440 0.364406 0.643101 0.141879
H108  H     H_    0.008998 0.408511 0.618982 0.096523
H109  H     H_    0.055215 0.407381 0.648445 0.141338
H110  H     H_    0.635580 0.029281 0.643187 0.141871
H111  H     H_    0.591479 0.008861 0.619008 0.096523
H112  H     H_    0.995418 0.176212 0.353782 0.092607
H113  H     H_    0.991950 0.186928 0.636299 0.091053
H114  H     H_    0.592602 0.055046 0.648587 0.141319
H115  H     H_    0.470962 0.863109 0.858345 0.142787
H116  H     H_    0.490885 0.907635 0.881682 0.096866
H117  H     H_    0.444643 0.905716 0.852400 0.141171
H118  H     H_    0.863094 0.529199 0.858418 0.142803
H119  H     H_    0.907621 0.509244 0.881694 0.096866
H120  H     H_    0.905704 0.555520 0.852532 0.141174
H121  H     H_    0.529417 0.136922 0.858524 0.142788
H122  H     H_    0.509422 0.092396 0.881721 0.096862
H123  H     H_    0.555741 0.094310 0.852716 0.141155
H124  H     H_    0.004504 0.234176 0.614616 0.145577
H125  H     H_    0.136882 0.471181 0.858237 0.142786
H126  H     H_    0.092355 0.491066 0.881650 0.096874
H127  H     H_    0.094276 0.444868 0.852212 0.141169
H128  H     H_    0.470213 0.135612 0.142942 0.141870
H129  H     H_    0.490717 0.091506 0.118947 0.096506
H130  H     H_    0.444428 0.092634 0.148153 0.141324
H131  H     H_    0.864398 0.470435 0.143054 0.141874
H132  H     H_    0.908502 0.490904 0.118979 0.096519
H133  H     H_    0.907377 0.444660 0.148349 0.141324
H134  H     H_    0.529404 0.864409 0.143122 0.141881
H135  H     H_    0.789905 0.031783 0.666423 0.139750
H136  H     H_    0.508965 0.908512 0.118988 0.096518
H137  H     H_    0.555175 0.907387 0.148477 0.141339
H138  H     H_    0.135574 0.529184 0.143233 0.141885
H139  H     H_    0.091472 0.508784 0.119022 0.096530
H140  H     H_    0.092598 0.554949 0.148668 0.141358
H141  H     H_    0.813089 0.991994 0.636337 0.091069
H142  H     H_    0.765839 0.004508 0.614617 0.145623
H143  H     H_    0.468849 0.717999 0.840924 0.153570
H144  H     H_    0.495402 0.676218 0.853785 0.092597
H145  H     H_    0.508989 0.720503 0.886229 0.123550
H146  H     H_    0.717994 0.531153 0.840923 0.153555
H147  H     H_    0.676212 0.504602 0.853788 0.092605
H148  H     H_    0.009005 0.220499 0.386224 0.123531
H149  H     H_    0.720499 0.491012 0.886227 0.123509
H150  H     H_    0.531129 0.282018 0.840907 0.153526
H151  H     H_    0.504582 0.323799 0.853790 0.092614
H152  H     H_    0.490996 0.279510 0.886228 0.123425
H153  H     H_    0.282002 0.468822 0.840940 0.153592
H154  H     H_    0.323780 0.495381 0.853793 0.092584
H155  H     H_    0.279492 0.508969 0.886231 0.123629
H156  H     H_    0.468278 0.289909 0.166447 0.139730
H157  H     H_    0.508057 0.313092 0.136325 0.091065
H158  H     H_    0.495537 0.265840 0.114621 0.145353
H159  H     H_    0.217991 0.031180 0.340927 0.153574
H160  H     H_    0.710076 0.468235 0.166433 0.139718
H161  H     H_    0.686926 0.508031 0.136307 0.091056
H162  H     H_    0.734173 0.495480 0.114620 0.145529
H163  H     H_    0.531763 0.710080 0.166429 0.139721
H164  H     H_    0.491965 0.686934 0.136303 0.091054
H165  H     H_    0.504522 0.734179 0.114616 0.145617
H166  H     H_    0.289920 0.531790 0.166424 0.139726
H167  H     H_    0.313059 0.491984 0.136306 0.091060
H168  H     H_    0.265815 0.504547 0.114619 0.145749
H169  H     H_    0.926597 0.076008 0.473694 0.158328
H170  H     H_    0.176219 0.004614 0.353792 0.092587
H171  H     H_    0.903146 0.120709 0.469598 0.155604
H172  H     H_    0.899337 0.087381 0.412444 0.130655
H173  H     H_    0.942238 0.136015 0.384739 0.180232
H174  H     H_    0.968015 0.094739 0.391546 0.156462
H175  H     H_    0.076014 0.073408 0.473737 0.158312
H176  H     H_    0.120713 0.096862 0.469640 0.155614
H177  H     H_    0.087379 0.100681 0.412495 0.130650
H178  H     H_    0.136014 0.057785 0.384766 0.180223
H179  H     H_    0.094737 0.032008 0.391567 0.156463
H180  H     H_    0.073407 0.923989 0.473722 0.158320
H181  H     H_    0.220512 0.991034 0.386221 0.123606
H182  H     H_    0.096862 0.879290 0.469627 0.155613
H183  H     H_    0.100675 0.912622 0.412476 0.130652
H184  H     H_    0.057779 0.863984 0.384761 0.180215
H185  H     H_    0.032000 0.905260 0.391563 0.156465
H186  H     H_    0.923990 0.926593 0.473728 0.158319
H187  H     H_    0.879290 0.903139 0.469639 0.155606
H188  H     H_    0.912620 0.899322 0.412487 0.130655
H189  H     H_    0.863984 0.942218 0.384766 0.180223
H190  H     H_    0.905261 0.967997 0.391565 0.156464
H191  H     H_    0.998227 0.904422 0.635740 0.165396
H192  H     H_    0.031174 0.782000 0.340940 0.153609
H193  H     H_    0.952105 0.912745 0.664220 0.121221
H194  H     H_    0.971073 0.866240 0.664357 0.151455
H195  H     H_    0.941880 0.912865 0.564582 0.141463
H196  H     H_    0.925834 0.869132 0.587563 0.172320
H197  H     H_    0.095567 0.998218 0.635737 0.165405
H198  H     H_    0.087273 0.952094 0.664231 0.121216
H199  H     H_    0.133770 0.971085 0.664335 0.151467
H200  H     H_    0.087129 0.941878 0.564581 0.141470
H201  H     H_    0.130863 0.925827 0.587555 0.172342
H202  H     H_    0.001758 0.095578 0.635737 0.165389
H203  H     H_    0.004614 0.823777 0.353797 0.092576
H204  H     H_    0.047877 0.087248 0.664224 0.121224
H205  H     H_    0.028913 0.133756 0.664362 0.151448
H206  H     H_    0.058116 0.087134 0.564591 0.141466
H207  H     H_    0.074157 0.130868 0.587576 0.172330
H208  H     H_    0.904416 0.001790 0.635741 0.165386
H209  H     H_    0.912762 0.047916 0.664190 0.121223
H210  H     H_    0.866249 0.028967 0.664357 0.151448
H211  H     H_    0.912868 0.058129 0.564556 0.141453
H212  H     H_    0.869135 0.074180 0.587533 0.172315
H213  H     H_    0.426595 0.576009 0.973707 0.158323
H214  H     H_    0.991030 0.779489 0.386238 0.123668
H215  H     H_    0.403142 0.620709 0.969612 0.155611
H216  H     H_    0.399331 0.587380 0.912459 0.130655
H217  H     H_    0.442230 0.636015 0.884749 0.180227
H218  H     H_    0.468008 0.594739 0.891553 0.156462
H219  H     H_    0.576011 0.573406 0.973720 0.158318
H220  H     H_    0.620710 0.596860 0.969623 0.155614
H221  H     H_    0.587379 0.600674 0.912474 0.130653
H222  H     H_    0.636015 0.557777 0.884756 0.180230
H223  H     H_    0.594738 0.531999 0.891558 0.156462
H224  H     H_    0.573406 0.423991 0.973707 0.158321
O1    O     O_R   0.031480 0.445630 0.499980 -0.475578
O2    O     O_R   0.945630 0.468520 0.999980 -0.475533
O3    O     O_R   0.468520 0.054370 0.999980 -0.475447
O4    O     O_R   0.054370 0.531480 0.999980 -0.475668
O5    O     O_R   0.531480 0.054370 0.000020 -0.475660
O6    O     O_R   0.945630 0.531480 0.000020 -0.475744
O7    O     O_R   0.468520 0.945630 0.000020 -0.475792
O8    O     O_R   0.054370 0.468520 0.000020 -0.475875
O9    O     O_R   0.031480 0.500000 0.581380 -0.505557
O10   O     O_R   0.500000 0.968520 0.581380 -0.505481
O11   O     O_R   0.968520 0.500000 0.581380 -0.505387
O12   O     O_R   0.445630 0.968520 0.499980 -0.475635
O13   O     O_R   0.500000 0.031480 0.581380 -0.505473
O14   O     O_R   0.031480 0.500000 0.418620 -0.505633
O15   O     O_R   0.500000 0.031480 0.418620 -0.505722
O16   O     O_R   0.968520 0.500000 0.418620 -0.505798
O17   O     O_R   0.500000 0.968520 0.418620 -0.505719
O18   O     O_R   0.531480 0.000000 0.081380 -0.505444
O19   O     O_R   0.000000 0.468520 0.081380 -0.505565
O20   O     O_R   0.468520 0.000000 0.081380 -0.505600
O21   O     O_R   1.000000 0.531480 0.081380 -0.505413
O22   O     O_R   0.531480 0.000000 0.918620 -0.505834
O23   O     O_R   0.968520 0.554370 0.499980 -0.475722
O24   O     O_R   0.000000 0.531480 0.918620 -0.505807
O25   O     O_R   0.468520 0.000000 0.918620 -0.505687
O26   O     O_R   0.000000 0.468520 0.918620 -0.505656
O27   O     O_R   0.945750 0.999990 0.547080 -0.508251
O28   O     O_R   0.999990 0.054250 0.547080 -0.508263
O29   O     O_R   0.054250 0.000010 0.547080 -0.508270
O30   O     O_R   0.000010 0.945750 0.547080 -0.508260
O31   O     O_R   0.945750 0.000010 0.452920 -0.509382
O32   O     O_R   0.999990 0.945750 0.452920 -0.509375
O33   O     O_R   0.054250 0.999990 0.452920 -0.509375
O34   O     O_R   0.554370 0.031480 0.499980 -0.475635
O35   O     O_R   0.000010 0.054250 0.452920 -0.509377
O36   O     O_R   0.445750 0.499990 0.047080 -0.508258
O37   O     O_R   0.499990 0.554250 0.047080 -0.508262
O38   O     O_R   0.554250 0.500010 0.047080 -0.508261
O39   O     O_R   0.500010 0.445750 0.047080 -0.508260
O40   O     O_R   0.445750 0.500010 0.952920 -0.509379
O41   O     O_R   0.499990 0.445750 0.952920 -0.509379
O42   O     O_R   0.554250 0.499990 0.952920 -0.509381
O43   O     O_R   0.500010 0.554250 0.952920 -0.509378
O44   O     O_3   0.961060 0.195108 0.419687 -0.561972
O45   O     O_R   0.031480 0.554370 0.500020 -0.475931
O46   O     O_3   0.195108 0.038962 0.419713 -0.562007
O47   O     O_3   0.038963 0.804890 0.419718 -0.562057
O48   O     O_3   0.804891 0.961040 0.419717 -0.562013
O49   O     O_3   0.959799 0.807504 0.584736 -0.563977
O50   O     O_3   0.192494 0.959778 0.584711 -0.563921
O51   O     O_3   0.040189 0.192494 0.584741 -0.563857
O52   O     O_3   0.807507 0.040207 0.584730 -0.563902
O53   O     O_3   0.461049 0.695108 0.919701 -0.561971
O54   O     O_3   0.695108 0.538952 0.919703 -0.561932
O55   O     O_3   0.538943 0.304896 0.919687 -0.561865
O56   O     O_R   0.445630 0.031480 0.500020 -0.475840
O57   O     O_3   0.304891 0.461036 0.919720 -0.562031
O58   O     O_3   0.459827 0.307506 0.084757 -0.563771
O59   O     O_3   0.692491 0.459799 0.084734 -0.563831
O60   O     O_3   0.540199 0.692493 0.084732 -0.563878
O61   O     O_3   0.307506 0.540213 0.084723 -0.563934
O62   O     O_3   0.948612 0.307382 0.435802 -0.538414
O63   O     O_3   0.307380 0.051309 0.435664 -0.538491
O64   O     O_3   0.051183 0.692621 0.435443 -0.538591
O65   O     O_3   0.692623 0.948708 0.435643 -0.538519
O66   O     O_3   0.947546 0.691531 0.566813 -0.545025
O67   O     O_R   0.968520 0.445630 0.500020 -0.475784
O68   O     O_3   0.308461 0.947426 0.566591 -0.544977
O69   O     O_3   0.052646 0.308458 0.566454 -0.544876
O70   O     O_3   0.691536 0.052572 0.566599 -0.544938
O71   O     O_3   0.448640 0.807378 0.935756 -0.538467
O72   O     O_3   0.807375 0.551432 0.935890 -0.538432
O73   O     O_3   0.551541 0.192628 0.936082 -0.538363
O74   O     O_3   0.192622 0.448747 0.935573 -0.538547
O75   O     O_3   0.447195 0.191548 0.066160 -0.544737
O76   O     O_3   0.808456 0.447298 0.066358 -0.544859
O77   O     O_3   0.552625 0.808459 0.066494 -0.544910
O78   O     O_R   0.554370 0.968520 0.500020 -0.475847
O79   O     O_3   0.191536 0.552525 0.066680 -0.544998
O80   O     O_3   0.948865 0.385093 0.433211 -0.533020
O81   O     O_3   0.385097 0.051057 0.433079 -0.533110
O82   O     O_3   0.050935 0.614898 0.432872 -0.533234
O83   O     O_3   0.614905 0.948953 0.433065 -0.533150
O84   O     O_3   0.948838 0.613855 0.568329 -0.532246
O85   O     O_3   0.386136 0.948721 0.568132 -0.532243
O86   O     O_3   0.051353 0.386131 0.568004 -0.532204
O87   O     O_3   0.613861 0.051274 0.568141 -0.532231
O88   O     O_3   0.448891 0.885094 0.933168 -0.533118
O89   O     O_R   0.531480 0.945630 0.999980 -0.475581
O90   O     O_3   0.885090 0.551182 0.933293 -0.533106
O91   O     O_3   0.551285 0.114914 0.933468 -0.533067
O92   O     O_3   0.114902 0.448996 0.932990 -0.533167
O93   O     O_3   0.448487 0.113878 0.067729 -0.532129
O94   O     O_3   0.886129 0.448592 0.067914 -0.532207
O95   O     O_3   0.551334 0.886133 0.068036 -0.532213
O96   O     O_3   0.113858 0.551228 0.068218 -0.532268

loop_
_geom_bond_atom_site_label_1
_geom_bond_atom_site_label_2
_ccdc_geom_bond_type
C159  C194  A    
Cu8   O5    S    
C52   C222  T    
C136  O83   S    
C63   O47   S    
C29   C42   A    
C8    C26   A    
C126  H70   S    
C136  H99   S    
C131  H84   S    
C7    O52   S    
C114  H30   S    
C203  O39   A    
C50   C59   S    
C207  O15   A    
C201  O37   A    
C204  O11   A    
C1    O1    A    
C19   C83   S    
C57   C59   T    
Cu1   O1    S    
C15   O60   S    
Cu3   O36   S    
C38   C195  S    
C99   H221  S    
C91   H199  S    
C19   C37   A    
C149  H138  S    
C96   H218  S    
C44   C53   S    
C129  O76   S    
C65   O49   S    
C145  H128  S    
C97   H213  S    
C8    O53   S    
C107  H21   S    
C118  O65   S    
C67   O51   S    
C108  H18   S    
C33   C111  S    
C101  C188  A    
C9    O54   S    
C143  H121  S    
C217  C226  T    
C144  H125  S    
C73   O57   S    
Cu1   O14   S    
C119  H50   S    
C102  H224  S    
C96   H217  S    
C75   O59   S    
C95   H210  S    
C183  C189  S    
C110  H23   S    
Cu7   O56   S    
C94   H212  S    
C137  H100  S    
C32   C109  S    
C72   H152  S    
C129  H80   S    
C36   C197  S    
C85   H189  S    
C79   C160  A    
C140  H111  S    
C212  C220  S    
C158  O77   S    
Cu4   O42   S    
C232  O47   S    
C212  O26   A    
C64   O48   S    
C61   H148  S    
C133  H91   S    
C130  H81   S    
C152  C170  A    
C174  O94   S    
C148  H134  S    
C17   C230  A    
C92   H207  S    
C150  C168  A    
C20   C85   S    
C71   H146  S    
C121  H54   S    
C166  C177  A    
C73   H153  S    
C178  C182  S    
C40   C202  S    
C205  C214  S    
C1    O67   A    
C122  H60   S    
C118  H47   S    
C80   H172  S    
C17   C34   A    
C125  H65   S    
C67   H101  S    
C110  H26   S    
C13   C54   T    
C208  C217  S    
C112  O56   A    
C42   C199  S    
C89   H201  S    
C122  H58   S    
C31   C107  S    
C149  O96   S    
Cu5   O10   S    
C69   H142  S    
C2    C53   T    
C7    C25   A    
C70   H145  S    
C81   H178  S    
C62   H170  S    
C133  O81   S    
C22   C36   A    
C62   O46   S    
Cu2   O31   S    
C62   H159  S    
C123  O71   S    
C125  H64   S    
C83   H185  S    
Cu8   O89   S    
C91   H197  S    
C109  H27   S    
C149  H140  S    
C156  C180  S    
Cu12  O27   S    
C145  H130  S    
C97   H215  S    
C204  C213  S    
C207  C216  S    
C22   C89   S    
C108  H20   S    
C148  O95   S    
C66   H90   S    
C231  O46   S    
C169  C182  A    
C104  H9    S    
C144  H127  S    
C64   H2    S    
C139  O86   S    
C152  C192  A    
C168  C181  A    
C103  H10   S    
C14   O59   S    
C147  H133  S    
C116  H39   S    
C24   C190  S    
C134  H95   S    
C198  O32   A    
C109  C110  S    
C168  O87   S    
C114  H29   S    
Cu2   Cu12  S    
C115  H36   S    
C127  H71   S    
Cu11  O6    S    
C104  H8    S    
C77   H166  S    
C163  C181  A    
C127  O74   S    
C16   C51   A    
C14   C31   A    
C139  H109  S    
C83   H184  S    
C43   C230  A    
C85   C86   S    
C189  O6    A    
C138  O85   S    
C113  C190  A    
C122  O70   S    
C220  C229  T    
C33   C42   A    
C111  H33   S    
C78   H174  S    
C61   O44   S    
C136  H98   S    
C196  O35   A    
C206  O16   A    
C131  H85   S    
C78   C80   S    
C43   C52   S    
C148  H136  S    
C113  O65   S    
C121  H56   S    
C20   C38   A    
C70   O53   S    
C73   H155  S    
C62   H181  S    
C74   H156  S    
C2    C187  S    
C17   C78   S    
C195  O31   A    
C74   H158  S    
C137  O84   S    
C173  C184  A    
C16   O61   S    
C184  C200  S    
C139  H108  S    
C107  C108  S    
C185  C211  S    
C118  H45   S    
C219  C228  T    
C89   C91   S    
C27   C40   A    
C162  C180  A    
C173  O93   S    
C157  C174  A    
C84   H183  S    
C46   C58   T    
C115  O62   S    
C88   H193  S    
Cu5   O12   S    
C15   C48   A    
C63   H203  S    
C130  O77   S    
C135  C187  A    
C70   H143  S    
C225  C226  S    
C86   H188  S    
C4    C45   A    
C210  O22   A    
C26   C96   S    
C169  O88   S    
C93   H205  S    
C221  C229  S    
C189  O2    A    
C138  H104  S    
C106  H12   S    
Cu11  O21   S    
C9    C49   A    
C120  H52   S    
C100  H5    S    
C124  C188  A    
C204  O9    A    
C66   H68   S    
Cu12  O29   S    
C132  H87   S    
C65   H57   S    
C111  H32   S    
C210  C219  S    
C208  O18   A    
C129  H77   S    
C210  O25   A    
C25   C38   A    
C113  C163  A    
C140  H110  S    
C83   C84   S    
Cu3   O39   S    
C172  C185  A    
C23   C34   A    
Cu7   O15   S    
C147  H131  S    
C93   H202  S    
C198  O30   A    
C98   H222  S    
C178  O89   A    
C115  H34   S    
Cu11  O4    S    
C98   C99   S    
C105  H16   S    
C128  H74   S    
Cu5   O78   S    
C175  C182  A    
C77   H168  S    
C71   H147  S    
C106  H15   S    
C165  C179  A    
C120  O68   S    
C82   H175  S    
C69   H135  S    
C75   H162  S    
C117  H41   S    
C167  O34   A    
C76   H165  S    
C200  O3    A    
C64   H13   S    
C141  H117  S    
C209  O19   A    
C35   C191  S    
C138  H105  S    
C35   C56   T    
C102  H3    S    
C172  O92   S    
C4    O49   S    
C15   C32   A    
C206  O14   A    
C12   C50   A    
C101  O64   S    
C6    O51   S    
C133  H93   S    
C92   H206  S    
C151  C169  A    
C159  C176  A    
C144  O92   S    
C30   C105  S    
C141  H116  S    
C121  O69   S    
C3    C47   A    
C166  O86   S    
C120  H53   S    
C214  C223  T    
C77   O61   S    
C158  C175  A    
C153  C193  A    
C87   H196  S    
C23   C92   S    
C207  O17   A    
C68   C194  S    
C51   C60   S    
C156  O23   A    
C76   H163  S    
C104  H7    S    
C201  O43   A    
C72   O55   S    
C86   H186  S    
C144  H126  S    
C206  C215  S    
C65   H46   S    
C87   C88   S    
C134  O82   S    
C84   H180  S    
C79   C186  A    
C151  O71   S    
Cu2   O35   S    
C103  H11   S    
C119  H49   S    
C116  H38   S    
C125  O72   S    
C95   H209  S    
C215  C224  T    
C137  H103  S    
C132  H89   S    
C115  H37   S    
Cu9   O2    S    
C208  O20   A    
C123  H62   S    
Cu6   O11   S    
C101  C162  A    
C202  O38   A    
C44   C231  A    
C71   O54   S    
C18   C231  A    
Cu10  O25   S    
C26   C39   A    
C90   C187  A    
Cu3   O37   S    
Cu7   O13   S    
C28   C41   A    
C164  O84   S    
C31   C40   A    
C21   C37   A    
C196  O28   A    
C93   H204  S    
C145  O93   S    
C69   O52   S    
C130  H82   S    
C213  C221  T    
C128  O75   S    
C128  H76   S    
C114  H31   S    
Cu3   Cu4   S    
C45   C232  A    
C75   H160  S    
C117  H43   S    
C19   C232  A    
C118  H44   S    
C164  C180  A    
C131  O79   S    
C186  C222  S    
C25   C94   S    
C80   H169  S    
C76   O60   S    
C197  O33   A    
Cu9   O26   S    
C61   H1    S    
C148  H137  S    
C154  O74   S    
C157  O76   S    
C122  H59   S    
C171  C184  A    
Cu6   O23   S    
C176  C185  A    
C64   H24   S    
C142  O90   S    
C162  O82   S    
C152  O72   S    
Cu2   O32   S    
C7    C47   A    
C119  H48   S    
Cu1   Cu6   S    
C8    C48   A    
C95   H208  S    
C63   H214  S    
C149  H139  S    
C67   H124  S    
C145  H129  S    
C119  O66   S    
C142  H120  S    
C135  C165  A    
C3    C20   A    
C71   H149  S    
Cu6   O16   S    
C211  O8    A    
C143  H122  S    
C90   O63   S    
Cu7   O34   S    
Cu1   O9    S    
C69   H141  S    
C5    C44   A    
C12   O58   S    
C84   H182  S    
C6    C43   A    
C39   C201  S    
Cu2   O33   S    
C165  O85   S    
C116  H40   S    
C134  H96   S    
C3    O48   S    
C10   C50   A    
C224  C227  S    
C218  C227  T    
C9    C27   A    
Cu1   O45   S    
C94   H211  S    
C10   C28   A    
C12   C30   A    
C146  C186  A    
C72   H151  S    
C46   C192  S    
C85   H190  S    
C174  C183  A    
C132  O80   S    
C140  H114  S    
C28   C100  S    
Cu4   O41   S    
C109  H28   S    
C105  C106  S    
C216  C225  T    
Cu3   O38   S    
C137  H102  S    
C157  C192  A    
C158  C191  A    
C133  H92   S    
C112  O12   A    
C127  H73   S    
C117  O64   S    
C92   C93   S    
C121  H55   S    
C211  O4    A    
C111  C114  S    
C66   H79   S    
C73   H154  S    
C94   C95   S    
C160  C177  A    
C10   O55   S    
C135  O68   S    
C14   C49   A    
C178  O7    A    
Cu8   O18   S    
C60   C68   T    
C170  O90   S    
C139  H107  S    
C103  C104  S    
C124  O66   S    
C80   H171  S    
C125  H66   S    
C18   C36   A    
C126  H69   S    
C99   H219  S    
C124  C164  A    
C116  O63   S    
C21   C87   S    
C27   C98   S    
C200  O5    A    
C170  C183  A    
Cu9   O8    S    
C88   H194  S    
C32   C39   A    
C70   H144  S    
C81   C82   S    
C81   H179  S    
C24   C55   T    
C29   C103  S    
C146  O69   S    
C199  O36   A    
C88   H191  S    
C209  C218  S    
Cu11  O24   S    
C91   H198  S    
Cu9   O19   S    
C79   O62   S    
C100  H6    S    
C153  O73   S    
C5    O50   S    
C89   H200  S    
Cu12  O30   S    
C132  H88   S    
C61   H112  S    
C150  C190  A    
C97   H216  S    
C155  O75   S    
C142  H118  S    
C18   C81   S    
C67   H113  S    
C108  H19   S    
C123  H63   S    
C156  O45   A    
C209  O21   A    
Cu12  O28   S    
C175  O95   S    
C1    C177  S    
C161  O81   S    
C5    C22   A    
C65   H35   S    
C163  O83   S    
C134  H94   S    
C41   C203  S    
C98   H223  S    
C128  H75   S    
C151  C191  A    
C127  H72   S    
C146  C166  A    
C13   C188  S    
C77   H167  S    
C202  O42   A    
C82   H176  S    
C75   H161  S    
Cu4   O43   S    
C159  O79   S    
C138  H106  S    
C90   C161  A    
C199  O40   A    
C102  H4    S    
C78   H173  S    
C136  H97   S    
C126  O73   S    
C131  H86   S    
C223  C228  S    
C66   O50   S    
Cu10  O3    S    
C49   C58   S    
C57   C193  S    
Cu9   Cu11  S    
C82   H177  S    
C155  C193  A    
C16   C33   A    
C141  H115  S    
C37   C198  S    
C74   H157  S    
C96   C97   S    
C153  C171  A    
C100  C102  S    
Cu8   Cu10  S    
C74   O58   S    
C154  C172  A    
C30   C41   A    
C167  O78   A    
C147  O94   S    
C197  O29   A    
C126  H67   S    
C112  C179  S    
C195  O27   A    
C45   C54   S    
C230  O44   S    
Cu5   Cu7   S    
C87   H195  S    
Cu8   O22   S    
C161  C179  A    
C76   H164  S    
C143  H123  S    
C205  O10   A    
C176  O96   S    
C47   C55   S    
C86   H187  S    
C150  O70   S    
C34   C196  S    
C48   C56   S    
C171  O91   S    
C141  O88   S    
C120  H51   S    
C110  H25   S    
C205  O13   A    
C99   H220  S    
C143  O91   S    
Cu10  O7    S    
C123  H61   S    
C142  H119  S    
C72   H150  S    
C129  H78   S    
C4    C21   A    
C11   O57   S    
C155  C173  A    
C167  C181  S    
Cu4   O40   S    
C6    C23   A    
C160  O80   S    
C212  O24   A    
C147  H132  S    
C140  O87   S    
Cu10  O20   S    
C11   C51   A    
C130  H83   S    
C154  C194  A    
C11   C29   A    
C105  H17   S    
Cu6   O67   S    
C203  O41   A    
C106  H14   S    
C117  H42   S    
C107  H22   S    
Cu5   O17   S    
C63   H192  S    
