data_mof_unit_66191.cif
_audit_creation_date              2012-12-10T19:26:20-0500
_audit_creation_method            fapswitch 2.2
_symmetry_space_group_name_H-M    P1
_symmetry_Int_Tables_number       1
_space_group_crystal_system       triclinic
_cell_length_a                    18.981535
_cell_length_b                    18.621339
_cell_length_c                    18.647064
_cell_angle_alpha                 109.026936
_cell_angle_beta                  109.843625
_cell_angle_gamma                 109.737505
_cell_volume                      5061.3333438

loop_
_atom_site_label
_atom_site_type_symbol
_atom_type_description
_atom_site_fract_x
_atom_site_fract_y
_atom_site_fract_z
_atom_type_partial_charge
C1    C     C_R   0.119706 0.000166 0.620409 0.886052
C2    C     C_R   0.233483 0.980382 0.812029 -0.216756
C3    C     C_R   0.315441 0.007623 0.819292 -0.102138
C4    C     C_R   0.122390 0.120399 0.502791 0.884625
C5    C     C_R   0.334558 0.044220 0.769187 0.090345
C6    C     C_3   0.375953 0.025956 0.715374 -0.561142
C7    C     C_3   0.304091 0.022595 0.642851 0.288697
C8    C     C_R   0.815417 0.740848 0.496584 0.129875
C9    C     C_R   0.812033 0.813800 0.496605 -0.095551
C10   C     C_R   0.740809 0.822261 0.495692 -0.216893
C11   C     C_R   0.675646 0.757248 0.495050 -0.218484
C12   C     C_R   0.265277 0.257840 0.589089 0.093097
C13   C     C_R   0.683543 0.685659 0.498166 -0.098378
C14   C     C_R   0.754730 0.680350 0.499181 0.133841
C15   C     C_3   0.798927 0.628006 0.503269 -0.491790
C16   C     C_R   0.879786 0.999459 0.379782 0.885750
C17   C     C_3   0.869239 0.698156 0.501291 -0.491645
C18   C     C_R   0.815033 0.995835 0.240642 0.134430
C19   C     C_R   0.812086 0.996811 0.313942 -0.096938
C20   C     C_R   0.741301 0.996864 0.322745 -0.217276
C21   C     C_R   0.676090 0.996167 0.257676 -0.217698
C22   C     C_R   0.683530 0.998234 0.185692 -0.098100
C23   C     C_R   0.191992 0.187577 0.507500 -0.099719
C24   C     C_R   0.754300 0.998354 0.180059 0.134143
C25   C     C_3   0.797830 0.001023 0.127132 -0.491937
C26   C     C_3   0.868211 0.999109 0.197375 -0.495169
C27   C     C_R   0.500808 0.620622 0.620602 0.867124
C28   C     C_R   0.879773 0.879724 0.499399 0.879531
C29   C     C_R   0.380431 0.382703 0.503318 0.871066
C30   C     C_R   0.499977 0.380356 0.379810 0.888450
C31   C     C_R   0.619468 0.619952 0.499485 0.882574
C32   C     C_R   0.500460 0.120484 0.120032 0.882889
C33   C     C_R   0.380146 0.001072 0.880232 0.885257
C34   C     C_R   0.182066 0.182931 0.428308 -0.226201
C35   C     C_R   0.499516 0.879412 0.879918 0.875815
C36   C     C_R   0.619453 0.999488 0.119945 0.882454
C37   C     C_R   0.423373 0.672938 0.685090 0.107176
C38   C     C_R   0.501114 0.684785 0.688537 -0.090779
C39   C     C_R   0.580210 0.754976 0.763168 -0.215706
C40   C     C_R   0.279955 0.259922 0.669581 -0.106568
C41   C     C_R   0.580194 0.819520 0.827276 -0.223958
C42   C     C_R   0.501004 0.811739 0.817474 -0.089519
C43   C     C_R   0.423403 0.735363 0.749675 0.147174
C44   C     C_3   0.342899 0.725657 0.685488 -0.511211
C45   C     C_R   0.243771 0.248498 0.428627 -0.217272
C46   C     C_3   0.343062 0.656883 0.614101 -0.467560
C47   C     C_R   0.425647 0.243602 0.242353 0.132818
C48   C     C_R   0.501754 0.317107 0.314017 -0.096403
C49   C     C_R   0.581168 0.326965 0.321325 -0.220240
C50   C     C_R   0.581280 0.262542 0.256311 -0.216609
C51   C     C_R   0.502085 0.187356 0.185921 -0.100114
C52   C     C_R   0.350596 0.332341 0.749180 -0.127268
C53   C     C_R   0.425864 0.180491 0.181895 0.134942
C54   C     C_3   0.329685 0.123651 0.130947 -0.488489
C55   C     C_3   0.329529 0.195840 0.201078 -0.498652
C56   C     C_R   0.315656 0.319892 0.508188 -0.109201
C57   C     C_R   0.407367 0.403783 0.750169 -0.146946
C58   C     C_R   0.395634 0.401720 0.671398 -0.177710
C59   C     C_R   0.326463 0.327182 0.589683 0.087290
C60   C     C_3   0.359580 0.071775 0.565118 0.103544
C61   C     C_3   0.395260 0.149844 0.551931 -0.788944
C62   C     C_R   0.270173 0.041535 0.703928 0.099838
C63   C     C_R   0.185912 0.003030 0.688212 -0.143003
C64   C     C_R   0.168750 0.979082 0.746782 -0.210700
H1    H     H_    0.125708 0.128723 0.365966 0.154590
H2    H     H_    0.736319 0.996914 0.378949 0.155234
H3    H     H_    0.238059 0.205542 0.671940 0.154063
H4    H     H_    0.621544 0.995964 0.264419 0.158546
H5    H     H_    0.759344 0.940448 0.061687 0.195620
H6    H     H_    0.821043 0.064077 0.126528 0.211895
H7    H     H_    0.870893 0.937692 0.172449 0.211070
H8    H     H_    0.931832 0.061301 0.237683 0.196810
H9    H     H_    0.641418 0.762267 0.769327 0.158199
H10   H     H_    0.641270 0.876116 0.882721 0.153403
H11   H     H_    0.287566 0.697902 0.695539 0.210417
H12   H     H_    0.372696 0.961357 0.697737 0.156880
H13   H     H_    0.354380 0.786025 0.680426 0.192858
H14   H     H_    0.287730 0.589464 0.582840 0.202981
H15   H     H_    0.360823 0.333365 0.810343 0.138172
H16   H     H_    0.354798 0.677387 0.567599 0.213659
H17   H     H_    0.642208 0.384021 0.376294 0.152824
H18   H     H_    0.642450 0.270418 0.261869 0.160407
H19   H     H_    0.300778 0.117246 0.064829 0.200387
H20   H     H_    0.307972 0.060840 0.132114 0.209973
H21   H     H_    0.299983 0.230828 0.175442 0.212292
H22   H     H_    0.308332 0.174845 0.243095 0.196763
H23   H     H_    0.257708 0.956684 0.582464 0.075751
H24   H     H_    0.461059 0.460815 0.812180 0.140285
H25   H     H_    0.440572 0.459418 0.675662 0.156090
H26   H     H_    0.235908 0.242972 0.366342 0.158160
H27   H     H_    0.104630 0.955301 0.739127 0.147541
H28   H     H_    0.218606 0.957206 0.854185 0.164414
H29   H     H_    0.441515 0.082617 0.744636 0.227557
H30   H     H_    0.303010 0.015065 0.500787 0.133981
H31   H     H_    0.411283 0.055218 0.587283 0.138140
H32   H     H_    0.449276 0.208938 0.615732 0.262553
H33   H     H_    0.419722 0.134691 0.505908 0.198123
H34   H     H_    0.735475 0.878185 0.494997 0.154766
H35   H     H_    0.343299 0.163837 0.523618 0.261498
H36   H     H_    0.620786 0.763767 0.494111 0.157897
H37   H     H_    0.821980 0.628077 0.566641 0.211292
H38   H     H_    0.760992 0.562246 0.443161 0.196184
H39   H     H_    0.932633 0.739091 0.563772 0.197678
H40   H     H_    0.872452 0.672866 0.440323 0.212472
O1    O     O_R   0.091620 0.948280 0.539900 -0.630564
O2    O     O_R   0.448300 0.040010 0.091670 -0.626120
O3    O     O_R   0.460120 0.051750 0.908420 -0.614252
O4    O     O_R   0.091590 0.051710 0.643320 -0.624800
O5    O     O_R   0.356670 0.948360 0.908460 -0.630818
O6    O     O_R   0.551700 0.960090 0.908430 -0.624911
O7    O     O_R   0.448250 0.856700 0.908470 -0.618247
O8    O     O_R   0.643330 0.051740 0.091640 -0.625259
O9    O     O_R   0.539880 0.948350 0.091680 -0.623081
O10   O     O_R   0.091630 0.039900 0.448300 -0.620281
O11   O     O_R   0.091610 0.143340 0.551720 -0.630777
O12   O     O_R   0.551680 0.591610 0.643340 -0.632189
O13   O     O_R   0.908410 0.948290 0.356680 -0.622760
O14   O     O_R   0.908380 0.051720 0.460100 -0.622802
O15   O     O_R   0.908390 0.856660 0.448280 -0.621225
O16   O     O_R   0.908370 0.960100 0.551700 -0.626754
O17   O     O_R   0.448240 0.591630 0.539920 -0.624908
O18   O     O_3   0.334355 0.094024 0.628375 -0.586705
O19   O     O_R   0.356630 0.408410 0.448290 -0.621964
O20   O     O_R   0.460070 0.408390 0.551710 -0.625368
O21   O     O_R   0.448260 0.408420 0.356690 -0.620843
O22   O     O_R   0.551700 0.408400 0.460110 -0.621739
O23   O     O_R   0.539880 0.591640 0.448310 -0.623292
O24   O     O_R   0.643310 0.591620 0.551740 -0.624996
O25   O     O_R   0.551750 0.143400 0.091630 -0.622957
Zn1   Zn    Zn3+2 0.000020 0.930940 0.430940 0.942071
Zn2   Zn    Zn3+2 0.999980 0.069060 0.569060 0.949168
Zn3   Zn    Zn3+2 0.430910 0.500030 0.430960 0.943356
Zn4   Zn    Zn3+2 0.569030 0.500000 0.569070 0.942801
Zn5   Zn    Zn3+2 0.569070 0.069080 0.000020 0.948349
Zn6   Zn    Zn3+2 0.430930 0.931020 0.000080 0.944313

loop_
_geom_bond_atom_site_label_1
_geom_bond_atom_site_label_2
_ccdc_geom_bond_type
C30   O22   A    
C37   C43   A    
O19   Zn3   S    
O5    Zn6   S    
O16   Zn2   S    
C26   H8    S    
C41   C42   A    
C4    O11   A    
C19   C20   A    
C33   O3    A    
C31   O23   A    
C54   H20   S    
C27   O17   A    
C61   H32   S    
C39   C41   A    
O11   Zn2   S    
C53   C54   S    
C12   C23   A    
C62   C63   A    
O20   Zn4   S    
C18   C24   A    
C30   C48   S    
C44   H13   S    
C17   H40   S    
O3    Zn5   S    
C38   C39   A    
C3    C33   S    
C27   C38   S    
C29   O20   A    
O15   Zn1   S    
C18   C19   A    
C49   H17   S    
C10   H34   S    
C35   C42   S    
O23   Zn3   S    
C32   O25   A    
O4    Zn2   S    
O14   Zn2   S    
C41   H10   S    
C12   C59   A    
C7    H23   S    
O22   Zn4   S    
C44   C46   S    
C8    C9    A    
C40   H3    S    
C18   C26   S    
C36   O8    A    
C52   H15   S    
C9    C10   A    
C47   C53   A    
C27   O12   A    
C23   C34   A    
C30   O21   A    
C32   O2    A    
C13   C14   A    
C26   H7    S    
O10   Zn1   S    
C61   H35   S    
C31   O24   A    
C36   O9    A    
C1    C63   S    
C34   H1    S    
C54   H19   S    
C2    C64   A    
C24   C25   S    
C45   C56   A    
C28   O16   A    
C46   H14   S    
C4    C23   S    
O12   Zn4   S    
C25   C26   S    
C40   C52   A    
C63   C64   A    
C11   H36   S    
C51   C53   A    
C55   H21   S    
C44   H11   S    
C2    H28   S    
C43   C44   S    
C7    C62   S    
C37   C38   A    
O13   Zn1   S    
C16   O14   A    
C47   C48   A    
C6    H29   S    
C50   C51   A    
C34   C45   A    
C15   H37   S    
C60   O18   S    
C45   H26   S    
O1    Zn1   S    
C35   O6    A    
C48   C49   A    
C21   H4    S    
C22   C24   A    
O6    Zn5   S    
C33   O5    A    
C42   C43   A    
O17   Zn3   S    
C52   C57   A    
C35   O7    A    
C50   H18   S    
C47   C55   S    
C32   C51   S    
C20   H2    S    
C15   C17   S    
C54   C55   S    
O2    Zn6   S    
C8    C14   A    
C13   C31   S    
C61   H33   S    
O8    Zn5   S    
C3    C5    A    
C28   O15   A    
C56   C59   A    
C6    H12   S    
C6    C7    S    
C29   C56   S    
C22   C36   S    
C8    C17   S    
C57   H24   S    
C21   C22   A    
C55   H22   S    
C2    C3    A    
C58   C59   A    
C16   O13   A    
C46   H16   S    
C11   C13   A    
O21   Zn3   S    
O7    Zn6   S    
C57   C58   A    
C5    C6    S    
C16   C19   S    
C29   O19   A    
C5    C62   A    
C39   H9    S    
C15   H38   S    
C17   H39   S    
C58   H25   S    
C10   C11   A    
C4    O10   A    
C1    O4    A    
O25   Zn5   S    
C60   H31   S    
C25   H5    S    
C20   C21   A    
C49   C50   A    
O9    Zn6   S    
C14   C15   S    
C60   C61   S    
C25   H6    S    
C7    O18   S    
C64   H27   S    
C12   C40   A    
C37   C46   S    
O24   Zn4   S    
C9    C28   S    
C1    O1    A    
C60   H30   S    
