data_mof_unit_39548.cif
_audit_creation_date              2012-12-11T14:10:54-0500
_audit_creation_method            fapswitch 2.2
_symmetry_space_group_name_H-M    P1
_symmetry_Int_Tables_number       1
_space_group_crystal_system       triclinic
_cell_length_a                    19.983512
_cell_length_b                    17.322491
_cell_length_c                    15.526678
_cell_angle_alpha                 90.290088
_cell_angle_beta                  51.91272
_cell_angle_gamma                 90.53852
_cell_volume                      4230.15022046

loop_
_atom_site_label
_atom_site_type_symbol
_atom_type_description
_atom_site_fract_x
_atom_site_fract_y
_atom_site_fract_z
_atom_type_partial_charge
C1    C     C_R   0.371812 0.195275 0.001169 -0.134142
C2    C     C_3   0.695380 0.752612 0.438566 -0.133714
C3    C     C_3   0.805869 0.186015 0.405240 -0.133642
C4    C     C_3   0.298990 0.759136 0.563818 -0.139511
C5    C     C_3   0.711182 0.693435 0.585125 -0.113455
C6    C     C_3   0.195391 0.252621 0.438560 -0.133709
C7    C     C_3   0.305869 0.686015 0.405239 -0.133641
C8    C     C_3   0.798990 0.259136 0.563818 -0.139509
C9    C     C_2   0.239430 0.726355 0.024370 0.349457
C10   C     C_2   0.721050 0.302045 0.047350 0.463878
C11   C     C_2   0.790721 0.738535 0.941024 0.442433
C12   C     C_R   0.638119 0.808726 0.985268 -0.075450
C13   C     C_2   0.225639 0.268592 0.037114 0.347247
C14   C     C_2   0.739425 0.226357 0.024378 0.349443
C15   C     C_2   0.221053 0.802043 0.047347 0.463875
C16   C     C_2   0.290717 0.238534 0.941029 0.442430
C17   C     C_2   0.725644 0.768594 0.037107 0.347235
C18   C     C_R   0.396410 0.801168 0.209695 -0.220932
C19   C     C_R   0.649193 0.174521 0.777379 -0.184740
C20   C     C_R   0.610998 0.803109 0.786900 -0.194028
C21   C     C_R   0.348759 0.171048 0.221424 -0.191458
C22   C     C_R   0.896410 0.301168 0.209695 -0.220936
C23   C     C_R   0.640115 0.191263 0.985070 -0.118818
C24   C     C_R   0.149193 0.674521 0.777378 -0.184741
C25   C     C_R   0.110997 0.303108 0.786901 -0.194025
C26   C     C_R   0.848758 0.671047 0.221424 -0.191457
C27   C     C_R   0.329315 0.910210 0.954222 0.482222
C28   C     C_R   0.649485 0.104902 0.082037 0.530172
C29   C     C_R   0.645729 0.893830 0.086549 0.549888
C30   C     C_R   0.364335 0.110965 0.900425 0.516948
C31   C     C_R   0.829315 0.410211 0.954223 0.482218
C32   C     C_R   0.149489 0.604901 0.082032 0.530172
C33   C     C_R   0.145724 0.393828 0.086555 0.549905
C34   C     C_R   0.336030 0.830420 0.059432 -0.111745
C35   C     C_R   0.864336 0.610966 0.900423 0.516956
C36   C     C_R   0.356990 0.081634 0.317720 0.471828
C37   C     C_R   0.595330 0.889628 0.695202 0.567747
C38   C     C_R   0.642845 0.081623 0.682413 0.489026
C39   C     C_R   0.408791 0.890299 0.302459 0.567676
C40   C     C_R   0.856990 0.581634 0.317720 0.471829
C41   C     C_R   0.095329 0.389628 0.695202 0.567749
C42   C     C_R   0.142845 0.581623 0.682413 0.489026
C43   C     C_R   0.908791 0.390299 0.302459 0.567676
C44   C     C_R   0.340947 0.183229 0.945081 -0.083573
C45   C     C_R   0.871813 0.695276 0.001168 -0.134148
C46   C     C_R   0.674307 0.823360 0.034772 -0.199283
C47   C     C_R   0.679243 0.175654 0.030432 -0.180155
C48   C     C_R   0.285468 0.852812 0.032538 -0.114325
C49   C     C_R   0.840950 0.683230 0.945078 -0.083568
C50   C     C_R   0.174301 0.323356 0.034781 -0.199291
C51   C     C_R   0.179248 0.675651 0.030426 -0.180163
C52   C     C_R   0.785467 0.352814 0.032540 -0.114325
C53   C     C_R   0.388484 0.814396 0.302515 -0.147687
C54   C     C_R   0.691630 0.142246 0.674806 -0.118704
C55   C     C_R   0.621924 0.816496 0.692094 -0.062631
C56   C     C_R   0.138114 0.308724 0.985274 -0.075455
C57   C     C_R   0.306775 0.139077 0.324118 -0.057281
C58   C     C_R   0.888484 0.314396 0.302515 -0.147690
C59   C     C_R   0.191630 0.642246 0.674806 -0.118703
C60   C     C_R   0.121923 0.316495 0.692095 -0.062633
C61   C     C_R   0.806773 0.639076 0.324118 -0.057282
C62   C     C_3   0.173314 0.150032 0.536649 -0.126224
C63   C     C_3   0.733276 0.795547 0.486931 -0.133684
C64   C     C_3   0.836781 0.152279 0.467285 -0.169969
C65   C     C_3   0.267892 0.792232 0.502409 -0.160201
C66   C     C_3   0.673323 0.650030 0.536652 -0.126205
C67   C     C_R   0.140117 0.691262 0.985066 -0.118812
C68   C     C_3   0.233285 0.295545 0.486936 -0.133699
C69   C     C_3   0.336781 0.652279 0.467285 -0.169967
C70   C     C_3   0.767892 0.292232 0.502410 -0.160200
C71   C     C_3   0.620789 0.722342 0.553904 -0.129216
C72   C     C_3   0.284703 0.224414 0.471330 -0.127960
C73   C     C_3   0.381397 0.730050 0.454591 -0.150861
C74   C     C_3   0.724441 0.215703 0.513156 -0.130965
C75   C     C_3   0.120790 0.222352 0.553894 -0.129194
C76   C     C_3   0.784706 0.724423 0.471319 -0.127985
C77   C     C_3   0.881397 0.230050 0.454591 -0.150865
C78   C     C_R   0.836029 0.330421 0.059433 -0.111743
C79   C     C_3   0.224441 0.715703 0.513156 -0.130965
C80   C     C_3   0.660030 0.764457 0.600284 0.174476
C81   C     C_3   0.246597 0.181624 0.423763 0.181364
C82   C     C_3   0.349034 0.762544 0.394831 0.180358
C83   C     C_3   0.755559 0.182691 0.574143 0.178739
C84   C     C_3   0.160029 0.264457 0.600286 0.174475
C85   C     C_3   0.746597 0.681623 0.423763 0.181366
C86   C     C_3   0.849034 0.262544 0.394831 0.180359
C87   C     C_3   0.255559 0.682691 0.574143 0.178738
C88   C     C_3   0.211170 0.193427 0.585134 -0.113450
H1    H     H_    0.375996 0.249873 0.031740 0.131907
H2    H     H_    0.666094 0.227342 0.796662 0.128040
H3    H     H_    0.615798 0.748352 0.815712 0.135917
H4    H     H_    0.330120 0.221612 0.200939 0.152535
H5    H     H_    0.894597 0.245593 0.179146 0.138953
H6    H     H_    0.166093 0.727342 0.796661 0.128040
H7    H     H_    0.115797 0.248352 0.815713 0.135916
H8    H     H_    0.830118 0.721611 0.200939 0.152535
H9    H     H_    0.552304 0.722918 0.591054 0.141081
H10   H     H_    0.352934 0.224998 0.435664 0.142878
H11   H     H_    0.447206 0.736867 0.427244 0.125816
H12   H     H_    0.638570 0.755154 0.948867 0.145879
H13   H     H_    0.659033 0.209622 0.538789 0.140524
H14   H     H_    0.052306 0.222935 0.591035 0.141080
H15   H     H_    0.852938 0.725014 0.435644 0.142878
H16   H     H_    0.947206 0.236867 0.427243 0.125812
H17   H     H_    0.159033 0.709622 0.538788 0.140524
H18   H     H_    0.150126 0.089347 0.553870 0.138146
H19   H     H_    0.757334 0.856006 0.468340 0.144891
H20   H     H_    0.863729 0.093994 0.455997 0.122179
H21   H     H_    0.240051 0.850355 0.515394 0.139970
H22   H     H_    0.650142 0.589344 0.553876 0.138152
H23   H     H_    0.640645 0.245655 0.951156 0.167557
H24   H     H_    0.257349 0.356003 0.468348 0.144883
H25   H     H_    0.363729 0.593994 0.455997 0.122179
H26   H     H_    0.740051 0.350355 0.515394 0.139969
H27   H     H_    0.217389 0.169763 0.646180 0.145823
H28   H     H_    0.689781 0.775656 0.376682 0.145277
H29   H     H_    0.809204 0.156406 0.339137 0.124627
H30   H     H_    0.295684 0.788425 0.630085 0.133717
H31   H     H_    0.717410 0.669778 0.646166 0.145829
H32   H     H_    0.189801 0.275672 0.376670 0.145277
H33   H     H_    0.309204 0.656406 0.339137 0.124627
H34   H     H_    0.323666 0.783593 0.113166 0.151769
H35   H     H_    0.795685 0.288425 0.630085 0.133716
H36   H     H_    0.366513 0.941070 0.813572 0.321430
H37   H     H_    0.693327 0.109528 0.162961 0.315029
H38   H     H_    0.696064 0.894858 0.159468 0.315759
H39   H     H_    0.423245 0.055376 0.766385 0.299916
H40   H     H_    0.866511 0.441071 0.813574 0.321430
H41   H     H_    0.193342 0.609522 0.162944 0.315024
H42   H     H_    0.196051 0.394851 0.159486 0.315771
H43   H     H_    0.923247 0.555376 0.766383 0.299915
H44   H     H_    0.409676 0.053912 0.381138 0.366530
H45   H     H_    0.875997 0.749873 0.031739 0.131902
H46   H     H_    0.529946 0.956662 0.675633 0.323789
H47   H     H_    0.713394 0.050444 0.530870 0.317729
H48   H     H_    0.423550 0.881890 0.414067 0.319724
H49   H     H_    0.909677 0.553913 0.381137 0.366532
H50   H     H_    0.029946 0.456662 0.675633 0.323788
H51   H     H_    0.213394 0.550444 0.530870 0.317730
H52   H     H_    0.923550 0.381890 0.414067 0.319725
H53   H     H_    0.321288 0.642490 0.965964 0.324222
H54   H     H_    0.642621 0.386955 0.096599 0.335964
H55   H     H_    0.863502 0.736470 0.782159 0.347992
H56   H     H_    0.138565 0.255152 0.948873 0.145880
H57   H     H_    0.148731 0.265109 0.196461 0.324428
H58   H     H_    0.821281 0.142494 0.965981 0.324242
H59   H     H_    0.142620 0.886951 0.096604 0.335961
H60   H     H_    0.363492 0.236467 0.782167 0.347998
H61   H     H_    0.648739 0.765126 0.196457 0.324422
H62   H     H_    0.140647 0.745654 0.951153 0.167555
H63   H     H_    0.823665 0.283595 0.113169 0.151774
H64   H     H_    0.394597 0.745593 0.179146 0.138951
N1    N     N_R   0.408680 0.130810 0.995780 -0.067515
N2    N     N_R   0.578590 0.132790 0.846380 -0.064887
N3    N     N_R   0.578590 0.867210 0.846380 -0.062709
N4    N     N_R   0.421410 0.132790 0.153620 -0.063302
N5    N     N_R   0.921410 0.367210 0.153620 -0.072953
N6    N     N_R   0.078590 0.632790 0.846380 -0.064887
N7    N     N_R   0.078590 0.367210 0.846380 -0.062709
N8    N     N_R   0.921410 0.632790 0.153620 -0.063302
N9    N     N_R   0.403840 0.921910 0.935760 -0.123387
N10   N     N_R   0.596160 0.078090 0.064240 -0.076496
N11   N     N_R   0.596160 0.921910 0.064240 -0.078263
N12   N     N_R   0.591320 0.869190 0.004220 -0.082983
N13   N     N_R   0.403840 0.078090 0.935760 -0.120816
N14   N     N_R   0.903840 0.421910 0.935760 -0.123387
N15   N     N_R   0.096160 0.578090 0.064240 -0.076495
N16   N     N_R   0.096160 0.421910 0.064240 -0.078266
N17   N     N_R   0.903840 0.578090 0.935760 -0.120816
N18   N     N_R   0.426250 0.076100 0.213650 -0.101445
N19   N     N_R   0.573750 0.923900 0.786350 -0.115875
N20   N     N_R   0.573750 0.076100 0.786350 -0.092388
N21   N     N_R   0.426250 0.923900 0.213650 -0.085779
N22   N     N_R   0.926250 0.576100 0.213650 -0.101445
N23   N     N_R   0.591320 0.130810 0.004220 -0.077753
N24   N     N_R   0.073750 0.423900 0.786350 -0.115875
N25   N     N_R   0.073750 0.576100 0.786350 -0.092388
N26   N     N_R   0.926250 0.423900 0.213650 -0.085780
N27   N     N_R   0.408680 0.869190 0.995780 -0.060087
N28   N     N_R   0.908680 0.630810 0.995780 -0.067514
N29   N     N_R   0.091320 0.369190 0.004220 -0.082981
N30   N     N_R   0.091320 0.630810 0.004220 -0.077752
N31   N     N_R   0.908680 0.369190 0.995780 -0.060088
N32   N     N_R   0.421410 0.867210 0.153620 -0.072953
Ni1   Ni    Ni4+2 0.500000 0.131570 0.000000 0.197600
Ni2   Ni    Ni4+2 0.500000 0.868430 0.000000 0.199386
Ni3   Ni    Ni4+2 0.000000 0.631570 0.000000 0.197600
Ni4   Ni    Ni4+2 1.000000 0.368430 0.000000 0.199384
Ni5   Ni    Ni4+2 0.488900 1.000000 0.862310 0.199272
Ni6   Ni    Ni4+2 0.511100 0.000000 0.137690 0.310552
Ni7   Ni    Ni4+2 0.988900 0.500000 0.862310 0.199272
Ni8   Ni    Ni4+2 0.011100 0.500000 0.137690 0.310552
O1    O     O_3   0.311126 0.932959 0.886311 -0.723634
O2    O     O_3   0.567631 0.911744 0.637101 -0.724936
O3    O     O_3   0.655208 0.040064 0.598200 -0.765585
O4    O     O_3   0.435060 0.920307 0.359430 -0.731460
O5    O     O_3   0.850734 0.555303 0.405569 -0.740583
O6    O     O_3   0.067631 0.411744 0.637101 -0.724936
O7    O     O_3   0.155208 0.540064 0.598200 -0.765584
O8    O     O_3   0.935060 0.420307 0.359430 -0.731458
O9    O     O_3   0.318418 0.697876 0.984502 -0.791017
O10   O     O_3   0.643203 0.330742 0.083651 -0.774019
O11   O     O_3   0.810006 0.761766 0.842647 -0.765899
O12   O     O_3   0.656002 0.074829 0.158253 -0.693035
O13   O     O_3   0.204379 0.242909 0.135787 -0.792857
O14   O     O_3   0.818411 0.197875 0.984515 -0.791038
O15   O     O_3   0.143203 0.830738 0.083653 -0.774019
O16   O     O_3   0.309999 0.261764 0.842654 -0.765907
O17   O     O_3   0.704379 0.742908 0.135783 -0.792836
O18   O     O_3   0.652690 0.924685 0.162372 -0.681103
O19   O     O_3   0.372980 0.089301 0.808957 -0.735152
O20   O     O_3   0.811125 0.432960 0.886313 -0.723635
O21   O     O_3   0.156009 0.574827 0.158245 -0.693034
O22   O     O_3   0.152681 0.424681 0.162382 -0.681097
O23   O     O_3   0.872983 0.589302 0.808954 -0.735151
O24   O     O_3   0.350734 0.055302 0.405569 -0.740583

loop_
_geom_bond_atom_site_label_1
_geom_bond_atom_site_label_2
_ccdc_geom_bond_type
C27   C48   A    
H40   O20   S    
H55   O11   S    
C28   C47   A    
N25   Ni7   S    
C20   N3    A    
C36   N18   A    
C8    C83   S    
C64   C77   S    
C29   N11   A    
N11   N12   A    
C9    C51   S    
N5    Ni4   S    
C74   C83   S    
C39   N21   A    
C10   C52   S    
N6    Ni3   S    
C66   C85   S    
C79   C87   S    
C28   N10   A    
C6    C75   S    
C43   N26   A    
N27   Ni2   S    
C72   H10   S    
C3    C64   S    
C70   H26   S    
N15   Ni8   S    
C71   H9    S    
C79   H17   S    
C5    H31   S    
C65   C79   S    
H54   O10   S    
C42   O7    S    
C67   N30   A    
C26   C61   A    
H53   O9    S    
H48   O4    S    
C17   O17   S    
C4    C65   S    
C24   N6    A    
C75   C84   S    
N15   N30   A    
C12   N12   A    
C56   N29   A    
C42   N25   A    
N21   Ni6   S    
C38   O3    S    
N19   Ni5   S    
C2    C85   S    
N14   Ni7   S    
C68   H24   S    
C3    C74   S    
C70   C74   S    
C54   C83   S    
C3    H29   S    
C18   C53   A    
C67   H62   S    
C2    H28   S    
C31   O20   S    
N21   N32   A    
N6    N25   A    
H36   O1    S    
C35   C49   A    
C75   H14   S    
N13   Ni5   S    
C69   C73   S    
C43   O8    S    
C27   O1    S    
C25   C60   A    
C18   N32   A    
N9    N27   A    
C16   C44   S    
N17   N28   A    
C72   C81   S    
C45   N28   A    
H58   O14   S    
N5    N26   A    
C76   H15   S    
C6    C68   S    
C34   H34   S    
C6    C81   S    
C40   O5    S    
C3    C86   S    
C30   C44   A    
C34   N27   A    
C27   N9    A    
C15   C48   S    
C7    H33   S    
C20   C55   A    
C52   C78   A    
C58   C86   S    
C6    H32   S    
C71   C80   S    
C72   C88   S    
N29   Ni4   S    
C78   H63   S    
C64   H20   S    
C63   C80   S    
C26   H8    S    
N2    Ni1   S    
C23   C47   A    
H43   O23   S    
C68   C84   S    
C29   O18   S    
C17   C46   S    
C30   N13   A    
N9    Ni5   S    
C36   C57   A    
H38   O18   S    
C56   H56   S    
C30   O19   S    
C4    C87   S    
H60   O16   S    
C25   N7    A    
C9    O9    S    
N24   Ni7   S    
C11   O11   S    
N10   N23   A    
C33   C50   A    
N4    Ni1   S    
C62   C88   S    
C50   C56   A    
H57   O13   S    
C12   H12   S    
C53   C82   S    
C28   O12   S    
N7    Ni4   S    
H51   O7    S    
C1    N1    A    
C64   C83   S    
C21   C57   A    
C11   C49   S    
N28   Ni3   S    
C24   H6    S    
N23   Ni1   S    
N26   Ni8   S    
C1    C44   A    
C66   C71   S    
C38   C54   A    
C31   N14   A    
C45   C49   A    
C68   C72   S    
C69   H25   S    
N2    N20   A    
C51   C67   A    
C66   H22   S    
C5    C80   S    
H59   O15   S    
C10   O10   S    
C65   H21   S    
C4    C73   S    
C61   C85   S    
C74   H13   S    
H44   O24   S    
C32   O21   S    
H50   O6    S    
C19   C54   A    
C12   C46   A    
C62   C81   S    
H49   O5    S    
C77   C86   S    
C25   H7    S    
N7    N24   A    
C14   O14   S    
C10   C14   D    
C8    C77   S    
C35   N17   A    
H37   O12   S    
C13   O13   S    
C62   C75   S    
C13   C16   D    
C33   N16   A    
C34   C48   A    
N17   Ni7   S    
C63   H19   S    
C2    C71   S    
C70   C86   S    
C18   H64   S    
C73   C82   S    
N10   Ni6   S    
C2    C63   S    
C7    C79   S    
C26   N8    A    
C32   C51   A    
H39   O19   S    
C73   H11   S    
C11   C17   D    
C1    H1    S    
N1    N13   A    
C9    C15   D    
N8    N22   A    
C41   N24   A    
N14   N31   A    
C84   C88   S    
C41   C60   A    
H61   O17   S    
C41   O6    S    
C16   O16   S    
N3    Ni2   S    
C69   C87   S    
C42   C59   A    
C22   C58   A    
C33   O22   S    
C8    H35   S    
C38   N20   A    
C14   C47   S    
C62   H18   S    
C22   N5    A    
N20   Ni5   S    
C23   H23   S    
C39   O4    S    
N18   Ni6   S    
C45   H45   S    
N16   Ni8   S    
C31   C52   A    
C29   C46   A    
C37   O2    S    
C88   H27   S    
C7    C69   S    
H52   O8    S    
N12   Ni2   S    
C5    C66   S    
N31   Ni4   S    
C36   O24   S    
C40   N22   A    
C55   C80   S    
C60   C84   S    
C65   C82   S    
C39   C53   A    
N1    Ni1   S    
C5    C76   S    
C24   C59   A    
N4    N18   A    
C22   H5    S    
C21   N4    A    
N32   Ni2   S    
H42   O22   S    
N11   Ni6   S    
C57   C81   S    
N30   Ni3   S    
H41   O21   S    
C59   C87   S    
C37   N19   A    
C40   C61   A    
H47   O3    S    
C13   C50   S    
C37   C55   A    
N3    N19   A    
C20   H3    S    
H46   O2    S    
C7    C82   S    
C23   N23   A    
N16   N29   A    
C63   C76   S    
C32   N15   A    
C8    C70   S    
C19   H2    S    
C19   N2    A    
C43   C58   A    
C77   H16   S    
N8    Ni3   S    
C35   O23   S    
C76   C85   S    
C15   O15   S    
C78   N31   A    
N22   Ni8   S    
C4    H30   S    
C21   H4    S    
