data_mof_unit_22826.cif
_audit_creation_date              2013-03-05T15:46:57-0500
_audit_creation_method            fapswitch 2.2
_symmetry_space_group_name_H-M    P1
_symmetry_Int_Tables_number       1
_space_group_crystal_system       triclinic
_cell_length_a                    10.17582
_cell_length_b                    10.854784
_cell_length_c                    14.907462
_cell_angle_alpha                 90.681375
_cell_angle_beta                  81.541658
_cell_angle_gamma                 96.359393
_cell_volume                      1618.67507749

loop_
_atom_site_label
_atom_site_type_symbol
_atom_site_description
_atom_site_fract_x
_atom_site_fract_y
_atom_site_fract_z
_atom_type_partial_charge
O1    O     O_R   0.431060 0.692470 0.507460 -0.609144
O2    O     O_R   0.568940 0.307530 0.492540 -0.624346
O3    O     O_R   0.651120 0.659650 0.483670 -0.536210
O4    O     O_R   0.348880 0.340350 0.516330 -0.528566
C1    C     C_R   0.557441 0.732478 0.493669 0.853553
C2    C     C_R   0.442577 0.267568 0.506333 0.859131
O5    O     O_R   0.389960 0.516440 0.644050 -0.597382
O6    O     O_R   0.610040 0.483560 0.355950 -0.559489
O7    O     O_R   0.610030 0.483620 0.620260 -0.550847
O8    O     O_R   0.389970 0.516380 0.379740 -0.576862
C3    C     C_R   0.500956 0.501361 0.672421 0.907331
C4    C     C_R   0.499129 0.498773 0.327555 0.906722
Zn1   Zn    Zn3+2 0.353060 0.521920 0.515880 1.148551
Zn2   Zn    Zn3+2 0.646940 0.478080 0.484120 1.163415
C5    C     C_R   0.459940 0.385045 0.190111 0.311798
C6    C     C_R   0.524324 0.617564 0.811330 0.307081
C7    C     C_R   0.497256 0.495950 0.232501 -0.123991
C8    C     C_R   0.503256 0.504507 0.767406 -0.132416
C9    C     C_R   0.530289 0.606731 0.185923 -0.205301
C10   C     C_R   0.478001 0.392818 0.813260 -0.222322
C11   C     C_R   0.523371 0.611573 0.093891 -0.004489
C12   C     C_R   0.467505 0.390209 0.906970 -0.007473
C13   C     C_R   0.493822 0.499417 0.047515 -0.016366
C14   C     C_R   0.495706 0.502559 0.953453 -0.019224
C15   C     C_R   0.465164 0.384034 0.095211 -0.160118
C16   C     C_R   0.528211 0.617458 0.905364 -0.158955
C17   C     C_R   0.553168 0.725510 0.046837 0.379055
C18   C     C_R   0.436472 0.276422 0.954140 0.381527
C19   C     C_R   0.562958 0.727516 0.952703 0.274352
C20   C     C_R   0.442982 0.272371 0.046682 0.279847
H1    H     H_    0.561323 0.688571 0.223134 0.172625
H2    H     H_    0.465814 0.308568 0.774198 0.172052
H3    H     H_    0.598099 0.104591 0.448078 0.237565
H4    H     H_    0.402051 0.895731 0.551582 0.247167
C21   C     C_2   0.593398 0.865144 0.486549 0.147815
C22   C     C_2   0.406773 0.134972 0.513327 0.147455
C23   C     C_2   0.495479 0.936053 0.513181 -0.172935
C24   C     C_2   0.504717 0.064128 0.486573 -0.172596
N1    N     N_2   0.842700 0.448880 0.462930 -0.034115
N2    N     N_2   0.157300 0.551120 0.537070 -0.041870
C25   C     C_2   0.920992 0.487895 0.521567 0.418131
C26   C     C_2   0.067970 0.469974 0.509387 0.411464
N3    N     N_R   0.409148 0.277514 0.244885 0.210159
O9    O     O_R   0.282516 0.237713 0.253725 -0.268549
O10   O     O_R   0.485566 0.228497 0.293993 -0.356484
N4    N     N_R   0.532818 0.730502 0.760575 0.204659
O11   O     O_R   0.434937 0.799344 0.773649 -0.301562
O12   O     O_R   0.629475 0.756289 0.693862 -0.324267
O13   O     O_3   0.580556 0.836298 0.090388 -0.632863
H5    H     H_    0.513068 0.838790 0.145334 0.366824
O14   O     O_3   0.406104 0.166000 0.910898 -0.634712
H6    H     H_    0.342829 0.180357 0.868570 0.356349
N5    N     N_R   0.617142 0.840975 0.906223 0.272707
O15   O     O_R   0.560426 0.941799 0.924797 -0.196533
O16   O     O_R   0.735334 0.848288 0.858147 -0.265729
N6    N     N_R   0.436318 0.153065 0.088568 0.276363
O17   O     O_R   0.333018 0.071763 0.085519 -0.237303
O18   O     O_R   0.542854 0.118390 0.115047 -0.255567
N7    N     N_R   0.274180 0.084933 0.553004 0.233747
O19   O     O_R   0.209650 0.141968 0.619958 -0.318449
O20   O     O_R   0.210273 0.994729 0.513158 -0.236255
N8    N     N_R   0.726039 0.915100 0.446712 0.237728
O21   O     O_R   0.790956 0.857205 0.380417 -0.281510
O22   O     O_R   0.789375 0.006876 0.485415 -0.285284
O23   O     O_3   0.109480 0.360058 0.474529 -0.656990
H7    H     H_    0.029779 0.299022 0.473380 0.357798
O24   O     O_3   0.864043 0.540594 0.600447 -0.673929
H8    H     H_    0.926409 0.541593 0.645687 0.336333
N9    N     N_R   0.125220 0.671179 0.556016 0.264330
O25   O     O_R   0.179968 0.734316 0.618126 -0.284811
O26   O     O_R   0.064775 0.729037 0.500798 -0.260873
N10   N     N_R   0.899297 0.417335 0.375944 0.265271
O27   O     O_R   0.833447 0.334468 0.331015 -0.269230
O28   O     O_R   0.000212 0.487341 0.332289 -0.312993

loop_
_geom_bond_atom_site_label_1
_geom_bond_atom_site_label_2
_geom_bond_distance
_ccdc_geom_bond_type
C4    C7    1.419859 S    
C26   O23   1.379960 S    
N8    O22   1.301612 A    
N3    O9    1.300974 A    
C3    C8    1.419558 S    
C23   C24   1.439475 S    
N6    O18   1.300977 A    
C17   C19   1.392392 A    
H4    C23   1.084808 S    
N3    O10   1.300808 A    
C25   C26   1.513752 S    
H3    C24   1.085497 S    
O6    C4    1.289845 A    
O7    Zn2   2.010330 S    
C22   N7    1.440778 S    
C9    H1    1.083644 S    
N2    C26   1.302607 D    
C11   C17   1.410154 A    
C5    N3    1.435675 S    
N7    O19   1.301253 A    
C25   O24   1.379405 S    
C12   C18   1.410207 A    
N5    O15   1.301240 A    
O5    C3    1.290163 A    
O7    C3    1.289781 A    
N8    O21   1.301210 A    
O3    Zn2   1.966715 S    
C19   N5    1.434703 S    
O2    C2    1.297929 A    
O1    C1    1.298210 A    
O8    C4    1.290292 A    
C22   C24   1.337649 D    
C9    C11   1.385988 A    
C14   C16   1.427926 A    
O23   H7    0.990853 S    
C21   N8    1.441603 S    
C8    C10   1.379185 A    
N9    O25   1.299772 A    
N5    O16   1.301174 A    
C11   C13   1.417947 A    
C6    C16   1.408196 A    
N1    N10   1.394238 S    
O2    Zn2   1.929688 S    
C18   O14   1.380537 S    
C12   C14   1.417965 A    
N7    O20   1.301230 A    
O4    C2    1.295258 A    
O1    Zn1   1.929686 S    
N2    N9    1.393940 S    
C10   C12   1.385695 A    
C13   C14   1.400304 A    
C17   O13   1.380499 S    
O24   H8    0.990909 S    
N4    O12   1.301038 A    
C1    C21   1.447202 S    
N9    O26   1.302743 A    
O5    Zn1   2.003491 S    
C13   C15   1.427762 A    
N6    O17   1.301322 A    
N1    C25   1.303644 D    
C16   C19   1.417750 A    
C6    C8    1.394509 A    
O13   H5    0.990654 S    
C10   H2    1.083627 S    
C6    N4    1.436021 S    
C15   C20   1.417750 A    
C5    C7    1.394274 A    
N10   O28   1.302979 A    
N4    O11   1.301060 A    
C7    C9    1.379417 A    
Zn1   N2    2.029966 S    
O6    Zn2   2.003488 S    
C5    C15   1.407847 A    
C21   C23   1.337584 D    
Zn2   N1    2.029966 S    
C20   N6    1.434902 S    
O14   H6    0.990506 S    
O4    Zn1   1.966717 S    
C2    C22   1.446174 S    
N10   O27   1.300339 A    
O3    C1    1.295461 A    
O8    Zn1   2.010327 S    
C18   C20   1.392302 A    
