data_mof_unit_42899.cif
_audit_creation_date              2013-03-05T15:53:05-0500
_audit_creation_method            fapswitch 2.2
_symmetry_space_group_name_H-M    P1
_symmetry_Int_Tables_number       1
_space_group_crystal_system       triclinic
_cell_length_a                    6.951893
_cell_length_b                    20.456701
_cell_length_c                    24.395465
_cell_angle_alpha                 89.660132
_cell_angle_beta                  90.468614
_cell_angle_gamma                 89.45307
_cell_volume                      3469.01054347

loop_
_atom_site_label
_atom_site_type_symbol
_atom_site_description
_atom_site_fract_x
_atom_site_fract_y
_atom_site_fract_z
_atom_type_partial_charge
O1    O     O_R   0.507320 0.423560 0.460500 -0.586529
O2    O     O_R   0.170760 0.556250 0.437010 -0.589973
O3    O     O_R   0.004030 0.576440 0.539500 -0.588610
C1    C     C_R   0.338782 0.576423 0.421082 0.975816
O4    O     O_R   0.177370 0.422820 0.454110 -0.590259
O5    O     O_R   0.010680 0.442050 0.556720 -0.588192
C2    C     C_R   0.346190 0.398856 0.443452 0.954299
O6    O     O_R   0.500680 0.557950 0.443280 -0.589852
O7    O     O_3   0.340380 0.506470 0.533650 -0.273257
V1    V     V_3+5 0.064130 0.498800 0.493760 1.176834
O8    O     O_R   0.681160 0.443750 0.562990 -0.590171
C3    C     C_R   0.850898 0.423682 0.578852 0.985645
O9    O     O_R   0.674560 0.577180 0.545890 -0.591236
C4    C     C_R   0.842675 0.601114 0.556563 0.929831
V2    V     V_3+5 0.564560 0.501200 0.506240 1.176895
O10   O     O_3   0.838180 0.493530 0.466350 -0.272561
C5    C     C_R   0.976673 0.837439 0.912036 -0.119643
C6    C     C_R   0.847672 0.661542 0.589179 -0.117473
C7    C     C_R   0.039591 0.720440 0.909264 0.616043
C8    C     C_R   0.029573 0.779458 0.938173 -0.390024
C9    C     C_R   0.933261 0.837336 0.855917 -0.192551
C10   C     C_R   0.944123 0.778973 0.824347 -0.026877
C11   C     C_R   0.998324 0.719693 0.851947 -0.059495
C12   C     C_R   0.904947 0.778039 0.766313 0.088660
C13   C     C_R   0.921022 0.718184 0.736380 0.043027
C14   C     C_R   0.974196 0.661102 0.765342 -0.418689
C15   C     C_R   0.011916 0.660954 0.821862 0.572284
C16   C     C_R   0.850142 0.835209 0.737072 -0.160768
C17   C     C_R   0.812604 0.834192 0.681153 -0.209291
C18   C     C_R   0.827095 0.776398 0.651563 0.141690
C19   C     C_R   0.882174 0.717238 0.678272 0.148220
C20   C     C_R   0.784294 0.777565 0.595222 -0.137113
C21   C     C_R   0.792800 0.720565 0.564495 -0.148737
C22   C     C_R   0.893304 0.659760 0.645462 -0.234351
H1    H     H_    0.932419 0.612586 0.662112 0.105567
H2    H     H_    0.755361 0.722406 0.521304 0.129502
H3    H     H_    0.770398 0.879443 0.660817 0.161436
H4    H     H_    0.064514 0.780348 0.981558 0.122742
H5    H     H_    0.896058 0.884135 0.838271 0.111182
H6    H     H_    0.987972 0.614924 0.744924 0.140375
H7    H     H_    0.833484 0.882207 0.756033 0.142826
H8    H     H_    0.741410 0.822750 0.574940 0.148170
C23   C     C_3   0.772284 0.292979 0.760681 -0.120480
C24   C     C_3   0.956786 0.281788 0.796043 -0.182643
H9    H     H_    0.991896 0.308152 0.834430 0.155830
H10   H     H_    0.655630 0.328707 0.769570 0.128935
H11   H     H_    0.219455 0.307464 0.737615 0.147087
C25   C     C_1   0.960859 0.121699 0.875332 -0.248727
C26   C     C_1   0.863606 0.378163 0.624587 -0.285426
C27   C     C_3   0.746830 0.217834 0.755985 -0.163793
C28   C     C_3   0.930830 0.207139 0.790977 0.041733
C29   C     C_3   0.869840 0.217686 0.702954 -0.186210
C30   C     C_3   0.896054 0.292223 0.708472 0.154413
C31   C     C_3   0.050948 0.207755 0.738756 0.379283
C32   C     C_3   0.080716 0.281912 0.743187 -0.264698
C33   C     C_1   0.948102 0.160071 0.837259 0.106546
C34   C     C_1   0.877093 0.339614 0.662521 0.041859
H12   H     H_    0.836393 0.191005 0.664601 0.184366
H13   H     H_    0.609257 0.191649 0.761563 0.197281
C35   C     C_3   0.459344 0.717972 0.204690 -0.208987
C36   C     C_3   0.270986 0.709060 0.237727 -0.129246
H14   H     H_    0.153337 0.674887 0.227267 0.122580
H15   H     H_    0.496898 0.691076 0.166808 0.142859
H16   H     H_    0.113448 0.812393 0.234911 0.196368
C37   C     C_1   0.348745 0.622156 0.375234 -0.292451
C38   C     C_1   0.475523 0.878291 0.125051 -0.245917
C39   C     C_3   0.577898 0.716260 0.259110 -0.264963
C40   C     C_3   0.389408 0.708186 0.291535 0.156591
C41   C     C_3   0.551692 0.790803 0.263164 0.376799
C42   C     C_3   0.436986 0.792983 0.209397 0.044951
C43   C     C_3   0.366762 0.783096 0.296697 -0.177292
C44   C     C_3   0.249130 0.784531 0.242106 -0.144748
C45   C     C_1   0.364430 0.660776 0.337366 0.032634
C46   C     C_1   0.460435 0.839987 0.163157 0.098288
H17   H     H_    0.330857 0.810300 0.334557 0.182980
H18   H     H_    0.714753 0.689013 0.266341 0.144648
C47   C     C_R   0.470748 0.162408 0.088512 -0.387282
C48   C     C_R   0.350839 0.337900 0.411444 -0.153428
C49   C     C_R   0.525435 0.278980 0.094510 -0.207415
C50   C     C_R   0.505521 0.223183 0.062592 0.460861
C51   C     C_R   0.450224 0.159358 0.146129 0.409493
C52   C     C_R   0.445014 0.218375 0.177834 -0.038691
C53   C     C_R   0.497885 0.277137 0.151279 0.042225
C54   C     C_R   0.390273 0.221579 0.234533 0.046831
C55   C     C_R   0.421998 0.279723 0.265559 0.112555
C56   C     C_R   0.494353 0.334845 0.237706 -0.187442
C57   C     C_R   0.524169 0.334089 0.181497 -0.149864
C58   C     C_R   0.285366 0.171190 0.259165 -0.315153
C59   C     C_R   0.237299 0.171987 0.314554 0.357073
C60   C     C_R   0.298202 0.224228 0.348201 -0.159486
C61   C     C_R   0.375947 0.281193 0.322908 0.068410
C62   C     C_R   0.275384 0.222523 0.406190 0.406187
C63   C     C_R   0.294059 0.280004 0.436403 -0.251346
C64   C     C_R   0.398630 0.338060 0.355749 -0.200179
H19   H     H_    0.570987 0.378607 0.161514 0.126798
H20   H     H_    0.445200 0.384060 0.339085 0.099341
H21   H     H_    0.267502 0.279397 0.480128 0.161074
H22   H     H_    0.560902 0.324670 0.074383 0.163716
H23   H     H_    0.524246 0.380400 0.257722 0.120749
H24   H     H_    0.225782 0.132501 0.234544 0.220930
O11   O     O_R   0.323550 0.942140 0.056770 -0.588997
O12   O     O_R   0.647080 0.077200 0.045890 -0.587422
O13   O     O_R   0.813610 0.057920 0.943260 -0.594627
C65   C     C_R   0.478131 0.101139 0.056588 1.055458
O14   O     O_R   0.653470 0.943760 0.063000 -0.581686
O15   O     O_R   0.820050 0.923540 0.960490 -0.597532
C66   C     C_R   0.485427 0.923722 0.079008 1.003680
O16   O     O_R   0.317110 0.076520 0.039540 -0.591932
O17   O     O_3   0.483830 0.993580 0.966380 -0.282683
V3    V     V_3+5 0.760140 0.001190 0.006240 1.206296
O18   O     O_R   0.149510 0.922740 0.954070 -0.593596
C67   C     C_R   0.981352 0.898838 0.943403 0.954344
O19   O     O_R   0.143120 0.056170 0.936970 -0.590089
C68   C     C_R   0.973410 0.076283 0.921134 0.974146
V4    V     V_3+5 0.259690 0.998700 0.993700 1.199143
O20   O     O_3   0.986130 0.006420 0.033620 -0.260136
O21   O     O_3   0.063404 0.603181 0.848188 -0.678403
H25   H     H_    0.066413 0.566707 0.821616 0.310057
N1    N     N_R   0.204912 0.161890 0.725365 0.229787
O22   O     O_R   0.297029 0.168330 0.679503 -0.376672
O23   O     O_R   0.251690 0.114649 0.758937 -0.411818
N2    N     N_R   0.706615 0.834727 0.278492 0.236243
O24   O     O_R   0.795762 0.826613 0.325137 -0.376329
O25   O     O_R   0.756365 0.882157 0.246009 -0.370724
N3    N     N_R   0.106110 0.123289 0.333943 0.262422
O26   O     O_R   0.950545 0.141095 0.359406 -0.340510
O27   O     O_R   0.123239 0.063034 0.317714 -0.294400
O28   O     O_3   0.529301 0.230262 0.006656 -0.740427
H26   H     H_    0.495743 0.189232 0.987764 0.301675
O29   O     O_3   0.456332 0.098077 0.170055 -0.746791
H27   H     H_    0.529684 0.101460 0.204927 0.348894
N4    N     N_R   0.247562 0.162316 0.435637 0.261772
O30   O     O_R   0.353328 0.111366 0.424410 -0.295850
O31   O     O_R   0.141963 0.161353 0.479440 -0.326534
O32   O     O_3   0.091768 0.663428 0.936542 -0.684959
H28   H     H_    0.115044 0.672739 0.975882 0.306398

loop_
_geom_bond_atom_site_label_1
_geom_bond_atom_site_label_2
_geom_bond_distance
_ccdc_geom_bond_type
C13   C19   1.441168 A    
C49   C53   1.399990 A    
O14   V3    1.965099 S    
O11   C66   1.296987 A    
V3    O20   1.706668 S    
C4    C6    1.474587 S    
C49   H22   1.084612 S    
C53   C57   1.395055 A    
O18   C67   1.296471 A    
C24   C32   1.556648 S    
C38   C66   1.456108 S    
C1    O6    1.297034 A    
O28   H26   0.988885 S    
C21   H2    1.083614 S    
C3    C26   1.450597 S    
C55   C61   1.438195 A    
C37   C45   1.218216 T    
O32   H28   0.991856 S    
C59   N3    1.437618 S    
C55   C56   1.411934 A    
C24   H9    1.110040 S    
O14   C66   1.303831 A    
C14   C15   1.401405 A    
C35   H15   1.110040 S    
C27   H13   1.109582 S    
O16   V4    1.992520 S    
C9    C10   1.426336 A    
C16   C17   1.387139 A    
C62   N4    1.437614 S    
C22   H1    1.076453 S    
O5    C3    1.296892 A    
C1    C37   1.456423 S    
C48   C63   1.390529 A    
C7    O32   1.383249 S    
V2    O10   2.148551 S    
C38   C46   1.218071 T    
C16   H7    1.075047 S    
C5    C8    1.388341 A    
C26   C34   1.214725 T    
C28   C33   1.482894 S    
C41   C43   1.538309 S    
C25   C68   1.450439 S    
O8    V2    1.974611 S    
C23   C30   1.542949 S    
C7    C8    1.403237 A    
C35   C39   1.556928 S    
N4    O30   1.301537 A    
C57   H19   1.084402 S    
C42   C46   1.488883 S    
C27   C29   1.556610 S    
O1    V2    1.987929 S    
C11   C15   1.414520 A    
O7    V1    2.153316 S    
C64   H20   1.076564 S    
C30   C32   1.544229 S    
C31   N1    1.456992 S    
C35   C42   1.545899 S    
C36   H14   1.110125 S    
C23   H10   1.110106 S    
C29   C31   1.537630 S    
C51   C52   1.437986 A    
N1    O23   1.300268 A    
C43   H17   1.110092 S    
C39   C40   1.545827 S    
C54   C58   1.403458 A    
O13   C68   1.296905 A    
C12   C13   1.433293 A    
O17   V3    2.153260 S    
C59   C60   1.417215 A    
O4    C2    1.296468 A    
C30   C34   1.481924 S    
C56   C57   1.388669 A    
O15   C67   1.298414 A    
C50   O28   1.382819 S    
C40   C45   1.488084 S    
C5    C9    1.399529 A    
C35   C36   1.554828 S    
C39   C41   1.537882 S    
O2    C1    1.303992 A    
C23   C24   1.554268 S    
C17   C18   1.392126 A    
C8    H4    1.084290 S    
C60   C62   1.425077 A    
C9    H5    1.075783 S    
C47   C51   1.415065 A    
N1    O22   1.300298 A    
C27   C28   1.545122 S    
C19   C22   1.428148 A    
C54   C55   1.431524 A    
O12   C65   1.297292 A    
C56   H23   1.075866 S    
C6    C22   1.406882 A    
C58   H24   1.080068 S    
O3    C4    1.298318 A    
C29   H12   1.110107 S    
C2    C48   1.475422 S    
C36   C44   1.554296 S    
O6    V2    1.965170 S    
C52   C54   1.439276 A    
O9    V2    1.991151 S    
N3    O26   1.301650 A    
O11   V4    1.964958 S    
C10   C12   1.439802 A    
O12   V3    1.994519 S    
N2    O25   1.300282 A    
O2    V1    1.965066 S    
C5    C67   1.475109 S    
C63   H21   1.084058 S    
C65   O16   1.298193 A    
C29   C30   1.543903 S    
C24   C28   1.544966 S    
H11   C32   1.110354 S    
O19   C68   1.300716 A    
O15   V3    1.989559 S    
C47   C50   1.415214 A    
C25   C33   1.214676 T    
C31   C32   1.537337 S    
O1    C2    1.299531 A    
C12   C16   1.413823 A    
O13   V3    1.960098 S    
O5    V1    1.959929 S    
C42   C44   1.546565 S    
O8    C3    1.300793 A    
C23   C27   1.553837 S    
C28   C31   1.529008 S    
C20   C21   1.390981 A    
O29   H27   0.991381 S    
C13   C14   1.406098 A    
O4    V1    1.994530 S    
O3    V1    1.989532 S    
V1    O10   1.706755 S    
O21   H25   0.991494 S    
C61   C64   1.425671 A    
C18   C20   1.403927 A    
C36   C40   1.543688 S    
C14   H6    1.074365 S    
C60   C61   1.428199 A    
C18   C19   1.419001 A    
C41   N2    1.457052 S    
C48   C64   1.401359 A    
C40   C43   1.544962 S    
C62   C63   1.398016 A    
H16   C44   1.109608 S    
O7    V2    1.703613 S    
C41   C42   1.529666 S    
C6    C21   1.394565 A    
O17   V4    1.702309 S    
C51   O29   1.379826 S    
C49   C50   1.392888 A    
C7    C11   1.425316 A    
C43   C44   1.557065 S    
C58   C59   1.394735 A    
N4    O31   1.301559 A    
C52   C53   1.415222 A    
C17   H3    1.084482 S    
N3    O27   1.301550 A    
C20   H8    1.083981 S    
C10   C11   1.429461 A    
C47   C65   1.480225 S    
O18   V4    1.991079 S    
C39   H18   1.110378 S    
C15   O21   1.384386 S    
N2    O24   1.300298 A    
O9    C4    1.296492 A    
V4    O20   2.148588 S    
O19   V4    1.974429 S    
