data_mof_unit_52848.cif
_audit_creation_date              2013-03-05T16:04:39-0500
_audit_creation_method            fapswitch 2.2
_symmetry_space_group_name_H-M    P1
_symmetry_Int_Tables_number       1
_space_group_crystal_system       triclinic
_cell_length_a                    9.49578
_cell_length_b                    10.80466
_cell_length_c                    15.383722
_cell_angle_alpha                 90.469545
_cell_angle_beta                  74.407835
_cell_angle_gamma                 89.391004
_cell_volume                      1520.07920696

loop_
_atom_site_label
_atom_site_type_symbol
_atom_site_description
_atom_site_fract_x
_atom_site_fract_y
_atom_site_fract_z
_atom_type_partial_charge
O1    O     O_R   0.118740 0.319660 0.500000 -0.538805
O2    O     O_R   0.881260 0.680340 0.500000 -0.536499
O3    O     O_R   0.881170 0.319630 0.500010 -0.595918
O4    O     O_R   0.118830 0.680370 0.499990 -0.599546
C1    C     C_R   0.001302 0.262074 0.498850 0.856622
C2    C     C_R   0.998518 0.737795 0.501407 0.837984
O5    O     O_R   0.055570 0.500030 0.629830 -0.594880
O6    O     O_R   0.944430 0.499970 0.370170 -0.585155
O7    O     O_R   0.818000 0.500000 0.629840 -0.564713
O8    O     O_R   0.182000 0.500000 0.370160 -0.585152
C3    C     C_R   0.918659 0.506924 0.672635 0.809242
C4    C     C_R   0.082116 0.496250 0.326515 0.807867
Cu1   Cu    Cu3+1 0.140660 0.500020 0.500000 0.949219
Cu2   Cu    Cu3+1 0.859340 0.499980 0.500000 0.970340
C5    C     C_R   0.873563 0.527583 0.771790 -0.149505
C6    C     C_R   0.125825 0.487069 0.225457 -0.169523
C7    C     C_R   0.880061 0.653462 0.903602 0.383378
C8    C     C_R   0.064462 0.464975 0.081515 0.374800
C9    C     C_R   0.949477 0.610665 0.815437 -0.002194
C10   C     C_R   0.020797 0.498816 0.174045 0.019779
C11   C     C_R   0.738932 0.477232 0.820591 0.041464
C12   C     C_R   0.275312 0.467265 0.177242 -0.015953
C13   C     C_R   0.660141 0.536209 0.902277 0.027706
C14   C     C_R   0.315608 0.492863 0.083862 0.005146
C15   C     C_R   0.736504 0.616634 0.946700 0.079244
C16   C     C_R   0.213103 0.471465 0.034512 0.057157
C17   C     C_R   0.509680 0.514259 0.944287 0.075507
C18   C     C_R   0.455277 0.535606 0.038019 0.091406
C19   C     C_R   0.534962 0.609726 0.082217 -0.218996
C20   C     C_R   0.408619 0.483771 0.895400 -0.235801
C21   C     C_R   0.669247 0.655466 0.035563 -0.139685
C22   C     C_R   0.261424 0.465600 0.939753 -0.140195
H1    H     H_    0.721849 0.717769 0.071379 0.199986
H2    H     H_    0.185944 0.450811 0.899155 0.192614
H3    H     H_    0.488822 0.640870 0.151129 0.146151
H4    H     H_    0.438459 0.487311 0.822659 0.149070
C23   C     C_R   0.875327 0.068040 0.546186 -0.279007
C24   C     C_R   0.124189 0.931609 0.456677 -0.275721
H5    H     H_    0.779437 0.120863 0.582375 0.182852
H6    H     H_    0.220453 0.878917 0.420894 0.189354
C25   C     C_R   0.871560 0.939934 0.548762 0.385033
C26   C     C_R   0.128241 0.059424 0.454577 0.395943
C27   C     C_R   0.996711 0.871468 0.502669 -0.180794
C28   C     C_R   0.002619 0.128206 0.499308 -0.165769
C29   C     C_R   0.555139 0.412675 0.546600 -0.002363
C30   C     C_R   0.444779 0.587626 0.453784 -0.047768
H7    H     H_    0.595702 0.342985 0.584170 0.117609
H8    H     H_    0.404168 0.657812 0.416637 0.128332
C31   C     C_R   0.406091 0.412918 0.546771 0.006988
C32   C     C_R   0.593287 0.588215 0.454676 -0.001645
H9    H     H_    0.334237 0.343455 0.584414 0.134432
H10   H     H_    0.664352 0.659571 0.419803 0.154221
N1    N     N_R   0.352080 0.500030 0.499980 -0.161591
N2    N     N_R   0.647920 0.499970 0.500020 -0.157664
C33   C     C_3   0.386663 0.405522 0.220318 -0.340819
C34   C     C_3   0.484643 0.305194 0.160670 -0.359373
C35   C     C_3   0.600504 0.256593 0.204469 -0.720995
H11   H     H_    0.675323 0.332172 0.211178 0.252074
H12   H     H_    0.549189 0.218854 0.272202 0.291373
H13   H     H_    0.665848 0.181813 0.161608 0.256029
H14   H     H_    0.415693 0.227159 0.149768 0.238244
H15   H     H_    0.544040 0.340469 0.093826 0.238748
H16   H     H_    0.454429 0.476505 0.241686 0.190248
H17   H     H_    0.328685 0.354223 0.281120 0.263157
C36   C     C_3   0.698789 0.348036 0.793074 -0.381922
C37   C     C_3   0.687250 0.253300 0.868630 -0.345677
C38   C     C_3   0.665573 0.122632 0.836224 -0.770365
H18   H     H_    0.563576 0.118752 0.814006 0.263019
H19   H     H_    0.759933 0.093947 0.779180 0.260873
H20   H     H_    0.656780 0.056584 0.892315 0.257878
H21   H     H_    0.788968 0.254354 0.891359 0.264951
H22   H     H_    0.593555 0.276595 0.927353 0.227801
H23   H     H_    0.598256 0.349025 0.770079 0.187564
H24   H     H_    0.785060 0.311599 0.734255 0.187197
C39   C     C_3   0.871265 0.561065 0.211127 -0.358353
C40   C     C_3   0.888021 0.697698 0.236261 -0.326116
C41   C     C_3   0.744453 0.771944 0.254106 -0.833126
H25   H     H_    0.647617 0.711195 0.273216 0.227621
H26   H     H_    0.737761 0.840264 0.309478 0.257406
H27   H     H_    0.740219 0.824700 0.193372 0.263920
H28   H     H_    0.928657 0.703361 0.297320 0.217279
H29   H     H_    0.970716 0.742581 0.180631 0.253854
H30   H     H_    0.808726 0.560760 0.159999 0.246543
H31   H     H_    0.802016 0.509612 0.268586 0.205460
C42   C     C_3   0.103156 0.655713 0.770129 -0.352335
C43   C     C_3   0.097422 0.775337 0.718335 -0.325902
C44   C     C_3   0.249788 0.814005 0.664477 -0.732136
H32   H     H_    0.320074 0.831104 0.710441 0.273446
H33   H     H_    0.301133 0.740678 0.614748 0.265287
H34   H     H_    0.241603 0.900450 0.627503 0.246542
H35   H     H_    0.027628 0.762306 0.671856 0.224408
H36   H     H_    0.047659 0.850985 0.766567 0.251953
H37   H     H_    0.165595 0.672595 0.820406 0.238928
H38   H     H_    0.171276 0.583334 0.727028 0.206573
Cl1   Cl    Cl    0.971763 0.757632 0.959481 -0.682298
Cl2   Cl    Cl    0.934156 0.415102 0.025916 -0.716434
Cl3   Cl    Cl    0.711147 0.870603 0.614558 -0.654232
Cl4   Cl    Cl    0.290754 0.127568 0.391413 -0.682898

loop_
_geom_bond_atom_site_label_1
_geom_bond_atom_site_label_2
_geom_bond_distance
_ccdc_geom_bond_type
C15   C21   1.402960 A    
O5    Cu1   1.942782 S    
C20   C22   1.397533 A    
C44   H32   1.110743 S    
C39   C40   1.543667 S    
C16   C22   1.406370 A    
C8    Cl2   1.768760 S    
C42   H37   1.108836 S    
C8    C16   1.405084 A    
C33   C34   1.544674 S    
C41   H25   1.110612 S    
O5    C3    1.290848 A    
C32   N2    1.363721 A    
O1    C1    1.286940 A    
C18   C19   1.398834 A    
C14   C16   1.405859 A    
C24   C26   1.382336 A    
C43   H35   1.106961 S    
C26   Cl4   1.759965 S    
C39   H31   1.107318 S    
C35   H12   1.107994 S    
C36   H23   1.103622 S    
C34   C35   1.527153 S    
O4    Cu1   1.957429 S    
C25   Cl3   1.764595 S    
C3    C5    1.483651 S    
C37   H22   1.109260 S    
C4    C6    1.499582 S    
C31   H9    1.081558 S    
C33   H16   1.109243 S    
C32   H10   1.077412 S    
C21   H1    1.074820 S    
C7    Cl1   1.780837 S    
C13   C17   1.424270 A    
C8    C10   1.415214 A    
C6    C10   1.435017 A    
C41   H26   1.110927 S    
C37   C38   1.527729 S    
Cu1   Cu2   2.671358 S    
C17   C20   1.409144 A    
C25   C27   1.407845 A    
O2    C2    1.285713 A    
C26   C28   1.407226 A    
Cu1   N1    2.007515 S    
C29   H7    1.081685 S    
C30   H8    1.081522 S    
C38   H18   1.111407 S    
C40   C41   1.532780 S    
O4    C2    1.289174 A    
C40   H29   1.112576 S    
C43   C44   1.525924 S    
C35   H13   1.110515 S    
O6    Cu2   1.942782 S    
C9    C42   1.525165 S    
C42   C43   1.532023 S    
C36   H24   1.110705 S    
C10   C39   1.527062 S    
C38   H19   1.111730 S    
C22   H2    1.082012 S    
C5    C9    1.428422 A    
O7    Cu2   1.929320 S    
C42   H38   1.104461 S    
C37   H21   1.112235 S    
C29   C31   1.414598 A    
O6    C4    1.299405 A    
C33   H17   1.106070 S    
O7    C3    1.300624 A    
O3    Cu2   1.957429 S    
O8    C4    1.301836 A    
Cu2   N2    2.007516 S    
C1    C28   1.446407 S    
C29   N2    1.366986 A    
C2    C27   1.444120 S    
C11   C13   1.419966 A    
C34   H15   1.104548 S    
O1    Cu1   1.962012 S    
C41   H27   1.108112 S    
C19   H3    1.081851 S    
C6    C12   1.426834 A    
C11   C36   1.536707 S    
C14   C18   1.408965 A    
O3    C1    1.289242 A    
O8    Cu1   1.929321 S    
C40   H28   1.108762 S    
C12   C33   1.539835 S    
C30   C32   1.414024 A    
C20   H4    1.079094 S    
C38   H20   1.110605 S    
C7    C15   1.409319 A    
C23   C28   1.399825 A    
C44   H33   1.109961 S    
C24   C27   1.397143 A    
C23   H5    1.084438 S    
C43   H36   1.111430 S    
C24   H6    1.084459 S    
C39   H30   1.105630 S    
C35   H11   1.110236 S    
C31   N1    1.366156 A    
C30   N1    1.366781 A    
C7    C9    1.410866 A    
C12   C14   1.414143 A    
C13   C15   1.420553 A    
C23   C25   1.385599 A    
O2    Cu2   1.962012 S    
C5    C11   1.414024 A    
C19   C21   1.382956 A    
C36   C37   1.537588 S    
C44   H34   1.110354 S    
C17   C18   1.410975 A    
C34   H14   1.111814 S    
