data_mof_unit_59160.cif
_audit_creation_date              2012-12-10T17:32:18-0500
_audit_creation_method            fapswitch 2.2
_symmetry_space_group_name_H-M    P1
_symmetry_Int_Tables_number       1
_space_group_crystal_system       triclinic
_cell_length_a                    12.310987
_cell_length_b                    13.007375
_cell_length_c                    15.034489
_cell_angle_alpha                 77.806068
_cell_angle_beta                  100.529356
_cell_angle_gamma                 116.255206
_cell_volume                      2099.45502656

loop_
_atom_site_label
_atom_site_type_symbol
_atom_type_description
_atom_site_fract_x
_atom_site_fract_y
_atom_site_fract_z
_atom_type_partial_charge
C1    C     C_R   0.855431 0.285848 0.507822 0.765710
C2    C     C_R   0.938618 0.547553 0.075359 0.125670
C3    C     C_R   0.040254 0.312843 0.080672 0.158979
C4    C     C_R   0.046914 0.323628 0.986827 -0.233694
C5    C     C_R   0.019437 0.406153 0.924125 0.064326
C6    C     C_R   0.978827 0.477340 0.953665 0.071147
C7    C     C_R   0.940557 0.553951 0.888768 0.122607
C8    C     C_R   0.898524 0.623931 0.917693 -0.218802
C9    C     C_R   0.897443 0.620658 0.010495 -0.201278
C10   C     C_R   0.027152 0.414978 0.831309 -0.236035
C11   C     C_R   0.991192 0.492050 0.767482 -0.066273
C12   C     C_R   0.998053 0.498698 0.670936 0.807851
C13   C     C_R   0.945706 0.559783 0.795857 -0.253941
C14   C     C_R   0.281368 0.036018 0.386207 -0.237659
C15   C     C_R   0.228158 0.840030 0.466554 -0.086551
C16   C     C_R   0.815176 0.079986 0.563066 -0.192503
C17   C     C_R   0.735371 0.963660 0.577869 -0.153729
C18   C     C_R   0.612841 0.927973 0.545128 -0.171185
C19   C     C_R   0.568379 0.008325 0.492621 0.084978
C20   C     C_R   0.653768 0.123038 0.467308 0.025562
C21   C     C_R   0.442673 0.979386 0.464747 0.045629
C22   C     C_R   0.406235 0.062796 0.406833 0.061902
C23   C     C_R   0.145085 0.715110 0.485512 0.791091
C24   C     C_R   0.494908 0.170511 0.369493 0.132277
C25   C     C_R   0.617509 0.196665 0.398664 -0.191301
C26   C     C_R   0.351960 0.870519 0.494879 -0.276023
C27   C     C_R   0.191731 0.926382 0.414645 0.165001
C28   C     C_R   0.774769 0.161305 0.510130 -0.091572
C29   C     C_R   0.345406 0.328072 0.650599 0.069102
C30   C     C_R   0.755640 0.639557 0.371471 0.050509
C31   C     C_R   0.657112 0.669670 0.342211 0.104981
C32   C     C_R   0.556228 0.616767 0.392766 -0.269335
C33   C     C_R   0.551035 0.532951 0.470610 -0.010072
C34   C     C_R   0.998638 0.496214 0.329184 0.820041
C35   C     C_R   0.653882 0.506036 0.496623 0.270491
C36   C     C_R   0.447174 0.473929 0.522664 -0.058386
C37   C     C_R   0.447525 0.387874 0.599010 0.139158
C38   C     C_R   0.549443 0.363003 0.621825 -0.283702
C39   C     C_R   0.649367 0.420676 0.572368 -0.168310
C40   C     C_R   0.342187 0.496607 0.502050 0.012047
C41   C     C_R   0.245619 0.355728 0.625033 0.025630
C42   C     C_R   0.942539 0.549786 0.167427 -0.304814
C43   C     C_R   0.992584 0.485334 0.233093 -0.070159
C44   C     C_R   0.032402 0.409975 0.207433 0.094671
C45   C     C_R   0.016791 0.396364 0.113470 0.006642
C46   C     C_R   0.977736 0.473158 0.047731 -0.002791
Cu1   Cu    Cu3+1 0.098270 0.475420 0.521130 0.936630
Cu2   Cu    Cu3+1 0.901730 0.524580 0.478870 0.905889
H1    H     H_    0.911920 0.606914 0.188062 0.152396
H2    H     H_    0.251821 0.100366 0.346733 0.131545
H3    H     H_    0.375577 0.806320 0.540733 0.160438
H4    H     H_    0.907999 0.106608 0.594774 0.144752
H5    H     H_    0.556397 0.836709 0.560834 0.127271
H6    H     H_    0.767687 0.901204 0.617924 0.137940
H7    H     H_    0.686376 0.274442 0.366641 0.182363
H8    H     H_    0.166648 0.312152 0.663059 0.120793
H9    H     H_    0.554238 0.298179 0.678714 0.165064
H10   H     H_    0.334203 0.560636 0.446102 0.136840
H11   H     H_    0.833138 0.675978 0.332962 0.143285
H12   H     H_    0.482128 0.641709 0.368385 0.137084
H13   H     H_    0.720876 0.393779 0.596011 0.208623
H14   H     H_    0.067529 0.262657 0.961644 0.148528
H15   H     H_    0.058807 0.360149 0.808409 0.140570
H16   H     H_    0.916873 0.618613 0.745820 0.148772
H17   H     H_    0.868012 0.682232 0.868632 0.140274
H18   H     H_    0.866286 0.676899 0.031699 0.139162
N1    N     N_R   0.246280 0.438190 0.553160 -0.193445
N2    N     N_R   0.754320 0.561190 0.447410 -0.231603
O1    O     O_R   0.972510 0.318130 0.526570 -0.581971
O2    O     O_R   0.806530 0.359650 0.490890 -0.599816
O3    O     O_R   0.082980 0.479210 0.647590 -0.579449
O4    O     O_R   0.917000 0.520730 0.611900 -0.601168
O5    O     O_R   0.193470 0.640350 0.509110 -0.583085
O6    O     O_R   0.027490 0.681870 0.473430 -0.576967
O7    O     O_R   0.083000 0.479270 0.388100 -0.547957
O8    O     O_R   0.917020 0.520790 0.352410 -0.610345
C47   C     C_3   0.457289 0.255529 0.298899 -0.421206
C48   C     C_3   0.560005 0.365627 0.257680 -0.824415
H19   H     H_    0.618240 0.418008 0.311785 0.267694
H20   H     H_    0.615746 0.343587 0.221103 0.249338
H21   H     H_    0.520267 0.419079 0.207685 0.241470
H22   H     H_    0.399811 0.209353 0.241217 0.208032
H23   H     H_    0.402216 0.283330 0.331111 0.208990
C49   C     C_3   0.338913 0.235815 0.732915 -0.435252
C50   C     C_3   0.410376 0.290134 0.818086 -0.818882
H24   H     H_    0.404201 0.220628 0.876980 0.239957
H25   H     H_    0.507808 0.343766 0.807814 0.255386
H26   H     H_    0.371520 0.345515 0.834691 0.250659
H27   H     H_    0.242836 0.182203 0.747896 0.190224
H28   H     H_    0.371469 0.174268 0.718906 0.205536
N3    N     N_3   0.100581 0.361022 0.276346 -0.579402
H29   H     H_    0.043088 0.280732 0.309064 0.215048
H30   H     H_    0.173054 0.359791 0.250816 0.236783
C51   C     C_3   0.653149 0.755884 0.257463 -0.392696
C52   C     C_3   0.763176 0.807236 0.202510 -0.896461
H31   H     H_    0.846912 0.857963 0.244319 0.247289
H32   H     H_    0.774442 0.737604 0.178680 0.245301
H33   H     H_    0.749005 0.866767 0.141468 0.249684
H34   H     H_    0.570610 0.712136 0.211269 0.209474
H35   H     H_    0.643797 0.828391 0.278361 0.209874
C53   C     C_3   0.038973 0.200533 0.136684 -0.395689
C54   C     C_3   0.162368 0.195377 0.145988 -0.874844
H36   H     H_    0.184981 0.192929 0.078537 0.252316
H37   H     H_    0.236180 0.271412 0.174295 0.249675
H38   H     H_    0.158516 0.115156 0.191772 0.232363
H39   H     H_    0.005797 0.181239 0.204021 0.195273
H40   H     H_    0.970987 0.127291 0.101260 0.198328
C55   C     C_3   0.060478 0.906372 0.384675 -0.398691
C56   C     C_3   0.996890 0.905505 0.463360 -0.781641
H41   H     H_    0.899452 0.884504 0.439997 0.239816
H42   H     H_    0.002420 0.840685 0.523035 0.260225
H43   H     H_    0.039814 0.992426 0.485494 0.237656
H44   H     H_    0.054641 0.976096 0.329371 0.182333
H45   H     H_    0.011812 0.826407 0.353284 0.200156

loop_
_geom_bond_atom_site_label_1
_geom_bond_atom_site_label_2
_ccdc_geom_bond_type
C16   C28   A    
C21   C26   A    
C53   H40   S    
C53   C54   S    
Cu2   O8    S    
C52   H31   S    
C52   H33   S    
C7    C8    A    
C41   N1    A    
C14   H2    S    
C50   H24   S    
C2    C46   A    
C51   H34   S    
C36   C37   A    
C19   C21   A    
C23   O5    A    
C56   H42   S    
C30   C31   A    
C48   H20   S    
C20   C25   A    
C47   H23   S    
C4    H14   S    
C33   C36   A    
C35   N2    A    
C55   C56   S    
C54   H38   S    
C18   C19   A    
C55   H45   S    
C9    H18   S    
Cu1   O1    S    
C47   H22   S    
C18   H5    S    
C10   H15   S    
C16   C17   A    
C40   N1    A    
C1    C28   S    
C14   C27   A    
C47   C48   S    
C34   O7    A    
C3    C53   S    
C15   C23   S    
C12   O4    A    
C8    H17   S    
C21   C22   A    
C54   H36   S    
C49   H28   S    
Cu2   O4    S    
Cu1   N1    S    
C50   H25   S    
C38   C39   A    
C39   H13   S    
C40   H10   S    
Cu2   O6    S    
C36   C40   A    
C24   C25   A    
Cu1   O5    S    
C29   C49   S    
C56   H43   S    
N3    H29   S    
C48   H19   S    
C8    C9    A    
C15   C26   A    
C20   C28   A    
C45   C46   A    
C3    C45   A    
C1    O1    A    
C55   H44   S    
C35   C39   A    
C43   C44   A    
C41   H8    S    
C37   C38   A    
N3    H30   S    
C38   H9    S    
C15   C27   A    
Cu1   Cu2   S    
C51   H35   S    
C30   H11   S    
C17   C18   A    
C49   C50   S    
C54   H37   S    
Cu1   O3    S    
C44   N3    S    
C12   O3    A    
C22   C24   A    
C49   H27   S    
C32   H12   S    
C23   O6    A    
C3    C4    A    
C44   C45   A    
C50   H26   S    
C53   H39   S    
C6    C46   A    
C29   C41   A    
C31   C32   A    
C34   C43   S    
C16   H4    S    
Cu2   O2    S    
C4    C5    A    
Cu2   N2    S    
C11   C12   S    
C52   H32   S    
C6    C7    A    
C31   C51   S    
C1    O2    A    
C32   C33   A    
C14   C22   A    
C19   C20   A    
Cu1   O7    S    
C5    C10   A    
C26   H3    S    
C11   C13   A    
C48   H21   S    
C5    C6    A    
C13   H16   S    
C27   C55   S    
C2    C42   A    
C33   C35   A    
C25   H7    S    
C51   C52   S    
C10   C11   A    
C42   H1    S    
C24   C47   S    
C7    C13   A    
C42   C43   A    
C29   C37   A    
C56   H41   S    
C2    C9    A    
C17   H6    S    
C30   N2    A    
C34   O8    A    
