data_mof_unit_50080.cif
_audit_creation_date              2012-12-10T19:53:03-0500
_audit_creation_method            fapswitch 2.2
_symmetry_space_group_name_H-M    P1
_symmetry_Int_Tables_number       1
_space_group_crystal_system       triclinic
_cell_length_a                    14.92095
_cell_length_b                    14.160392
_cell_length_c                    15.781708
_cell_angle_alpha                 90.527351
_cell_angle_beta                  90.701165
_cell_angle_gamma                 89.8552
_cell_volume                      3334.06123474

loop_
_atom_site_label
_atom_site_type_symbol
_atom_type_description
_atom_site_fract_x
_atom_site_fract_y
_atom_site_fract_z
_atom_type_partial_charge
C1    C     C_R   0.327085 0.499940 0.505441 0.964817
C2    C     C_3   0.606279 0.510753 0.952983 0.921213
C3    C     C_3   0.600615 0.504990 0.052824 -0.532026
C4    C     C_1   0.507901 0.499363 0.825010 0.123440
C5    C     C_1   0.498998 0.495393 0.173137 0.056229
C6    C     C_1   0.498556 0.497585 0.248604 -0.215702
C7    C     C_R   0.089341 0.583639 0.528537 0.400758
C8    C     C_R   0.095798 0.416671 0.563625 0.451839
C9    C     C_R   0.182420 0.585675 0.525979 0.315438
C10   C     C_R   0.186081 0.413876 0.542742 0.317357
C11   C     C_R   0.230736 0.499484 0.523099 -0.463274
C12   C     C_R   0.046519 0.498906 0.548121 -0.205368
C13   C     C_R   0.911223 0.435795 0.477607 0.538546
C14   C     C_R   0.896699 0.550985 0.593816 0.569337
C15   C     C_R   0.499196 0.499466 0.337899 0.887497
C16   C     C_R   0.819167 0.436891 0.465786 -0.318707
C17   C     C_R   0.805058 0.556611 0.576285 -0.329276
C18   C     C_R   0.767255 0.499369 0.512909 -0.175008
C19   C     C_R   0.949813 0.493533 0.541498 -0.004116
C20   C     C_R   0.507405 0.100228 0.428024 0.417162
C21   C     C_R   0.428210 0.896880 0.468099 0.405641
C22   C     C_R   0.503909 0.200191 0.426286 0.505262
C23   C     C_R   0.431669 0.796734 0.462096 0.502444
C24   C     C_R   0.496684 0.206702 0.575877 -0.100476
C25   C     C_R   0.567149 0.794683 0.541739 -0.111438
C26   C     C_R   0.497720 0.107318 0.580041 -0.391372
C27   C     C_R   0.568306 0.894058 0.545768 -0.391205
C28   C     C_R   0.502023 0.052648 0.505641 0.032399
C29   C     C_R   0.499104 0.946581 0.507674 0.025603
C30   C     C_R   0.672184 0.499902 0.500970 0.936036
C31   C     C_R   0.501363 0.500350 0.661651 0.876188
C32   C     C_3   0.446249 0.580312 0.046946 0.272806
C33   C     C_3   0.462118 0.400622 0.044544 0.236575
C34   C     C_3   0.466049 0.401642 0.945428 0.192594
C35   C     C_3   0.444095 0.577635 0.948435 0.293046
C36   C     C_1   0.505460 0.500717 0.750026 -0.209882
C37   C     C_3   0.501837 0.494848 0.081135 -0.024201
C38   C     C_3   0.507833 0.497090 0.916342 -0.060456
H1    H     H_    0.373877 0.558421 0.929144 -0.031328
H2    H     H_    0.394683 0.399607 0.922619 0.020145
H3    H     H_    0.788595 0.390838 0.418452 0.182904
H4    H     H_    0.762997 0.603854 0.612828 0.167836
H5    H     H_    0.493015 0.246821 0.634226 0.176506
H6    H     H_    0.620449 0.755112 0.572128 0.175396
H7    H     H_    0.493877 0.073345 0.641079 0.178729
H8    H     H_    0.623539 0.929728 0.577499 0.188403
H9    H     H_    0.375554 0.571401 0.068339 -0.013877
H10   H     H_    0.390180 0.399075 0.063653 -0.005909
H11   H     H_    0.627979 0.570914 0.081818 0.209800
H12   H     H_    0.641485 0.449469 0.083101 0.178368
N1    N     N_R   0.499980 0.252470 0.500000 -0.151836
N2    N     N_R   0.499980 0.747530 0.500000 -0.154064
O1    O     O_R   0.369070 0.579480 0.500010 -0.537007
O2    O     O_R   0.369070 0.420520 0.500010 -0.611656
O3    O     O_R   0.500010 0.579510 0.377140 -0.612532
O4    O     O_R   0.500010 0.420490 0.377140 -0.559879
O5    O     O_R   0.630940 0.579480 0.499990 -0.629198
O6    O     O_R   0.630940 0.420520 0.499990 -0.600804
O7    O     O_R   0.500000 0.579440 0.622860 -0.628543
O8    O     O_R   0.500000 0.420560 0.622860 -0.627800
Zn1   Zn    Zn3+2 0.500010 0.606140 0.500000 0.970199
Zn2   Zn    Zn3+2 0.500010 0.393860 0.500000 0.978118
O9    O     O_3   0.511743 0.049429 0.352910 -0.584745
C39   C     C_3   0.602629 0.036784 0.332246 -0.318320
H13   H     H_    0.639381 0.996978 0.382341 0.161167
H14   H     H_    0.635996 0.105613 0.320758 0.185076
H15   H     H_    0.606257 0.994629 0.272806 0.186217
O10   O     O_3   0.356798 0.946198 0.433396 -0.591188
C40   C     C_3   0.286909 0.947762 0.492661 -0.330267
H16   H     H_    0.308624 0.980894 0.553798 0.154758
H17   H     H_    0.260462 0.875690 0.503202 0.209864
H18   H     H_    0.230843 0.990498 0.466845 0.202010
O11   O     O_3   0.510629 0.244578 0.349466 -0.580166
C41   C     C_3   0.424414 0.249889 0.312396 -0.272408
H19   H     H_    0.428858 0.293586 0.255021 0.192118
H20   H     H_    0.376632 0.287077 0.354292 0.135443
H21   H     H_    0.398663 0.178946 0.293935 0.181599
O12   O     O_3   0.362326 0.747532 0.423980 -0.547316
C42   C     C_3   0.369354 0.755138 0.335570 -0.239295
H22   H     H_    0.321468 0.704736 0.305751 0.163349
H23   H     H_    0.437786 0.736608 0.313490 0.139650
H24   H     H_    0.350651 0.826994 0.314020 0.198506
O13   O     O_3   0.509812 0.322424 0.078804 -0.598059
C43   C     C_3   0.455469 0.240645 0.080304 0.143184
H25   H     H_    0.429207 0.222459 0.016263 0.159260
H26   H     H_    0.397130 0.251431 0.122367 0.092064
C44   C     C_3   0.511741 0.157678 0.112327 -0.325695
H27   H     H_    0.568791 0.145642 0.068845 0.221763
H28   H     H_    0.539490 0.174716 0.176283 0.261027
C45   C     C_3   0.456312 0.067462 0.116976 -0.946349
H29   H     H_    0.399575 0.077332 0.161101 0.271303
H30   H     H_    0.499078 0.008760 0.140449 0.274393
H31   H     H_    0.429641 0.047849 0.053204 0.257320
O14   O     O_3   0.485783 0.666527 0.075816 -0.565735
C46   C     C_3   0.427291 0.720317 0.127048 0.123211
H32   H     H_    0.469319 0.769595 0.165485 0.152540
H33   H     H_    0.390334 0.675518 0.172331 0.094651
C47   C     C_3   0.362256 0.778676 0.072740 -0.331458
H34   H     H_    0.400752 0.820670 0.026519 0.252176
H35   H     H_    0.316112 0.730701 0.037462 0.203188
C48   C     C_3   0.306360 0.845612 0.127014 -1.003444
H36   H     H_    0.264158 0.804839 0.171073 0.261353
H37   H     H_    0.261789 0.888387 0.085513 0.272582
H38   H     H_    0.350470 0.894191 0.164011 0.279866
O15   O     O_3   0.515959 0.323442 0.913655 -0.559353
C49   C     C_3   0.468426 0.273791 0.849333 -0.311980
H39   H     H_    0.454356 0.319082 0.793755 0.171620
H40   H     H_    0.404633 0.244468 0.873277 0.135906
H41   H     H_    0.510301 0.213701 0.827517 0.183018
O16   O     O_3   0.469676 0.666929 0.915424 -0.489002
C50   C     C_3   0.404412 0.702649 0.858588 -0.291471
H42   H     H_    0.339815 0.715190 0.891024 0.133502
H43   H     H_    0.394051 0.654467 0.803405 0.149379
H44   H     H_    0.427988 0.771352 0.834219 0.188928
O17   O     O_3   0.631830 0.604585 0.931773 -0.588418
C51   C     C_3   0.724992 0.621193 0.940627 0.122168
H45   H     H_    0.761649 0.585638 0.888280 0.162021
H46   H     H_    0.751591 0.596070 0.002458 0.105969
C52   C     C_3   0.741408 0.727391 0.935494 -0.311267
H47   H     H_    0.718445 0.753293 0.872560 0.229302
H48   H     H_    0.702004 0.764241 0.985234 0.243837
C53   C     C_3   0.840404 0.751115 0.948063 -1.006506
H49   H     H_    0.864245 0.727580 0.011414 0.265319
H50   H     H_    0.849821 0.828672 0.943793 0.274647
H51   H     H_    0.881087 0.716240 0.898342 0.262065
O18   O     O_3   0.665319 0.446390 0.909217 -0.665707
C54   C     C_3   0.699993 0.366958 0.952666 0.119124
H52   H     H_    0.709068 0.310386 0.904266 0.189192
H53   H     H_    0.653792 0.335855 0.998791 0.215744
C55   C     C_3   0.792474 0.388106 0.991619 -0.455119
H54   H     H_    0.837676 0.414098 0.941490 0.228794
H55   H     H_    0.787521 0.443584 0.041308 0.208610
C56   C     C_3   0.833495 0.299972 0.031428 -0.939233
H56   H     H_    0.789826 0.273552 0.082528 0.270038
H57   H     H_    0.900213 0.317378 0.059247 0.261903
H58   H     H_    0.842116 0.243640 0.982735 0.262039
O19   O     O_3   0.040718 0.666336 0.518902 -0.554946
C57   C     C_3   0.029461 0.684347 0.431743 -0.279684
H59   H     H_    0.984445 0.631094 0.401562 0.132289
H60   H     H_    0.094646 0.687070 0.398244 0.178633
H61   H     H_    0.996903 0.754359 0.424547 0.189185
O20   O     O_3   0.053683 0.335705 0.590729 -0.565121
C58   C     C_3   0.052160 0.337899 0.679969 -0.294086
H62   H     H_    0.013053 0.399404 0.703943 0.153561
H63   H     H_    0.121282 0.338736 0.707386 0.167255
H64   H     H_    0.018760 0.272931 0.702184 0.187365
O21   O     O_3   0.224419 0.672511 0.522786 -0.560253
C59   C     C_3   0.251168 0.700617 0.605856 0.162768
H65   H     H_    0.311745 0.745369 0.600079 0.157269
H66   H     H_    0.271543 0.640241 0.646980 0.090759
C60   C     C_3   0.177477 0.758974 0.648718 -0.334337
H67   H     H_    0.153600 0.815179 0.605224 0.242650
H68   H     H_    0.119960 0.712665 0.663670 0.266091
C61   C     C_3   0.211326 0.804431 0.730966 -1.029035
H69   H     H_    0.231161 0.748939 0.776725 0.260154
H70   H     H_    0.157101 0.847770 0.759320 0.282883
H71   H     H_    0.269600 0.850839 0.718737 0.261202
O22   O     O_3   0.230902 0.328499 0.550358 -0.598504
C62   C     C_3   0.235058 0.282520 0.470329 0.160018
H72   H     H_    0.299173 0.242652 0.469448 0.157327
H73   H     H_    0.235764 0.332420 0.415896 0.097568
C63   C     C_3   0.159298 0.210901 0.457989 -0.321054
H74   H     H_    0.160919 0.159461 0.510761 0.230758
H75   H     H_    0.093638 0.247532 0.457702 0.295992
C64   C     C_3   0.168561 0.158231 0.373668 -1.014638
H76   H     H_    0.161203 0.208184 0.320141 0.261365
H77   H     H_    0.115443 0.103719 0.367734 0.280720
H78   H     H_    0.235053 0.123104 0.369760 0.281891
O23   O     O_3   0.962487 0.373496 0.430560 -0.581742
C65   C     C_3   0.985651 0.416686 0.353821 -0.389260
H79   H     H_    0.033975 0.475109 0.365279 0.147973
H80   H     H_    0.925611 0.442439 0.318240 0.165886
H81   H     H_    0.019493 0.363412 0.313279 0.199354
O24   O     O_3   0.937061 0.605691 0.656924 -0.573089
C66   C     C_3   0.896330 0.589597 0.735744 -0.367267
H82   H     H_    0.881046 0.513563 0.746071 0.151529
H83   H     H_    0.834755 0.633180 0.742156 0.181535
H84   H     H_    0.943758 0.611808 0.786715 0.187084

loop_
_geom_bond_atom_site_label_1
_geom_bond_atom_site_label_2
_ccdc_geom_bond_type
O6    Zn2   S    
C58   H64   S    
C32   O14   S    
C44   H27   S    
C4    C36   T    
O18   C54   S    
C5    C37   S    
C27   C29   A    
O23   C65   S    
C55   H55   S    
C46   H32   S    
C1    C11   S    
C59   C60   S    
C54   H53   S    
C3    H11   S    
C46   C47   S    
C66   H83   S    
C64   H76   S    
C41   H20   S    
C34   H2    S    
C28   C29   S    
C59   H66   S    
N2    Zn1   S    
C31   C36   S    
C5    C6    T    
C49   H39   S    
C58   H62   S    
C30   O5    A    
C30   O6    A    
C51   H45   S    
O8    Zn2   S    
O11   C41   S    
C60   C61   S    
C31   O7    A    
C40   H17   S    
C1    O1    A    
O24   C66   S    
O21   C59   S    
C6    C15   S    
O16   C50   S    
O1    Zn1   S    
C62   H72   S    
O10   C40   S    
C41   H21   S    
C56   H58   S    
C60   H67   S    
C62   H73   S    
C18   C30   S    
C10   O22   S    
C61   H70   S    
C26   H7    S    
C24   N1    A    
C13   O23   S    
C48   H37   S    
C23   N2    A    
C14   C17   A    
C64   H77   S    
C40   H16   S    
N1    Zn2   S    
C25   H6    S    
C3    H12   S    
C17   C18   A    
C66   H84   S    
C63   H75   S    
C52   H48   S    
C7    C12   A    
O7    Zn1   S    
C41   H19   S    
C13   C19   A    
C48   H36   S    
C35   C38   S    
C43   H25   S    
C61   H71   S    
C10   C11   A    
C7    O19   S    
O12   C42   S    
O2    Zn2   S    
C21   C29   A    
C9    O21   S    
C33   C37   S    
O9    C39   S    
C39   H14   S    
C31   O8    A    
C40   H18   S    
C35   H1    S    
C1    O2    A    
C39   H15   S    
C63   C64   S    
C9    C11   A    
C2    O17   S    
C2    C38   S    
C45   H30   S    
O13   C43   S    
C8    C12   A    
C33   C34   S    
C62   C63   S    
C50   H43   S    
C32   C37   S    
C59   H65   S    
C33   O13   S    
C61   H69   S    
C35   O16   S    
C57   H60   S    
C2    O18   S    
C27   H8    S    
C8    C10   A    
C64   H78   S    
C20   C22   A    
C48   H38   S    
C47   H35   S    
C21   C23   A    
C21   O10   S    
O22   C62   S    
C32   H9    S    
O4    Zn2   S    
C44   C45   S    
C55   C56   S    
C53   H50   S    
C54   H52   S    
C17   H4    S    
C45   H31   S    
C42   H23   S    
C63   H74   S    
O15   C49   S    
C52   C53   S    
C58   H63   S    
C50   H42   S    
C34   C38   S    
C34   O15   S    
C14   C19   A    
C32   C35   S    
C24   C26   A    
C57   H61   S    
C42   H24   S    
C52   H47   S    
C46   H33   S    
O5    Zn1   S    
C43   C44   S    
C25   C27   A    
C47   C48   S    
C20   C28   A    
O19   C57   S    
C26   C28   A    
C51   C52   S    
C39   H13   S    
C20   O9    S    
C44   H28   S    
C2    C3    S    
C54   C55   S    
C14   O24   S    
C66   H82   S    
C15   O4    A    
C45   H29   S    
C56   H56   S    
C49   H40   S    
C53   H51   S    
O3    Zn1   S    
C12   C19   S    
C51   H46   S    
C55   H54   S    
C50   H44   S    
C60   H68   S    
C23   O12   S    
O14   C46   S    
C24   H5    S    
C25   N2    A    
C57   H59   S    
C42   H22   S    
C7    C9    A    
C3    C37   S    
C16   C18   A    
C47   H34   S    
C65   H79   S    
C13   C16   A    
C56   H57   S    
C33   H10   S    
O20   C58   S    
C43   H26   S    
C8    O20   S    
C65   H80   S    
C22   O11   S    
C53   H49   S    
C4    C38   S    
C16   H3    S    
C49   H41   S    
O17   C51   S    
C15   O3    A    
C22   N1    A    
C65   H81   S    
