data_mof_unit_6337.cif
_audit_creation_date              2012-12-11T14:06:44-0500
_audit_creation_method            fapswitch 2.2
_symmetry_space_group_name_H-M    P1
_symmetry_Int_Tables_number       1
_space_group_crystal_system       triclinic
_cell_length_a                    6.923197
_cell_length_b                    17.382618
_cell_length_c                    24.111483
_cell_angle_alpha                 104.605554
_cell_angle_beta                  90.723657
_cell_angle_gamma                 89.568918
_cell_volume                      2807.63521081

loop_
_atom_site_label
_atom_site_type_symbol
_atom_type_description
_atom_site_fract_x
_atom_site_fract_y
_atom_site_fract_z
_atom_type_partial_charge
O1    O     O_R   0.494290 0.391990 0.999150 -0.519602
O2    O     O_R   0.827170 0.534410 0.082350 -0.537811
O3    O     O_R   0.994360 0.608010 0.000850 -0.547592
C1    C     C_R   0.658834 0.546805 0.106332 0.772239
O4    O     O_R   0.824210 0.388010 0.004470 -0.534338
O5    O     O_R   0.991370 0.460560 0.922410 -0.533423
C2    C     C_R   0.654652 0.355073 0.001533 0.764195
O6    O     O_R   0.497270 0.539440 0.077590 -0.516223
O7    O     O_3   0.659770 0.523970 0.973170 -0.364115
V1    V     V_3+5 0.935840 0.495550 0.004980 1.539254
O8    O     O_R   0.320910 0.465590 0.917650 -0.535184
C3    C     C_R   0.150773 0.453760 0.893728 0.732551
O9    O     O_R   0.323870 0.611990 0.995530 -0.527629
C4    C     C_R   0.153800 0.644193 0.996737 0.743234
V2    V     V_3+5 0.435470 0.504450 0.995020 1.557702
O10   O     O_3   0.161670 0.476030 0.026830 -0.349069
C5    C     C_2   0.142866 0.726025 0.989694 -0.024334
C6    C     C_2   0.979366 0.770634 0.002829 -0.359333
H1    H     H_    0.853747 0.745043 0.017868 0.141196
C7    C     C_R   0.029935 0.275638 0.626851 0.642080
N1    N     N_R   0.115822 0.348135 0.647119 -0.562023
C8    C     C_R   0.182521 0.390351 0.610641 0.558269
C9    C     C_R   0.167046 0.359196 0.550931 -0.001978
C10   C     C_R   0.078130 0.284561 0.528878 -0.039967
C11   C     C_R   0.000791 0.242984 0.566967 -0.126735
C12   C     C_R   0.237365 0.401418 0.512911 -0.185212
C13   C     C_R   0.228279 0.369141 0.453873 -0.121365
C14   C     C_R   0.144167 0.294448 0.431103 -0.014107
C15   C     C_R   0.065797 0.252337 0.468600 -0.067723
C16   C     C_R   0.973757 0.178894 0.445725 -0.101024
C17   C     C_R   0.882966 0.140161 0.483574 0.222697
C18   C     C_R   0.895702 0.171719 0.543756 0.133820
C19   C     C_R   0.133033 0.261694 0.371461 0.614696
N2    N     N_R   0.046732 0.189644 0.349657 -0.545862
C20   C     C_R   0.969596 0.147946 0.385157 0.666399
O11   O     O_2   0.977127 0.235457 0.665094 -0.479990
O12   O     O_2   0.265197 0.461893 0.632078 -0.504724
H2    H     H_    0.299024 0.459910 0.528616 0.157650
H3    H     H_    0.286167 0.403367 0.426110 0.187958
O13   O     O_2   0.207070 0.301683 0.335469 -0.479994
O14   O     O_2   0.889818 0.076623 0.361447 -0.504628
C21   C     C_R   0.144534 0.093039 0.259750 0.314145
C22   C     C_R   0.122478 0.061405 0.200423 -0.279400
H4    H     H_    0.217029 0.013430 0.178910 0.143002
C23   C     C_R   0.974735 0.087668 0.169169 -0.152712
C24   C     C_R   0.844615 0.147170 0.198943 0.104882
C25   C     C_R   0.879996 0.185361 0.257408 0.122115
C26   C     C_R   0.028782 0.157844 0.288151 0.274653
C27   C     C_R   0.983056 0.427800 0.738081 -0.113667
H5    H     H_    0.863250 0.444556 0.714215 0.142763
C28   C     C_R   0.986329 0.453090 0.798163 0.117202
C29   C     C_R   0.140424 0.429688 0.829825 -0.102531
C30   C     C_R   0.291690 0.383714 0.799275 -0.202803
H6    H     H_    0.412893 0.365580 0.821922 0.145287
C31   C     C_R   0.286852 0.358986 0.739305 -0.053401
H7    H     H_    0.402121 0.321857 0.716895 0.146805
C32   C     C_R   0.131736 0.380375 0.708383 0.340902
C33   C     C_R   0.517887 0.853775 0.615993 0.693461
N3    N     N_R   0.512975 0.803015 0.651107 -0.560042
C34   C     C_R   0.531684 0.722584 0.629122 0.616365
C35   C     C_R   0.556634 0.690285 0.569398 -0.043930
C36   C     C_R   0.539191 0.741875 0.532470 -0.114111
C37   C     C_R   0.512392 0.824221 0.555700 -0.087036
C38   C     C_R   0.594071 0.608219 0.545221 0.280502
C39   C     C_R   0.593423 0.578216 0.485392 -0.229114
C40   C     C_R   0.573546 0.628945 0.448676 -0.056598
C41   C     C_R   0.551531 0.711257 0.472267 -0.050112
C42   C     C_R   0.540460 0.762667 0.435474 -0.099931
C43   C     C_R   0.487204 0.843152 0.458288 0.112611
C44   C     C_R   0.476002 0.874153 0.518288 0.241318
C45   C     C_R   0.578120 0.599279 0.388575 0.637284
N4    N     N_R   0.590459 0.650445 0.353660 -0.541858
C46   C     C_R   0.582169 0.731078 0.376821 0.612812
O15   O     O_2   0.529433 0.932667 0.639740 -0.459771
O16   O     O_2   0.521949 0.674225 0.664795 -0.473405
H8    H     H_    0.618242 0.515188 0.467743 0.166859
O17   O     O_2   0.569760 0.520141 0.365529 -0.493507
O18   O     O_2   0.623567 0.780367 0.343558 -0.498420
C47   C     C_R   0.482500 0.649044 0.255599 -0.234431
H9    H     H_    0.369185 0.690496 0.274253 0.161621
C48   C     C_R   0.501303 0.627100 0.195994 0.247213
C49   C     C_R   0.648394 0.573132 0.170344 -0.166393
C50   C     C_R   0.777008 0.542954 0.206527 0.012089
C51   C     C_R   0.758804 0.567925 0.267132 0.297205
C52   C     C_R   0.609433 0.620906 0.291795 0.274442
C53   C     C_R   0.637045 0.829140 0.750333 -0.065100
H10   H     H_    0.765026 0.794743 0.734750 0.167422
C54   C     C_R   0.623826 0.866646 0.808556 -0.171214
H11   H     H_    0.741630 0.858621 0.836590 0.165964
C55   C     C_R   0.462586 0.913778 0.830568 -0.135669
C56   C     C_R   0.309811 0.921379 0.792160 0.107904
C57   C     C_R   0.319870 0.879502 0.733590 0.180528
C58   C     C_R   0.487907 0.835932 0.712171 0.291210
C59   C     C_2   0.641670 0.272430 0.007026 -0.060181
C60   C     C_2   0.479594 0.226602 0.989902 0.076694
O19   O     O_R   0.618210 0.960470 0.922400 -0.537843
O20   O     O_R   0.291310 0.111960 0.995450 -0.535319
O21   O     O_R   0.124210 0.039530 0.077580 -0.533461
C61   C     C_R   0.461833 0.144869 0.997845 0.757949
O22   O     O_R   0.288310 0.965490 0.917650 -0.526039
O23   O     O_R   0.121180 0.892010 0.999220 -0.527339
C62   C     C_R   0.455883 0.950157 0.893746 0.763270
O24   O     O_R   0.621230 0.107990 0.000760 -0.531072
O25   O     O_3   0.455770 0.976060 0.026840 -0.365292
V3    V     V_3+5 0.179680 0.004440 0.995020 1.539955
O26   O     O_R   0.791670 0.888040 0.004570 -0.540484
C63   C     C_R   0.962302 0.854674 0.000512 0.789327
O27   O     O_R   0.794680 0.034510 0.082370 -0.533163
C64   C     C_R   0.963312 0.052652 0.105898 0.774814
V4    V     V_3+5 0.680070 0.995560 0.005010 1.523830
O28   O     O_3   0.953840 0.023940 0.973160 -0.358265
I1    I     I_    0.394074 0.761707 0.951351 -0.348798
I2    I     I_    0.705963 0.283643 0.301669 -0.237800
I3    I     I_    0.759082 0.530964 0.835746 -0.316498
N5    N     N_2   0.642728 0.555906 0.580298 -0.460251
H12   H     H_    0.604004 0.497602 0.562854 0.255541
C65   C     C_3   0.841844 0.561481 0.599910 -0.375379
H13   H     H_    0.940281 0.541494 0.562922 0.166811
H14   H     H_    0.864637 0.522828 0.629736 0.207943
H15   H     H_    0.878102 0.623492 0.623110 0.212948
I4    I     I_    0.376083 0.914263 0.403708 -0.418807
N6    N     N_2   0.420833 0.955033 0.540925 -0.465775
H16   H     H_    0.471218 0.994398 0.519189 0.278112
C66   C     C_3   0.222359 0.969605 0.559206 -0.342099
H17   H     H_    0.155149 0.013379 0.538452 0.170917
H18   H     H_    0.219511 0.996086 0.606096 0.268757
H19   H     H_    0.134976 0.914257 0.548640 0.182566
N7    N     N_2   0.371078 0.660531 0.162100 -0.494439
H20   H     H_    0.235160 0.672308 0.179395 0.257366
C67   C     C_3   0.448075 0.727284 0.143937 -0.505621
H21   H     H_    0.477803 0.777607 0.181786 0.205594
H22   H     H_    0.341179 0.747039 0.115625 0.183441
H23   H     H_    0.583242 0.710221 0.119446 0.181275
I5    I     I_    0.997423 0.457624 0.171721 -0.281832
N8    N     N_2   0.889718 0.540155 0.303874 -0.464296
H24   H     H_    0.925829 0.480778 0.290864 0.321613
C68   C     C_3   0.053098 0.591287 0.323669 -0.485504
H25   H     H_    0.137312 0.568496 0.355698 0.217615
H26   H     H_    0.004288 0.652778 0.344288 0.201981
H27   H     H_    0.147390 0.591819 0.287030 0.200393
I6    I     I_    0.072933 0.001965 0.818999 -0.313979
I7    I     I_    0.077894 0.876078 0.676903 -0.369786
I8    I     I_    0.888116 0.238981 0.050582 -0.300245
N9    N     N_2   0.328947 0.253941 0.958461 -0.504564
H28   H     H_    0.193591 0.234062 0.964964 0.285983
C69   C     C_3   0.367417 0.241596 0.897990 -0.498819
H29   H     H_    0.247216 0.267084 0.877307 0.195751
H30   H     H_    0.378947 0.176964 0.877134 0.204578
H31   H     H_    0.503340 0.271561 0.891484 0.183108
N10   N     N_2   0.767080 0.072001 0.460702 -0.483085
H32   H     H_    0.626792 0.075207 0.474709 0.270868
C70   C     C_3   0.861777 0.995738 0.453917 -0.367089
H33   H     H_    0.836468 0.972033 0.491817 0.176220
H34   H     H_    0.018863 0.000792 0.447656 0.216737
H35   H     H_    0.803367 0.953118 0.415281 0.257189
I9    I     I_    0.738416 0.110750 0.596199 -0.278914
N11   N     N_2   0.270488 0.054644 0.291531 -0.495591
H36   H     H_    0.287536 0.994509 0.273605 0.275975
C71   C     C_3   0.452902 0.093628 0.308398 -0.413458
H37   H     H_    0.531771 0.062057 0.336402 0.252996
H38   H     H_    0.430879 0.155998 0.333025 0.216081
H39   H     H_    0.541013 0.091909 0.269961 0.196584
I10   I     I_    0.584906 0.176481 0.159339 -0.283059

loop_
_geom_bond_atom_site_label_1
_geom_bond_atom_site_label_2
_ccdc_geom_bond_type
O23   C63   A    
C61   O24   A    
C31   H7    S    
C51   N8    S    
N11   H36   S    
O19   C62   A    
O2    C1    A    
C47   C52   A    
C1    O6    A    
N7    H20   S    
N4    C52   S    
N8    H24   S    
C23   C24   A    
C68   H26   S    
C12   C13   A    
C15   C16   A    
O21   V3    S    
C16   C20   A    
O24   V4    S    
C59   I8    S    
C66   H18   S    
C14   C15   A    
C6    H1    S    
C65   H14   S    
C71   H37   S    
O5    C3    A    
C16   C17   A    
C60   C61   S    
O26   C63   A    
N5    H12   S    
C27   C32   A    
O27   C64   A    
C5    C6    D    
N2    C20   A    
C9    C12   A    
C27   H5    S    
C6    C63   S    
C55   C62   S    
C50   I5    S    
C3    C29   S    
C18   I9    S    
O8    V2    S    
C25   C26   A    
C13   H3    S    
C42   C43   A    
N5    C65   S    
C39   H8    S    
C46   O18   S    
C37   C44   A    
O1    V2    S    
C57   I7    S    
O7    V1    S    
C35   C36   A    
O20   V3    S    
C11   C18   A    
C40   C41   A    
V3    O28   S    
N3    C34   A    
N11   C71   S    
O21   C64   A    
C25   I2    S    
O9    C4    A    
C4    C5    S    
C43   C44   A    
O4    V1    S    
O25   V3    S    
O20   C61   A    
C48   C49   A    
C69   H30   S    
C30   C31   A    
O23   V3    S    
C68   H27   S    
C28   I3    S    
C53   C54   A    
C41   C42   A    
C19   O13   S    
C10   C11   A    
N9    C69   S    
C65   H15   S    
C56   C57   A    
C47   C48   A    
C17   N10   S    
C53   H10   S    
C12   H2    S    
C27   C28   A    
C42   C46   A    
C30   H6    S    
C8    O12   S    
O19   V4    S    
V4    O28   S    
C34   C35   A    
C35   C38   A    
C67   H22   S    
C22   H4    S    
C40   C45   A    
N1    C32   S    
C36   C37   A    
C53   C58   A    
C69   H31   S    
C44   N6    S    
C50   C51   A    
C70   H35   S    
C43   I4    S    
C9    C10   A    
C7    N1    A    
O22   C62   A    
C19   N2    A    
O22   V3    S    
C71   H39   S    
C21   C26   A    
C51   C52   A    
C10   C15   A    
C22   C23   A    
O3    C4    A    
C66   H19   S    
C36   C41   A    
C70   H34   S    
C14   C19   A    
C39   C40   A    
O6    V2    S    
C24   I10   S    
C31   C32   A    
C48   N7    S    
N10   C70   S    
C67   H23   S    
N2    C26   S    
C21   C22   A    
N6    C66   S    
O2    V1    S    
C5    I1    S    
C45   O17   S    
C29   C30   A    
C33   O15   S    
O4    C2    A    
C69   H29   S    
O26   V4    S    
C33   C37   A    
N8    C68   S    
C2    C59   S    
C24   C25   A    
O1    C2    A    
C17   C18   A    
C54   C55   A    
N4    C46   A    
N7    C67   S    
O5    V1    S    
O8    C3    A    
C68   H25   S    
C34   O16   S    
N10   H32   S    
N9    H28   S    
C38   C39   A    
O9    V2    S    
C71   H38   S    
C33   N3    A    
C28   C29   A    
O3    V1    S    
V1    O10   S    
C65   H13   S    
O25   V4    S    
C55   C56   A    
C57   C58   A    
O27   V4    S    
C67   H21   S    
C23   C64   S    
O7    V2    S    
C59   C60   D    
C20   O14   S    
C47   H9    S    
C7    O11   S    
C60   N9    S    
C1    C49   S    
C54   H11   S    
C49   C50   A    
C7    C11   A    
C13   C14   A    
C38   N5    S    
C8    C9    A    
C70   H33   S    
N3    C58   S    
C45   N4    A    
N6    H16   S    
N1    C8    A    
C21   N11   S    
V2    O10   S    
C66   H17   S    
C56   I6    S    
