data_mof_unit_16257.cif
_audit_creation_date              2013-03-05T16:32:18-0500
_audit_creation_method            fapswitch 2.2
_symmetry_space_group_name_H-M    P1
_symmetry_Int_Tables_number       1
_space_group_crystal_system       triclinic
_cell_length_a                    15.89856
_cell_length_b                    10.824327
_cell_length_c                    9.554037
_cell_angle_alpha                 89.730083
_cell_angle_beta                  90.313777
_cell_angle_gamma                 90.204888
_cell_volume                      1644.11254832

loop_
_atom_site_label
_atom_site_type_symbol
_atom_site_description
_atom_site_fract_x
_atom_site_fract_y
_atom_site_fract_z
_atom_type_partial_charge
O1    O     O_R   0.500000 0.319640 0.618810 -0.578710
O2    O     O_R   0.500010 0.319680 0.381230 -0.576878
C1    C     C_R   0.501440 0.262332 0.500159 0.808576
O3    O     O_R   0.379430 0.499990 0.618840 -0.563932
O4    O     O_R   0.379440 0.500030 0.381260 -0.575766
C2    C     C_R   0.340362 0.500190 0.499736 0.811899
Cu1   Cu    Cu3+1 0.500000 0.499980 0.640670 1.010205
Cu2   Cu    Cu3+1 0.500000 0.500020 0.359330 1.008226
O5    O     O_R   0.499990 0.680320 0.618770 -0.585368
O6    O     O_R   0.500000 0.680360 0.381190 -0.587198
O7    O     O_R   0.620560 0.499970 0.618740 -0.576778
O8    O     O_R   0.620570 0.500010 0.381160 -0.569292
C3    C     C_R   0.500892 0.737601 0.499552 0.826028
C4    C     C_R   0.659600 0.499983 0.500115 0.835302
C5    C     C_3   0.049871 0.405790 0.606704 0.063113
C6    C     C_3   0.049855 0.465519 0.351931 -0.382584
C7    C     C_3   0.950928 0.456238 0.350696 0.132845
H1    H     H_    0.064200 0.313843 0.560929 0.178164
H2    H     H_    0.077309 0.372603 0.335101 0.209140
H3    H     H_    0.925443 0.523083 0.272562 0.170394
C8    C     C_1   0.748897 0.499083 0.499788 -0.035951
C9    C     C_3   0.083085 0.507181 0.500386 -0.154085
C10   C     C_3   0.952145 0.416740 0.620141 -0.247846
C11   C     C_3   0.916470 0.496754 0.496938 -0.073538
C12   C     C_3   0.947553 0.631691 0.520804 -0.501992
C13   C     C_3   0.046166 0.638931 0.541956 0.550267
C14   C     C_1   0.824223 0.497914 0.498358 0.090673
C15   C     C_1   0.175602 0.504639 0.499838 0.144854
C16   C     C_1   0.250999 0.502235 0.499252 -0.015333
H4    H     H_    0.912793 0.674494 0.608503 0.242975
H5    H     H_    0.936782 0.469594 0.716210 0.237003
H6    H     H_    0.928162 0.687537 0.428006 0.228542
C17   C     C_R   0.529709 0.062705 0.619448 0.102634
C18   C     C_R   0.508937 0.129192 0.498467 -0.151778
C19   C     C_R   0.499879 0.064961 0.371489 -0.128247
H7    H     H_    0.488422 0.113325 0.273782 0.208936
C20   C     C_R   0.499336 0.936355 0.371010 -0.154616
H8    H     H_    0.487227 0.889143 0.273274 0.201151
C21   C     C_R   0.507991 0.870667 0.497380 -0.100487
C22   C     C_R   0.528079 0.935466 0.618822 0.065445
C23   C     C_3   0.492507 0.926670 0.762754 -0.472430
C24   C     C_3   0.495359 0.067330 0.765236 0.146527
H9    H     H_    0.427404 0.888786 0.763272 0.197297
H10   H     H_    0.536628 0.881014 0.837093 0.247954
H11   H     H_    0.432624 0.112014 0.772840 0.110716
C25   C     C_R   0.541530 0.590567 0.074165 0.179418
N1    N     N_R   0.500530 0.500930 0.147930 -0.199304
C26   C     C_R   0.450893 0.420175 0.074330 0.049960
H12   H     H_    0.412738 0.353439 0.130053 0.144027
C27   C     C_R   0.450393 0.420830 0.925440 0.068602
H13   H     H_    0.411642 0.354903 0.869625 0.141915
N2    N     N_R   0.500530 0.500890 0.852020 -0.189419
C28   C     C_R   0.544214 0.587552 0.927136 0.176526
C29   C     C_3   0.637314 0.615395 0.927426 -0.344592
C30   C     C_3   0.632398 0.623569 0.086841 -0.313414
H14   H     H_    0.652451 0.704248 0.873930 0.177461
H15   H     H_    0.669559 0.552009 0.143352 0.203483
C31   C     C_2   0.910276 0.291387 0.638760 0.928927
O9    O     O_2   0.860713 0.275659 0.734720 -0.537047
O10   O     O_R   0.929159 0.193235 0.549994 -0.676844
H16   H     H_    0.897103 0.115044 0.574629 0.369939
N3    N     N_R   0.093469 0.408004 0.743809 0.177771
O11   O     O_R   0.053286 0.429822 0.859436 -0.257625
O12   O     O_R   0.169826 0.365740 0.753345 -0.328165
N4    N     N_R   0.556892 0.113877 0.866797 0.181912
O13   O     O_R   0.636880 0.092660 0.851379 -0.287543
O14   O     O_R   0.530748 0.161322 0.983394 -0.358472
C32   C     C_2   0.693258 0.509998 0.884840 0.959913
O15   O     O_2   0.760017 0.532285 0.826982 -0.575350
O16   O     O_R   0.670418 0.387958 0.915456 -0.684820
H17   H     H_    0.713812 0.326295 0.882779 0.393870
C33   C     C_2   0.645999 0.751346 0.145038 0.914228
O17   O     O_2   0.612016 0.841027 0.090958 -0.577470
O18   O     O_R   0.697679 0.766349 0.262531 -0.748146
H18   H     H_    0.701480 0.855588 0.293785 0.354503
C34   C     C_2   0.082682 0.543017 0.230594 0.972774
O19   O     O_2   0.145614 0.509732 0.168258 -0.518087
O20   O     O_R   0.040964 0.650473 0.187835 -0.701519
H19   H     H_    0.069236 0.692484 0.105427 0.395198
N5    N     N_R   0.918703 0.334280 0.306371 0.173437
O21   O     O_R   0.838627 0.320566 0.281870 -0.314604
O22   O     O_R   0.968881 0.246012 0.268090 -0.253715
N6    N     N_R   0.069080 0.667390 0.688752 0.158878
O23   O     O_R   0.012659 0.684595 0.784919 -0.310503
O24   O     O_R   0.147710 0.685167 0.721911 -0.281948
N7    N     N_R   0.079165 0.741276 0.454526 0.144792
O25   O     O_R   0.038599 0.845590 0.451310 -0.271525
O26   O     O_R   0.157438 0.743246 0.415446 -0.333483

loop_
_geom_bond_atom_site_label_1
_geom_bond_atom_site_label_2
_geom_bond_distance
_ccdc_geom_bond_type
C5    H1    1.113793 S    
C13   N6    1.480632 S    
C10   C31   1.519331 S    
C23   C24   1.523356 S    
C19   H7    1.082993 S    
C11   C14   1.466826 S    
Cu1   Cu2   2.687931 S    
C28   C29   1.509457 S    
Cu1   O7    1.929287 S    
C20   H8    1.082573 S    
C17   C24   1.499994 S    
C4    C8    1.419795 S    
C15   C16   1.199125 T    
C19   C20   1.392105 A    
C34   O20   1.399194 S    
Cu1   N2    2.019287 S    
O4    C2    1.294205 A    
O7    C4    1.295156 A    
N7    O26   1.301264 A    
C29   C32   1.507903 S    
C31   O10   1.397029 S    
C7    H3    1.112942 S    
C18   C19   1.407543 A    
O5    C3    1.294388 A    
N3    O12   1.301414 A    
O1    Cu1   1.964178 S    
C25   N1    1.362731 A    
C5    C9    1.583137 S    
N1    C26   1.369696 A    
C32   O15   1.222131 D    
N4    O14   1.299785 A    
C25   C30   1.491358 S    
C24   N4    1.463926 S    
C27   N2    1.368890 A    
C10   C11   1.563311 S    
O16   H17   1.013181 S    
C30   C33   1.507539 S    
Cu2   O8    1.927065 S    
C12   H6    1.113465 S    
C5    C10   1.564672 S    
C8    C14   1.197837 T    
C9    C15   1.471280 S    
C23   H9    1.111978 S    
O3    Cu1   1.927068 S    
C17   C18   1.397382 A    
C29   H14   1.113193 S    
C7    C11   1.568605 S    
O18   H18   1.013894 S    
C17   C22   1.377464 A    
C34   O19   1.223400 D    
N5    O22   1.301915 A    
C21   C22   1.393626 A    
O20   H19   1.013783 S    
C33   O17   1.223591 D    
C1    C18   1.446672 S    
C31   O9    1.223064 D    
C7    N5    1.477359 S    
O10   H16   1.013815 S    
O1    C1    1.295137 A    
C24   H11   1.112925 S    
C10   H5    1.112567 S    
N3    O11   1.302129 A    
N6    O23   1.302046 A    
C13   N7    1.480597 S    
C27   H13   1.081671 S    
C11   C12   1.557654 S    
C33   O18   1.397211 S    
C22   C23   1.492241 S    
N6    O24   1.301795 A    
O8    C4    1.291874 A    
C30   H15   1.111927 S    
C23   H10   1.111041 S    
O3    C2    1.293416 A    
N2    C28   1.368782 A    
N7    O25   1.302493 A    
C12   H4    1.110252 S    
Cu1   O5    1.962260 S    
C29   C30   1.528482 S    
C26   H12   1.081672 S    
C6    C9    1.578071 S    
C6    C34   1.521277 S    
O2    Cu2   1.962260 S    
N5    O21   1.301265 A    
O6    C3    1.291999 A    
O4    Cu2   1.929290 S    
O2    C1    1.292321 A    
C12   C13   1.581394 S    
Cu2   N1    2.019765 S    
C20   C21   1.404622 A    
C6    C7    1.575614 S    
C6    H2    1.110564 S    
C25   C28   1.406142 A    
C26   C27   1.422468 A    
C5    N3    1.478883 S    
C3    C21   1.444427 S    
C2    C16   1.420976 S    
Cu2   O6    1.964178 S    
N4    O13   1.302348 A    
C9    C13   1.596843 S    
C32   O16   1.398767 S    
