data_mof_unit_35391.cif
_audit_creation_date              2012-12-10T16:53:58-0500
_audit_creation_method            fapswitch 2.2
_symmetry_space_group_name_H-M    P1
_symmetry_Int_Tables_number       1
_space_group_crystal_system       triclinic
_cell_length_a                    7.812234
_cell_length_b                    8.554013
_cell_length_c                    10.65497
_cell_angle_alpha                 92.151087
_cell_angle_beta                  85.460344
_cell_angle_gamma                 93.269207
_cell_volume                      708.249451638

loop_
_atom_site_label
_atom_site_type_symbol
_atom_type_description
_atom_site_fract_x
_atom_site_fract_y
_atom_site_fract_z
_atom_type_partial_charge
C1    C     C_R   0.544860 0.794559 0.501415 1.034855
C2    C     C_3   0.326488 0.555917 0.941141 -0.356882
C3    C     C_3   0.318990 0.541598 0.083334 -0.429541
C4    C     C_3   0.530428 0.338198 0.919821 -0.416057
C5    C     C_3   0.650666 0.624199 0.926081 0.637527
C6    C     C_3   0.504362 0.506724 0.879216 -0.165322
C7    C     C_3   0.498935 0.503230 0.122195 -0.147504
C8    C     C_3   0.541895 0.338126 0.063146 0.201838
C9    C     C_3   0.633487 0.633151 0.072732 0.162722
C10   C     C_2   0.565531 0.957709 0.495031 -0.355015
C11   C     C_2   0.436665 0.047046 0.537730 0.212296
C12   C     C_R   0.501858 0.503602 0.742246 0.934622
C13   C     C_R   0.455515 0.206210 0.509350 0.860684
C14   C     C_R   0.498433 0.498832 0.258202 0.920880
Cl1   Cl    Cl    0.748372 0.274384 0.097513 -0.505116
Cl2   Cl    Cl    0.265177 0.990463 0.648562 -0.453960
Cl3   Cl    Cl    0.969576 0.704858 0.611947 -0.287448
Cl4   Cl    Cl    0.861572 0.557553 0.879093 -0.518626
Cl5   Cl    Cl    0.642350 0.812731 0.856684 -0.441901
Cl6   Cl    Cl    0.584120 0.823619 0.140818 -0.544925
H1    H     H_    0.646374 0.289826 0.868601 0.273786
H2    H     H_    0.445211 0.248841 0.102875 0.160309
H3    H     H_    0.419686 0.258952 0.893888 0.205066
H4    H     H_    0.219760 0.479020 0.905717 0.265165
H5    H     H_    0.760093 0.612455 0.108211 0.193011
H6    H     H_    0.680111 0.003303 0.440551 0.187494
H7    H     H_    0.010604 0.370208 0.413930 0.173039
H8    H     H_    0.303544 0.678330 0.917821 0.270319
H9    H     H_    0.274544 0.652320 0.129851 0.262919
H10   H     H_    0.221943 0.446676 0.112535 0.219669
N1    N     N_2   0.950330 0.457950 0.465890 -0.106786
N2    N     N_2   0.049670 0.542050 0.534110 0.116466
O1    O     O_R   0.389250 0.738570 0.508370 -0.557728
O2    O     O_R   0.678390 0.711620 0.486510 -0.568839
O3    O     O_R   0.355430 0.513500 0.696140 -0.594283
O4    O     O_R   0.644580 0.486550 0.674270 -0.555266
O5    O     O_R   0.321610 0.288380 0.513490 -0.610244
O6    O     O_R   0.610750 0.261430 0.491630 -0.633476
O7    O     O_R   0.355420 0.513450 0.325730 -0.651842
O8    O     O_R   0.644570 0.486500 0.303860 -0.589587
Zn1   Zn    Zn3+2 0.306940 0.517990 0.514600 1.099700
Zn2   Zn    Zn3+2 0.693060 0.482010 0.485400 1.097981

loop_
_geom_bond_atom_site_label_1
_geom_bond_atom_site_label_2
_ccdc_geom_bond_type
C3    H10   S    
C8    H2    S    
N2    Zn1   S    
C5    C9    S    
C5    Cl5   S    
N1    Zn2   S    
C12   O4    A    
C11   Cl2   S    
C9    Cl6   S    
O4    Zn2   S    
N1    N2    D    
O2    Zn2   S    
C4    C8    S    
O1    Zn1   S    
C10   H6    S    
O8    Zn2   S    
C2    C3    S    
C14   O7    A    
C9    H5    S    
C7    C8    S    
O7    Zn1   S    
C12   O3    A    
C6    C12   S    
C4    H1    S    
C11   C13   S    
C3    H9    S    
C13   O6    A    
C2    C6    S    
O5    Zn1   S    
C14   O8    A    
C1    O2    A    
O6    Zn2   S    
C8    Cl1   S    
C3    C7    S    
H7    N1    S    
C2    H4    S    
C5    C6    S    
O3    Zn1   S    
C10   C11   D    
C1    O1    A    
C4    C6    S    
C7    C9    S    
Cl3   N2    S    
C2    H8    S    
C5    Cl4   S    
C4    H3    S    
C13   O5    A    
C7    C14   S    
C1    C10   S    
