data_mof_unit_32446.cif
_audit_creation_date              2012-12-10T17:25:36-0500
_audit_creation_method            fapswitch 2.2
_symmetry_space_group_name_H-M    P1
_symmetry_Int_Tables_number       1
_space_group_crystal_system       triclinic
_cell_length_a                    10.23812
_cell_length_b                    10.774787
_cell_length_c                    23.371504
_cell_angle_alpha                 90.793955
_cell_angle_beta                  80.426855
_cell_angle_gamma                 96.420265
_cell_volume                      2526.31647641

loop_
_atom_site_label
_atom_site_type_symbol
_atom_type_description
_atom_site_fract_x
_atom_site_fract_y
_atom_site_fract_z
_atom_type_partial_charge
C1    C     C_R   0.557338 0.732311 0.495063 0.920441
C2    C     C_R   0.408541 0.410110 0.306662 0.466097
C3    C     C_R   0.553878 0.573770 0.761892 0.083019
C4    C     C_R   0.399821 0.407760 0.247566 0.074939
C5    C     C_R   0.463210 0.481685 0.793553 0.210369
C6    C     C_R   0.488588 0.489855 0.209413 0.205263
C7    C     C_2   0.592923 0.864965 0.497004 -0.373948
C8    C     C_2   0.407377 0.134687 0.504539 -0.385802
C9    C     C_2   0.507100 0.941283 0.484274 0.205941
C10   C     C_2   0.494736 0.059336 0.516728 0.211927
C11   C     C_2   0.929782 0.518087 0.500462 0.548832
C12   C     C_R   0.442734 0.267636 0.505199 0.899378
C13   C     C_2   0.071617 0.484633 0.497589 0.565322
C14   C     C_R   0.498633 0.498032 0.610400 0.947388
C15   C     C_R   0.500969 0.501404 0.389712 0.923272
C16   C     C_R   0.557581 0.409201 0.114050 0.512622
C17   C     C_R   0.373915 0.544469 0.890316 0.511831
C18   C     C_R   0.395719 0.555515 0.128222 0.517348
C19   C     C_R   0.540034 0.402370 0.875980 0.516706
C20   C     C_R   0.386045 0.552002 0.069296 -0.026266
C21   C     C_R   0.543195 0.399672 0.935408 -0.024309
C22   C     C_R   0.466156 0.476055 0.032280 -0.020001
C23   C     C_R   0.385659 0.391411 0.765545 0.190611
C24   C     C_R   0.460921 0.473538 0.972569 -0.019388
C25   C     C_R   0.552604 0.403669 0.054723 -0.025511
C26   C     C_R   0.374622 0.546010 0.950062 -0.025761
C27   C     C_R   0.299366 0.622824 0.046583 -0.156952
C28   C     C_R   0.627932 0.326930 0.958264 -0.157526
C29   C     C_R   0.293398 0.619550 0.987471 -0.158470
C30   C     C_R   0.632380 0.328700 0.017467 -0.158325
C31   C     C_3   0.182817 0.715909 0.581722 -0.098570
C32   C     C_3   0.815536 0.284506 0.417937 -0.059499
C33   C     C_3   0.287905 0.293381 0.800525 -0.799017
C34   C     C_R   0.583425 0.577475 0.229750 0.187708
C35   C     C_3   0.678258 0.665362 0.187896 -0.800146
C36   C     C_3   0.319050 0.293648 0.674262 -0.844066
C37   C     C_3   0.681861 0.685024 0.312364 -0.836663
C38   C     C_3   0.792249 0.618130 0.663757 -0.157249
C39   C     C_3   0.381099 0.220603 0.350930 -0.304157
C40   C     C_3   0.628262 0.674164 0.793836 -0.818218
C41   C     C_3   0.296671 0.318109 0.224427 -0.791721
C42   C     C_3   0.578882 0.094378 0.563831 -0.874747
C43   C     C_3   0.425363 0.907596 0.436214 -0.893396
C44   C     C_3   0.070154 0.274754 0.500123 -0.239260
C45   C     C_R   0.399841 0.393129 0.704523 0.084460
C46   C     C_3   0.936163 0.727832 0.493549 -0.266771
C47   C     C_R   0.587714 0.584157 0.289739 0.081737
C48   C     C_R   0.491776 0.485784 0.672832 -0.236955
C49   C     C_R   0.500520 0.498876 0.327615 -0.243041
C50   C     C_R   0.573162 0.571466 0.701057 0.418191
H1    H     H_    0.236458 0.681363 0.074309 0.190234
H2    H     H_    0.728613 0.303170 0.398354 0.176522
H3    H     H_    0.784858 0.228220 0.458307 0.122215
H4    H     H_    0.875374 0.226426 0.386497 0.139558
H5    H     H_    0.318645 0.199073 0.789952 0.240347
H6    H     H_    0.280796 0.305442 0.848045 0.232287
H7    H     H_    0.186409 0.297846 0.790378 0.240846
H8    H     H_    0.668653 0.648698 0.141842 0.230099
H9    H     H_    0.659116 0.763405 0.197652 0.237834
H10   H     H_    0.782782 0.654059 0.191931 0.244588
H11   H     H_    0.346533 0.295155 0.626522 0.227343
H12   H     H_    0.691672 0.269189 0.930479 0.191059
H13   H     H_    0.335463 0.199361 0.688155 0.236348
H14   H     H_    0.211475 0.305539 0.685216 0.249534
H15   H     H_    0.669077 0.690052 0.360248 0.229181
H16   H     H_    0.786668 0.668868 0.295960 0.256285
H17   H     H_    0.664053 0.778194 0.297619 0.232817
H18   H     H_    0.865943 0.690691 0.640058 0.224930
H19   H     H_    0.797682 0.529615 0.638888 0.194276
H20   H     H_    0.822357 0.605303 0.706670 0.141570
H21   H     H_    0.308060 0.154296 0.378943 0.186415
H22   H     H_    0.470555 0.240033 0.372253 0.137034
H23   H     H_    0.226225 0.675802 0.971130 0.190720
H24   H     H_    0.407983 0.174028 0.308449 0.165611
H25   H     H_    0.688939 0.746424 0.764433 0.265520
H26   H     H_    0.556380 0.723290 0.824295 0.253303
H27   H     H_    0.695289 0.631382 0.818717 0.233910
H28   H     H_    0.231809 0.370986 0.202589 0.251009
H29   H     H_    0.347091 0.253966 0.192699 0.232417
H30   H     H_    0.230886 0.260428 0.258912 0.269402
H31   H     H_    0.564108 0.017583 0.596248 0.237503
H32   H     H_    0.685941 0.110925 0.544538 0.221777
H33   H     H_    0.550255 0.178925 0.588319 0.241483
H34   H     H_    0.699287 0.272157 0.033817 0.191258
H35   H     H_    0.317797 0.890453 0.454603 0.226189
H36   H     H_    0.441624 0.985231 0.404248 0.217271
H37   H     H_    0.455343 0.823793 0.411403 0.243840
H38   H     H_    0.107772 0.193165 0.475946 0.177893
H39   H     H_    0.959985 0.256646 0.509970 0.111811
H40   H     H_    0.108848 0.280854 0.541957 0.155507
H41   H     H_    0.046597 0.742083 0.483022 0.126569
H42   H     H_    0.902675 0.812431 0.516441 0.175883
H43   H     H_    0.894965 0.719744 0.452313 0.173815
H44   H     H_    0.327172 0.102652 0.481112 0.124345
H45   H     H_    0.671429 0.895339 0.521667 0.138575
H46   H     H_    0.213141 0.772598 0.541428 0.138885
H47   H     H_    0.269969 0.696587 0.600991 0.197360
H48   H     H_    0.123441 0.773721 0.613466 0.122492
N1    N     N_R   0.480439 0.484791 0.149062 -0.332012
N2    N     N_R   0.457534 0.475123 0.854870 -0.332242
N3    N     N_2   0.842710 0.448880 0.476480 0.015763
N4    N     N_2   0.157290 0.551120 0.523520 0.017774
O1    O     O_R   0.431060 0.692470 0.504730 -0.630419
O2    O     O_2   0.292013 0.612522 0.867530 -0.558203
O3    O     O_2   0.321590 0.628808 0.164554 -0.557526
O4    O     O_2   0.619465 0.334065 0.839296 -0.564787
O5    O     O_3   0.102478 0.605223 0.572947 -0.585775
O6    O     O_3   0.895591 0.395595 0.426460 -0.541187
O7    O     O_3   0.664436 0.658960 0.668862 -0.620359
O8    O     O_3   0.321322 0.330380 0.344903 -0.547666
O9    O     O_3   0.113061 0.383111 0.465596 -0.536929
O10   O     O_3   0.890222 0.623024 0.530018 -0.596619
O11   O     O_R   0.568940 0.307530 0.495270 -0.631734
O12   O     O_R   0.651120 0.659650 0.489640 -0.584781
O13   O     O_R   0.348880 0.340350 0.510360 -0.589837
O14   O     O_R   0.389950 0.516450 0.591390 -0.619278
O15   O     O_R   0.610050 0.483550 0.408610 -0.626779
O16   O     O_R   0.610020 0.483630 0.576300 -0.591606
O17   O     O_R   0.389980 0.516370 0.423700 -0.549917
O18   O     O_2   0.639113 0.340540 0.136752 -0.561626
Zn1   Zn    Zn3+2 0.353060 0.521920 0.510080 1.004994
Zn2   Zn    Zn3+2 0.646940 0.478080 0.489920 0.987415

loop_
_geom_bond_atom_site_label_1
_geom_bond_atom_site_label_2
_ccdc_geom_bond_type
C33   H5    S    
C38   H20   S    
C23   C45   A    
C46   O10   S    
C27   C29   A    
C42   H32   S    
C6    C34   A    
C41   H30   S    
C47   C49   A    
C15   C49   S    
C35   H8    S    
O13   Zn1   S    
C17   C26   A    
C19   C21   A    
C17   O2    S    
C24   C26   A    
C16   O18   S    
C31   H48   S    
C10   C42   S    
C4    C41   S    
C31   H46   S    
C16   C25   A    
C35   H9    S    
C34   C35   S    
O16   Zn2   S    
C39   H24   S    
C32   H2    S    
C39   O8    S    
O11   Zn2   S    
C23   C33   S    
C22   C25   A    
C37   H15   S    
C39   H22   S    
C37   C47   S    
N4    Zn1   S    
C9    C10   S    
C1    O1    A    
C12   O13   A    
C33   H6    S    
C48   C50   A    
C38   H19   S    
C1    O12   A    
C42   H31   S    
C32   H4    S    
C3    C50   A    
C27   H1    S    
O17   Zn1   S    
C9    C43   S    
O14   Zn1   S    
C43   H35   S    
N4    O5    S    
C8    H44   S    
C4    C6    A    
C41   H28   S    
C14   C48   S    
C46   H41   S    
C14   O16   A    
C50   O7    S    
C40   H26   S    
C35   H10   S    
C2    C4    A    
O15   Zn2   S    
C19   O4    S    
C2    C49   A    
C5    C23   A    
C5    N2    S    
C8    C12   S    
C37   H16   S    
C36   C45   S    
C11   N3    D    
C38   O7    S    
C21   C28   A    
C20   C22   A    
C3    C40   S    
C22   C24   A    
C18   N1    A    
C36   H11   S    
O1    Zn1   S    
C32   H3    S    
C44   H40   S    
C12   O11   A    
C45   C48   A    
C25   C30   A    
C7    C9    D    
C2    O8    S    
C46   H42   S    
C33   H7    S    
C11   O10   S    
C1    C7    S    
C43   H36   S    
C31   O5    S    
C36   H13   S    
C42   H33   S    
C38   H18   S    
C3    C5    A    
C41   H29   S    
C19   N2    A    
C16   N1    A    
C20   C27   A    
C7    H45   S    
N3    Zn2   S    
C40   H25   S    
C43   H37   S    
C6    N1    S    
C28   C30   A    
C18   O3    S    
C13   O9    S    
C36   H14   S    
C11   C13   S    
C46   H43   S    
N3    O6    S    
C14   O14   A    
C37   H17   S    
C15   O17   A    
C18   C20   A    
C31   H47   S    
C30   H34   S    
C17   N2    A    
O12   Zn2   S    
C44   O9    S    
C15   O15   A    
C29   H23   S    
C26   C29   A    
C8    C10   D    
C32   O6    S    
C21   C24   A    
C39   H21   S    
C40   H27   S    
C34   C47   A    
C13   N4    D    
C44   H38   S    
C44   H39   S    
C28   H12   S    
