data_mof_unit_33856.cif
_audit_creation_date              2012-12-11T17:07:35-0500
_audit_creation_method            fapswitch 2.2
_symmetry_space_group_name_H-M    P1
_symmetry_Int_Tables_number       1
_space_group_crystal_system       triclinic
_cell_length_a                    6.989382
_cell_length_b                    14.536332
_cell_length_c                    16.039648
_cell_angle_alpha                 90.089781
_cell_angle_beta                  90.349024
_cell_angle_gamma                 90.226205
_cell_volume                      1629.58287287

loop_
_atom_site_label
_atom_site_type_symbol
_atom_type_description
_atom_site_fract_x
_atom_site_fract_y
_atom_site_fract_z
_atom_type_partial_charge
O1    O     O_R   0.505720 0.583900 0.413310 -0.526233
O2    O     O_R   0.175940 0.594920 0.586080 -0.521090
O3    O     O_R   0.005640 0.416100 0.586690 -0.538852
C1    C     C_R   0.345635 0.617371 0.614301 0.745373
O4    O     O_R   0.176000 0.594930 0.413930 -0.547362
O5    O     O_R   0.005700 0.416110 0.413310 -0.549512
C2    C     C_R   0.344855 0.617603 0.385840 0.710735
O6    O     O_R   0.505660 0.583890 0.586690 -0.509003
O7    O     O_3   0.339200 0.441330 0.500000 -0.385389
V1    V     V_3+5 0.064350 0.510880 0.500000 1.500612
O8    O     O_R   0.675980 0.405080 0.413920 -0.548156
C3    C     C_R   0.844509 0.382676 0.385653 0.660245
O9    O     O_R   0.675920 0.405070 0.586070 -0.540088
C4    C     C_R   0.845093 0.383510 0.614821 0.696969
V2    V     V_3+5 0.564340 0.489120 0.500000 1.489915
O10   O     O_3   0.839360 0.558670 0.500000 -0.330525
H1    H     H_    0.668338 0.084539 0.502196 0.176152
C5    C     C_R   0.978382 0.430960 0.780266 -0.149843
C6    C     C_R   0.033775 0.458063 0.860115 -0.121541
C7    C     C_R   0.033624 0.394750 0.924755 -0.130923
C8    C     C_R   0.981414 0.303653 0.909562 -0.135899
C9    C     C_R   0.928153 0.273445 0.828420 0.063951
C10   C     C_R   0.921939 0.339258 0.763007 0.065542
C11   C     C_R   0.880751 0.179763 0.812464 -0.167316
C12   C     C_R   0.825755 0.151469 0.729842 0.019974
C13   C     C_R   0.809602 0.220137 0.665935 0.043970
C14   C     C_R   0.857295 0.313369 0.682504 -0.165151
C15   C     C_R   0.789171 0.057417 0.706213 0.283099
C16   C     C_R   0.732027 0.035579 0.624887 -0.029295
C17   C     C_R   0.711796 0.103024 0.564965 -0.133328
C18   C     C_R   0.751791 0.193830 0.584566 -0.147954
H2    H     H_    0.075761 0.528706 0.871906 0.133832
H3    H     H_    0.983114 0.257690 0.962484 0.086584
H4    H     H_    0.739108 0.242860 0.534252 0.115779
C19   C     C_R   0.715982 0.237390 0.196225 0.042218
C20   C     C_R   0.881156 0.185693 0.182873 -0.070215
C21   C     C_R   0.035185 0.200211 0.237723 -0.155075
H5    H     H_    0.158782 0.157233 0.232966 0.179145
C22   C     C_R   0.023595 0.264260 0.303386 -0.162376
H6    H     H_    0.141642 0.270100 0.346914 0.141550
C23   C     C_R   0.856237 0.315818 0.316188 -0.076123
C24   C     C_R   0.705097 0.303083 0.259691 0.039752
C25   C     C_3   0.503684 0.277961 0.278801 -0.432646
C26   C     C_3   0.518401 0.203521 0.212731 0.115108
H7    H     H_    0.404075 0.334193 0.261201 0.136949
H8    H     H_    0.486619 0.251682 0.343427 0.205288
H9    H     H_    0.422055 0.213986 0.158218 0.096560
C27   C     C_R   0.424594 0.662532 0.761732 0.034405
C28   C     C_R   0.356643 0.686237 0.682300 -0.078727
C29   C     C_R   0.294706 0.777288 0.670152 -0.091722
H10   H     H_    0.245213 0.798532 0.609047 0.161314
C30   C     C_R   0.312060 0.843415 0.734582 0.313094
C31   C     C_R   0.376329 0.817426 0.815109 -0.090803
C32   C     C_R   0.425350 0.725203 0.827799 -0.016868
C33   C     C_3   0.607604 0.688261 0.862767 -0.414512
C34   C     C_3   0.614774 0.624563 0.787747 0.119039
H11   H     H_    0.724150 0.740507 0.865427 0.232174
H12   H     H_    0.608769 0.550345 0.804094 0.099401
C35   C     C_R   0.518083 0.692379 0.267002 0.032233
C36   C     C_R   0.354410 0.684450 0.316141 -0.071091
C37   C     C_R   0.200987 0.742765 0.297154 -0.154228
C38   C     C_R   0.211735 0.806549 0.231409 -0.135769
H13   H     H_    0.094328 0.853557 0.221734 0.144427
C39   C     C_R   0.377440 0.813927 0.182319 -0.063029
C40   C     C_R   0.528303 0.753896 0.200229 0.028362
C41   C     C_3   0.730262 0.778524 0.220160 -0.419566
C42   C     C_3   0.716524 0.714925 0.294833 0.126056
H14   H     H_    0.747954 0.852521 0.236318 0.225608
H15   H     H_    0.829084 0.752938 0.171376 0.133471
H16   H     H_    0.812244 0.654184 0.291347 0.083202
O11   O     O_R   0.229140 0.916090 0.913340 -0.521325
O12   O     O_R   0.558860 0.905090 0.086080 -0.537674
O13   O     O_R   0.729100 0.083920 0.086690 -0.524618
C43   C     C_R   0.390097 0.883419 0.114989 0.722581
O14   O     O_R   0.558860 0.905090 0.913930 -0.522757
O15   O     O_R   0.729100 0.083920 0.913310 -0.528710
C44   C     C_R   0.389596 0.884314 0.884523 0.778267
O16   O     O_R   0.229140 0.916080 0.086720 -0.549936
O17   O     O_3   0.395570 0.058660 0.000020 -0.372132
V3    V     V_3+5 0.670450 0.989140 0.000000 1.511353
O18   O     O_R   0.058810 0.094980 0.913910 -0.528018
C45   C     C_R   0.890178 0.113754 0.883076 0.779509
O19   O     O_R   0.058810 0.094980 0.086060 -0.553196
C46   C     C_R   0.890488 0.116223 0.115321 0.699757
V4    V     V_3+5 0.170450 0.010950 0.999970 1.498617
O20   O     O_3   0.895460 0.941370 0.999990 -0.367447
Br1   Br    Br    0.514804 0.080115 0.261556 -0.561399
Br2   Br    Br    0.281247 0.970522 0.705779 -0.532703
H17   H     H_    0.583896 0.651103 0.922362 0.131119
H18   H     H_    0.980871 0.482753 0.732293 0.153483
Br3   Br    Br    0.820286 0.660669 0.712857 -0.536432
H19   H     H_    0.078063 0.742732 0.336719 0.181459
Br4   Br    Br    0.722267 0.782504 0.400557 -0.500594
H20   H     H_    0.074751 0.416189 0.987024 0.107564
Br5   Br    Br    0.823979 0.949291 0.773400 -0.487198
H21   H     H_    0.704639 0.964716 0.607314 0.188545

loop_
_geom_bond_atom_site_label_1
_geom_bond_atom_site_label_2
_ccdc_geom_bond_type
C41   H14   S    
C33   C34   S    
C23   C24   A    
O2    C1    A    
C6    C7    A    
O11   C44   A    
C1    O6    A    
O18   C45   A    
C22   C23   A    
C31   C32   A    
C12   C15   A    
C27   C32   A    
C13   C14   A    
C21   H5    S    
C15   Br5   S    
C20   C21   A    
O5    C3    A    
C17   C18   A    
C41   H15   S    
C8    H3    S    
V2    O10   S    
C5    C6    A    
C19   C24   A    
C11   C45   S    
V3    O20   S    
C35   C42   S    
O11   V4    S    
O8    V2    S    
C34   Br3   S    
C19   C20   A    
C29   C30   A    
O1    V2    S    
C10   C14   A    
C4    C14   S    
C26   Br1   S    
O7    V1    S    
O13   C46   A    
C38   C39   A    
C26   H9    S    
C41   C42   S    
C35   C36   A    
C8    C9    A    
H1    C17   S    
C6    H2    S    
C5    C10   A    
C5    H18   S    
C30   Br2   S    
C11   C12   A    
O12   C43   A    
O15   C45   A    
C22   H6    S    
O4    C2    A    
C12   C13   A    
V4    O20   S    
O12   V3    S    
C36   C37   A    
C31   C44   S    
C25   C26   S    
C38   H13   S    
O14   C44   A    
O19   C46   A    
C29   H10   S    
C18   H4    S    
C19   C26   S    
C25   H7    S    
O3    C4    A    
O16   V4    S    
C27   C28   A    
O19   V4    S    
C28   C29   A    
O6    V2    S    
O9    V2    S    
C9    C11   A    
C24   C25   S    
O2    V1    S    
C2    C36   S    
O17   V4    S    
C30   C31   A    
C3    C23   S    
O14   V3    S    
C27   C34   S    
C7    H20   S    
C32   C33   S    
C15   C16   A    
O1    C2    A    
O15   V3    S    
O5    V1    S    
C16   H21   S    
O8    C3    A    
C37   H19   S    
C1    C28   S    
C42   H16   S    
C39   C40   A    
C33   H11   S    
O7    V2    S    
O4    V1    S    
C21   C22   A    
O3    V1    S    
V1    O10   S    
C35   C40   A    
C20   C46   S    
O13   V3    S    
C34   H12   S    
C37   C38   A    
C25   H8    S    
C16   C17   A    
O17   V3    S    
C13   C18   A    
C7    C8    A    
C33   H17   S    
C40   C41   S    
C43   O16   A    
C42   Br4   S    
C39   C43   S    
C9    C10   A    
O9    C4    A    
O18   V4    S    
