data_mof_unit_54397.cif
_audit_creation_date              2012-12-11T17:37:49-0500
_audit_creation_method            fapswitch 2.2
_symmetry_space_group_name_H-M    P1
_symmetry_Int_Tables_number       1
_space_group_crystal_system       triclinic
_cell_length_a                    13.091887
_cell_length_b                    13.026229
_cell_length_c                    15.427495
_cell_angle_alpha                 117.551243
_cell_angle_beta                  63.726005
_cell_angle_gamma                 97.679432
_cell_volume                      2083.23924172

loop_
_atom_site_label
_atom_site_type_symbol
_atom_type_description
_atom_site_fract_x
_atom_site_fract_y
_atom_site_fract_z
_atom_type_partial_charge
C1    C     C_R   0.998241 0.832815 0.060502 -0.111446
C2    C     C_R   0.303167 0.586482 0.788499 -0.150516
C3    C     C_R   0.258007 0.418691 0.050361 -0.150105
C4    C     C_R   0.679953 0.475798 0.220112 -0.134369
C5    C     C_R   0.048215 0.275084 0.683741 -0.123325
C6    C     C_R   0.360429 0.437235 0.979237 0.148768
C7    C     C_R   0.034349 0.163315 0.676183 0.060372
C8    C     C_R   0.304290 0.547923 0.688365 0.061173
C9    C     C_R   0.005968 0.151260 0.043386 0.033607
C10   C     C_R   0.441698 0.888457 0.105577 -0.118715
C11   C     C_R   0.359420 0.879833 0.197822 -0.148820
C12   C     C_R   0.674314 0.554326 0.321233 0.038856
C13   C     C_R   0.271792 0.969832 0.277863 0.117064
C14   C     C_R   0.267674 0.067807 0.263274 -0.173160
C15   C     C_R   0.350149 0.076149 0.171068 -0.117137
C16   C     C_R   0.753404 0.517577 0.894656 0.051805
C17   C     C_R   0.437373 0.986844 0.092580 -0.086175
C18   C     C_R   0.161502 0.058873 0.478960 -0.236374
C19   C     C_R   0.084924 0.053019 0.575345 0.063189
C20   C     C_R   0.058195 0.941431 0.569514 0.043070
C21   C     C_R   0.092373 0.845382 0.469009 -0.228491
C22   C     C_R   0.135280 0.860167 0.375602 0.041897
C23   C     C_R   0.660712 0.458026 0.928165 0.100483
C24   C     C_R   0.187395 0.962637 0.377764 0.033190
C25   C     C_R   0.023224 0.912457 0.728501 -0.170744
C26   C     C_R   0.949144 0.892675 0.816602 -0.186218
C27   C     C_R   0.834200 0.877272 0.837044 -0.164514
C28   C     C_R   0.025266 0.695759 0.297503 -0.144703
C29   C     C_R   0.793521 0.879477 0.767991 0.147882
C30   C     C_R   0.867333 0.900353 0.680191 -0.243969
C31   C     C_R   0.981739 0.919241 0.661690 0.102514
C32   C     C_R   0.863909 0.356846 0.354751 -0.107143
C33   C     C_R   0.748445 0.391650 0.398637 -0.109853
C34   C     C_R   0.090980 0.787668 0.295199 0.072233
C35   C     C_R   0.706272 0.506816 0.477231 0.112681
C36   C     C_R   0.776972 0.582986 0.519449 -0.167973
C37   C     C_R   0.893098 0.549251 0.471986 -0.135114
C38   C     C_R   0.937143 0.437217 0.387624 -0.116013
C39   C     C_R   0.503566 0.558267 0.590352 -0.232209
C40   C     C_R   0.676338 0.421360 0.991755 -0.156391
C41   C     C_R   0.393748 0.566968 0.600591 0.067968
C42   C     C_R   0.376103 0.581273 0.522361 0.024494
C43   C     C_R   0.469758 0.588945 0.436575 -0.251786
C44   C     C_R   0.579425 0.572095 0.423217 0.073766
C45   C     C_R   0.337907 0.517391 0.953108 -0.118291
C46   C     C_R   0.596154 0.552784 0.499368 0.015843
C47   C     C_R   0.253080 0.457014 0.439943 -0.165320
C48   C     C_R   0.144222 0.419770 0.456713 -0.169491
C49   C     C_R   0.048814 0.491172 0.547605 -0.122124
C50   C     C_R   0.061025 0.604132 0.616155 -0.118856
C51   C     C_R   0.169850 0.641486 0.600649 -0.145598
C52   C     C_R   0.103015 0.796543 0.205312 -0.151340
C53   C     C_R   0.266158 0.564884 0.516338 0.118032
C54   C     C_2   0.471941 0.397382 0.955002 -0.201943
C55   C     C_2   0.565064 0.436750 0.900575 -0.184350
C56   C     C_R   0.965193 0.177975 0.781055 -0.136146
C57   C     C_2   0.824729 0.957419 0.111795 -0.191658
C58   C     C_2   0.824068 0.045984 0.202260 -0.170075
C59   C     C_R   0.784027 0.574562 0.310142 -0.089399
C60   C     C_R   0.894559 0.748481 0.967941 -0.165300
C61   C     C_R   0.906393 0.852738 0.046483 0.113756
C62   C     C_1   0.676354 0.859723 0.786798 -0.027470
C63   C     C_1   0.778175 0.552209 0.811889 -0.032776
C64   C     C_R   0.206926 0.491851 0.689838 -0.134288
C65   C     C_R   0.052062 0.254662 0.086238 -0.121008
C66   C     C_R   0.948973 0.171954 0.994710 -0.118280
H1    H     H_    0.027958 0.893621 0.119157 0.096928
H2    H     H_    0.364646 0.803644 0.207354 0.118074
H3    H     H_    0.609717 0.438880 0.200119 0.097950
H4    H     H_    0.200221 0.137222 0.322889 0.101364
H5    H     H_    0.346579 0.152057 0.160637 0.100587
H6    H     H_    0.198548 0.138904 0.481468 0.125741
H7    H     H_    0.067891 0.761975 0.466705 0.124571
H8    H     H_    0.111630 0.925672 0.714063 0.125002
H9    H     H_    0.981316 0.890864 0.869315 0.147608
H10   H     H_    0.776671 0.863496 0.906156 0.105227
H11   H     H_    0.836073 0.902737 0.626682 0.128350
H12   H     H_    0.929044 0.115097 0.809489 0.128704
H13   H     H_    0.027942 0.412681 0.347218 0.109219
H14   H     H_    0.693922 0.331844 0.366222 0.116364
H15   H     H_    0.745307 0.671993 0.579386 0.129518
H16   H     H_    0.949373 0.611766 0.497985 0.127961
H17   H     H_    0.518051 0.541015 0.646672 0.133091
H18   H     H_    0.457562 0.597267 0.374872 0.133020
H19   H     H_    0.327006 0.397012 0.374456 0.115895
H20   H     H_    0.134052 0.333613 0.402468 0.108816
H21   H     H_    0.965495 0.458568 0.564101 0.147365
H22   H     H_    0.987039 0.660096 0.684917 0.153216
H23   H     H_    0.178589 0.453410 0.627584 0.134925
H24   H     H_    0.011450 0.652839 0.346237 0.099999
H25   H     H_    0.179344 0.724074 0.660415 0.116958
H26   H     H_    0.473654 0.355810 0.001144 0.125017
H27   H     H_    0.563478 0.474763 0.851761 0.134818
H28   H     H_    0.759482 0.961378 0.087943 0.134988
H29   H     H_    0.884873 0.047724 0.232890 0.128326
H30   H     H_    0.630454 0.358779 0.019107 0.096571
H31   H     H_    0.158198 0.850294 0.171050 0.116328
H32   H     H_    0.810016 0.636347 0.371066 0.114254
H33   H     H_    0.825673 0.732849 0.944928 0.115475
H34   H     H_    0.090870 0.273772 0.140301 0.081586
H35   H     H_    0.397330 0.556308 0.904125 0.091098
H36   H     H_    0.246794 0.366128 0.090670 0.092477
H37   H     H_    0.897603 0.269530 0.291685 0.114499
H38   H     H_    0.890096 0.116274 0.966808 0.111972
H39   H     H_    0.359285 0.645125 0.819164 0.105006
H40   H     H_    0.090766 0.297702 0.618091 0.094454
H41   H     H_    0.501677 0.994155 0.021881 0.113496
H42   H     H_    0.509258 0.819237 0.044535 0.112099
N1    N     N_R   0.037320 0.720000 0.995830 -0.045686
N2    N     N_R   0.824900 0.517970 0.936430 -0.061090
N3    N     N_R   0.003190 0.648180 0.211390 -0.041462
N4    N     N_R   0.774330 0.457010 0.995830 -0.051190
N5    N     N_R   0.053760 0.709130 0.151980 -0.041421
N6    N     N_R   0.853840 0.498830 0.211390 -0.039954
N7    N     N_R   0.974250 0.667320 0.936430 -0.039738
N8    N     N_R   0.225670 0.542990 0.004170 -0.044619
N9    N     N_1   0.582378 0.843286 0.801348 -0.097679
N10   N     N_1   0.793809 0.580749 0.746677 -0.099889
N11   N     N_R   0.946240 0.290870 0.848020 -0.044067
N12   N     N_R   0.146160 0.501170 0.788610 -0.040488
N13   N     N_R   0.025750 0.332680 0.063570 -0.036220
N14   N     N_R   0.962680 0.280000 0.004170 -0.043322
N15   N     N_R   0.209230 0.553860 0.848010 -0.038774
N16   N     N_R   0.175100 0.482030 0.063570 -0.040616
N17   N     N_R   0.996810 0.351820 0.788610 -0.040613
N18   N     N_R   0.790770 0.446140 0.151990 -0.041846
Ni1   Ni    Ni4+2 0.130310 0.630310 0.000000 0.213732
Ni2   Ni    Ni4+2 0.869690 0.369690 0.000000 0.209171
Ni3   Ni    Ni4+2 0.985660 0.509480 0.863750 0.225222
Ni4   Ni    Ni4+2 0.014340 0.490520 0.136250 0.217964

loop_
_geom_bond_atom_site_label_1
_geom_bond_atom_site_label_2
_ccdc_geom_bond_type
C25   C31   A    
C6    C45   A    
C27   C29   A    
N6    Ni4   S    
C41   C42   A    
C49   H21   S    
C10   H42   S    
C19   C20   A    
N13   Ni4   S    
C55   H27   S    
C60   H33   S    
C16   N2    A    
C40   N4    A    
C52   N5    A    
C3    N16   A    
C26   C27   A    
C29   C30   A    
C65   N13   A    
C18   C24   A    
C47   H19   S    
C36   C37   A    
C40   H30   S    
C18   C19   A    
C17   H41   S    
C42   C53   S    
C30   C31   A    
N6    N18   A    
C38   H13   S    
C10   C17   A    
C23   C40   A    
C21   H7    S    
C52   H31   S    
C56   H12   S    
N2    Ni3   S    
C25   H8    S    
C9    C66   A    
C62   N9    T    
C51   H25   S    
C29   C62   S    
C30   H11   S    
N1    Ni1   S    
C35   C36   A    
N8    Ni1   S    
C66   N14   A    
C16   C63   S    
C32   C38   A    
C4    C12   A    
N12   N15   A    
C50   H22   S    
C47   C53   A    
C1    N1    A    
N11   Ni2   S    
C3    C6    A    
C28   C34   A    
C13   C14   A    
C43   H18   S    
C14   H4    S    
C7    C56   A    
C6    C54   S    
C4    H3    S    
C44   C46   A    
C26   H9    S    
C9    C65   A    
C5    H40   S    
C28   N3    A    
C18   H6    S    
C22   C34   S    
N12   Ni3   S    
C66   H38   S    
C8    C41   S    
C39   C41   A    
C5    C7    A    
C63   N10   T    
C25   C26   A    
C2    N15   A    
C1    H1    S    
C13   C24   S    
C60   C61   A    
C51   C53   A    
C58   H29   S    
C54   H26   S    
C37   C38   A    
N3    Ni4   S    
N15   Ni1   S    
C47   C48   A    
C36   H15   S    
C50   C51   A    
C32   H37   S    
N16   Ni4   S    
N3    N5    A    
C57   C61   S    
N13   N14   A    
C45   H35   S    
C8    C64   A    
C39   C46   A    
N11   N17   A    
C3    H36   S    
C48   C49   A    
C16   C23   A    
C7    C19   S    
C57   H28   S    
C43   C44   A    
C56   N11   A    
C48   H20   S    
C37   H16   S    
C42   C43   A    
C27   H10   S    
C11   H2    S    
N7    Ni3   S    
C64   H23   S    
C15   C17   A    
C54   C55   D    
N18   Ni2   S    
N8    N16   A    
C2    C8    A    
C65   H34   S    
C1    C61   A    
C33   H14   S    
C23   C55   S    
N5    Ni1   S    
C15   H5    S    
C2    H39   S    
C34   C52   A    
C64   N12   A    
C4    N18   A    
C32   C33   A    
C39   H17   S    
C12   C44   S    
C11   C13   A    
C45   N8    A    
C57   C58   D    
C59   N6    A    
C33   C35   A    
C22   C24   A    
C12   C59   A    
N14   Ni2   S    
N2    N4    A    
N4    Ni2   S    
C10   C11   A    
N1    N7    A    
N17   Ni3   S    
C20   C21   A    
C49   C50   A    
C5    N17   A    
C59   H32   S    
C14   C15   A    
C60   N7    A    
C28   H24   S    
C21   C22   A    
C35   C46   S    
C20   C31   S    
