data_mof_unit_62188.cif
_audit_creation_date              2012-12-11T15:00:36-0500
_audit_creation_method            fapswitch 2.2
_symmetry_space_group_name_H-M    P1
_symmetry_Int_Tables_number       1
_space_group_crystal_system       triclinic
_cell_length_a                    13.27029
_cell_length_b                    13.27924
_cell_length_c                    26.820135
_cell_angle_alpha                 96.829242
_cell_angle_beta                  97.046881
_cell_angle_gamma                 61.323375
_cell_volume                      4105.40016703

loop_
_atom_site_label
_atom_site_type_symbol
_atom_type_description
_atom_site_fract_x
_atom_site_fract_y
_atom_site_fract_z
_atom_type_partial_charge
C1    C     C_R   0.379109 0.722472 0.435040 0.553965
C2    C     C_1   0.330289 0.338829 0.268199 0.014230
C3    C     C_1   0.343882 0.346787 0.321059 -0.023084
C4    C     C_1   0.362311 0.356079 0.365895 0.009365
C5    C     C_3   0.771338 0.265323 0.266602 -0.223977
C6    C     C_3   0.961229 0.266998 0.288267 -0.224492
C7    C     C_3   0.977899 0.250569 0.231073 -0.223892
C8    C     C_1   0.899165 0.291565 0.103723 -0.004563
C9    C     C_3   0.831450 0.332074 0.296769 0.023810
C10   C     C_3   0.790279 0.250786 0.209702 -0.261622
C11   C     C_3   0.859469 0.312144 0.199949 0.055979
C12   C     C_R   0.394682 0.373183 0.417659 0.545995
C13   C     C_3   0.788045 0.441804 0.218937 0.176777
C14   C     C_3   0.780793 0.453289 0.276795 -0.189984
C15   C     C_1   0.876203 0.301172 0.146409 -0.041656
C16   C     C_1   0.810629 0.344545 0.349916 -0.044454
C17   C     C_1   0.779325 0.363897 0.391652 0.011223
C18   C     C_3   0.445170 0.705912 0.265575 0.006399
C19   C     C_3   0.348971 0.920622 0.284912 -0.239161
C20   C     C_3   0.342134 0.937778 0.228348 -0.228331
C21   C     C_1   0.305513 0.886526 0.100137 -0.008291
C22   C     C_3   0.342477 0.809599 0.291599 0.093453
C23   C     C_R   0.725374 0.399052 0.437750 0.551724
C24   C     C_3   0.437521 0.723100 0.208667 -0.198606
C25   C     C_3   0.331488 0.838531 0.195513 0.019301
C26   C     C_3   0.221081 0.837249 0.208099 -0.187882
C27   C     C_3   0.227880 0.818094 0.264627 0.058658
C28   C     C_1   0.322742 0.858242 0.142400 -0.070117
C29   C     C_1   0.351317 0.792697 0.345153 0.022952
C30   C     C_1   0.362117 0.768451 0.387767 0.042060
C31   C     C_3   0.431245 0.359243 0.731478 0.058174
C32   C     C_3   0.340870 0.228047 0.706360 -0.202401
C33   C     C_3   0.331874 0.221655 0.762743 -0.213273
C34   C     C_R   0.381584 0.724499 0.575513 0.543635
C35   C     C_1   0.296163 0.308342 0.887578 -0.008308
C36   C     C_3   0.333767 0.344552 0.697789 0.069325
C37   C     C_3   0.420619 0.352250 0.787801 -0.182857
C38   C     C_3   0.315554 0.334761 0.793289 0.035154
C39   C     C_3   0.205540 0.436436 0.770884 -0.226895
C40   C     C_3   0.216250 0.442259 0.714471 -0.250301
C41   C     C_1   0.305521 0.325912 0.846031 -0.069076
C42   C     C_1   0.344740 0.351190 0.644861 -0.027525
C43   C     C_1   0.362725 0.359662 0.603264 0.017846
C44   C     C_1   0.889174 0.294037 0.864409 -0.004319
C45   C     C_R   0.395626 0.375922 0.557664 0.545809
C46   C     C_1   0.861724 0.305843 0.820107 -0.030683
C47   C     C_1   0.838972 0.319942 0.767882 0.026100
C48   C     C_1   0.821940 0.333530 0.723402 0.035335
C49   C     C_1   0.799095 0.352639 0.671607 -0.012157
C50   C     C_1   0.771671 0.373124 0.627967 0.009387
C51   C     C_1   0.293207 0.893956 0.862799 -0.006773
C52   C     C_1   0.312933 0.866497 0.819189 -0.043188
C53   C     C_1   0.330623 0.843107 0.767364 -0.005108
C54   C     C_1   0.342804 0.825200 0.722838 -0.003887
C55   C     C_1   0.355389 0.801230 0.670623 -0.040012
C56   C     C_R   0.724086 0.403818 0.577728 0.543312
C57   C     C_1   0.366419 0.772883 0.626432 -0.002949
C58   C     C_R   0.942887 0.277590 0.056253 0.543799
C59   C     C_R   0.287970 0.271126 0.073258 0.542075
C60   C     C_R   0.270757 0.936951 0.053100 0.544742
C61   C     C_R   0.936936 0.279013 0.915570 0.543568
C62   C     C_R   0.281571 0.273915 0.933169 0.545662
C63   C     C_R   0.262618 0.941041 0.912925 0.543367
C64   C     C_1   0.304896 0.302146 0.125189 -0.013302
C65   C     C_1   0.314267 0.319154 0.170095 -0.052982
C66   C     C_1   0.322455 0.331480 0.222970 0.001051
Cr1   Cr    Cr6+3 0.585490 0.589720 0.509170 1.041979
Cr2   Cr    Cr6+3 0.329280 0.580760 0.494920 1.050861
Cr3   Cr    Cr6+3 0.585250 0.329540 0.495950 1.060949
Cr4   Cr    Cr6+3 0.077160 0.074530 0.981700 1.036828
Cr5   Cr    Cr6+3 0.079310 0.333830 0.996170 1.033521
Cr6   Cr    Cr6+3 0.334250 0.081620 0.994710 1.036422
H1    H     H_    0.837344 0.157584 0.197572 0.144363
H2    H     H_    0.677313 0.312199 0.271630 0.172412
H3    H     H_    0.705490 0.286992 0.187384 0.126410
H4    H     H_    0.517548 0.722445 0.199683 0.128163
H5    H     H_    0.527371 0.701313 0.283481 0.131408
H6    H     H_    0.277741 0.996876 0.303235 0.163764
H7    H     H_    0.431144 0.914835 0.303525 0.106999
H8    H     H_    0.420514 0.941177 0.219960 0.129090
H9    H     H_    0.266548 0.021878 0.219398 0.127294
H10   H     H_    0.225335 0.736530 0.267418 0.190638
H11   H     H_    0.806024 0.178943 0.281294 0.166261
H12   H     H_    0.210745 0.767289 0.184648 0.116970
H13   H     H_    0.431139 0.651333 0.185054 0.165748
H14   H     H_    0.144185 0.919748 0.198431 0.155460
H15   H     H_    0.500055 0.280309 0.804232 0.169560
H16   H     H_    0.269638 0.218532 0.683508 0.110494
H17   H     H_    0.422995 0.155180 0.693870 0.173931
H18   H     H_    0.411295 0.147237 0.777720 0.141731
H19   H     H_    0.005036 0.315758 0.307829 0.107726
H20   H     H_    0.258056 0.206050 0.766744 0.122814
H21   H     H_    0.207958 0.527527 0.708490 0.121867
H22   H     H_    0.144439 0.434551 0.691256 0.127362
H23   H     H_    0.192215 0.518779 0.791974 0.127718
H24   H     H_    0.422143 0.445396 0.726571 0.135242
H25   H     H_    0.410773 0.432985 0.809429 0.104580
H26   H     H_    0.128712 0.425671 0.774694 0.131691
H27   H     H_    0.002037 0.182089 0.304623 0.186887
H28   H     H_    0.019898 0.156799 0.219638 0.141630
H29   H     H_    0.039802 0.279289 0.223298 0.094308
H30   H     H_    0.689575 0.505630 0.285684 0.146191
H31   H     H_    0.826040 0.500178 0.296618 0.123680
H32   H     H_    0.698134 0.468158 0.202791 0.156524
O1    O     O_R   0.700490 0.499650 0.456540 -0.507143
O2    O     O_R   0.339040 0.474950 0.540330 -0.503514
O3    O     O_R   0.494500 0.302900 0.543920 -0.488033
O4    O     O_R   0.682200 0.343540 0.552130 -0.482742
O5    O     O_3   0.500010 0.500010 0.500010 -0.257593
O6    O     O_R   0.170650 0.959160 0.034150 -0.507817
O7    O     O_R   0.983870 0.178140 0.033160 -0.496938
O8    O     O_R   0.966160 0.354510 0.046020 -0.503024
O9    O     O_R   0.187830 0.326650 0.051390 -0.497994
O10   O     O_R   0.362200 0.173970 0.055450 -0.503730
O11   O     O_R   0.326660 0.983110 0.039170 -0.493760
O12   O     O_R   0.479270 0.682700 0.457880 -0.498784
O13   O     O_R   0.165170 0.960730 0.925500 -0.503087
O14   O     O_R   0.978790 0.179600 0.932440 -0.490615
O15   O     O_R   0.960680 0.356080 0.937360 -0.505025
O16   O     O_R   0.182750 0.328100 0.950670 -0.494835
O17   O     O_R   0.356720 0.175530 0.946790 -0.504652
O18   O     O_R   0.321590 0.984560 0.938450 -0.493536
O19   O     O_3   0.163570 0.163330 0.990860 -0.255690
O20   O     O_R   0.304400 0.696100 0.445190 -0.488237
O21   O     O_R   0.337880 0.472540 0.439600 -0.489858
O22   O     O_R   0.493250 0.300300 0.435260 -0.505316
O23   O     O_R   0.681040 0.341130 0.451400 -0.489274
O24   O     O_R   0.701750 0.502250 0.565200 -0.509655
O25   O     O_R   0.480430 0.685110 0.558610 -0.493759
O26   O     O_R   0.305650 0.698700 0.553850 -0.503945
O27   O     O_3   0.813975 0.522871 0.200866 -0.578763
C67   C     C_3   0.928434 0.503233 0.212666 0.020727
H33   H     H_    0.983368 0.442648 0.183095 0.154424
H34   H     H_    0.964593 0.469190 0.250215 0.121795
C68   C     C_3   0.930342 0.617415 0.212580 -0.258032
H35   H     H_    0.893944 0.654135 0.175413 0.183823
H36   H     H_    0.875864 0.679078 0.242050 0.176362
C69   C     C_3   0.052386 0.602292 0.222749 -0.466322
H37   H     H_    0.090928 0.565429 0.259700 0.165825
H38   H     H_    0.050045 0.687182 0.223472 0.171411
H39   H     H_    0.106996 0.544697 0.192517 0.158501
Br1   Br    Br    0.091026 0.936455 0.296231 -0.643118
Br2   Br    Br    0.452800 0.557772 0.274297 -0.653972
Br3   Br    Br    0.585560 0.247438 0.712046 -0.561702

loop_
_geom_bond_atom_site_label_1
_geom_bond_atom_site_label_2
_ccdc_geom_bond_type
C68   C69   S    
C22   C29   S    
Cr6   O17   S    
C61   O15   A    
C36   C42   S    
C19   C20   S    
C40   H21   S    
Cr1   O12   S    
Cr2   O20   S    
C6    C9    S    
C37   H25   S    
Cr3   O3    S    
C68   H35   S    
C53   C54   T    
C52   C53   S    
C25   C28   S    
C7    C11   S    
Cr6   O11   S    
C59   C64   S    
C17   C23   S    
Cr5   O16   S    
C58   O8    A    
C32   C36   S    
Cr5   O19   S    
C18   Br2   S    
C9    C16   S    
C18   H5    S    
C38   C39   S    
C63   O13   A    
C10   H1    S    
C14   H30   S    
C12   O22   A    
C20   C25   S    
Cr4   O13   S    
C31   H24   S    
C32   H16   S    
Cr6   O10   S    
C31   Br3   S    
C27   Br1   S    
Cr5   O9    S    
C5    H2    S    
C56   O4    A    
Cr4   O6    S    
C8    C58   S    
C54   C55   S    
Cr3   O5    S    
Cr4   O19   S    
Cr1   O5    S    
C47   C48   T    
C34   O25   A    
C16   C17   T    
C34   C57   S    
C1    O12   A    
C4    C12   S    
C29   C30   T    
C24   H13   S    
C62   O16   A    
C59   O9    A    
C6    H19   S    
C13   C14   S    
Cr1   O25   S    
Cr2   O2    S    
Cr3   O4    S    
C44   C46   T    
C7    H28   S    
C20   H8    S    
C58   O7    A    
C67   C68   S    
C36   C40   S    
C19   C22   S    
C51   C63   S    
C24   C25   S    
C38   C41   S    
Cr4   O7    S    
C33   H20   S    
C39   C40   S    
C24   H4    S    
C39   H26   S    
C12   O21   A    
C25   C26   S    
C50   C56   S    
C51   C52   T    
C19   H6    S    
C19   H7    S    
C9    C14   S    
C5    C9    S    
C37   C38   S    
C10   H3    S    
C32   H17   S    
C26   H14   S    
Cr3   O23   S    
Cr5   O8    S    
C13   O27   S    
C13   H32   S    
Cr2   O26   S    
C43   C45   S    
C39   H23   S    
C69   H38   S    
C21   C60   S    
C48   C49   S    
C21   C28   T    
Cr3   O22   S    
C49   C50   T    
C8    C15   T    
C11   C15   S    
C22   C27   S    
C55   C57   T    
Cr6   O19   S    
C26   C27   S    
C18   C24   S    
C42   C43   T    
C3    C4    T    
C63   O18   A    
C45   O2    A    
C23   O23   A    
C68   H36   S    
C46   C47   S    
C26   H12   S    
Cr6   O18   S    
C61   O14   A    
C18   C22   S    
C33   H18   S    
C37   H15   S    
C27   H10   S    
Cr1   O1    S    
C40   H22   S    
C2    C66   T    
C69   H39   S    
C6    C7    S    
C44   C61   S    
C33   C38   S    
Cr5   O15   S    
C10   C11   S    
C32   C33   S    
C2    C3    S    
C1    O20   A    
C5    C10   S    
Cr1   O24   S    
C6    H27   S    
C11   C13   S    
C14   H31   S    
Cr4   O14   S    
C59   O10   A    
C5    H11   S    
C64   C65   T    
C1    C30   S    
C67   H33   S    
C35   C62   S    
Cr2   O5    S    
C56   O24   A    
C35   C41   T    
C60   O6    A    
C69   H37   S    
C45   O3    A    
C31   C37   S    
C34   O26   A    
C67   H34   S    
C65   C66   S    
C7    H29   S    
C31   C36   S    
C60   O11   A    
C20   H9    S    
Cr2   O21   S    
C62   O17   A    
O27   C67   S    
C23   O1    A    
