data_mof_unit_48607.cif
_audit_creation_date              2013-03-05T15:55:19-0500
_audit_creation_method            fapswitch 2.2
_symmetry_space_group_name_H-M    P1
_symmetry_Int_Tables_number       1
_space_group_crystal_system       triclinic
_cell_length_a                    27.703195
_cell_length_b                    10.612471
_cell_length_c                    9.905406
_cell_angle_alpha                 89.824976
_cell_angle_beta                  89.822818
_cell_angle_gamma                 91.706049
_cell_volume                      2910.86371182

loop_
_atom_site_label
_atom_site_type_symbol
_atom_site_description
_atom_site_fract_x
_atom_site_fract_y
_atom_site_fract_z
_atom_type_partial_charge
O1    O     O_R   0.500000 0.316780 0.614690 -0.635162
O2    O     O_R   0.500000 0.316750 0.385360 -0.628511
C1    C     C_R   0.501229 0.260725 0.500191 0.860591
O3    O     O_R   0.428760 0.500030 0.614650 -0.633799
O4    O     O_R   0.428750 0.500010 0.385320 -0.639353
C2    C     C_R   0.406111 0.498642 0.500282 0.893216
Zn1   Zn    Zn3+2 0.500000 0.500020 0.653130 0.944148
Zn2   Zn    Zn3+2 0.500000 0.499980 0.346870 0.951690
O5    O     O_R   0.500000 0.683250 0.614640 -0.612050
O6    O     O_R   0.500000 0.683220 0.385310 -0.611653
O7    O     O_R   0.571250 0.499990 0.614680 -0.637301
O8    O     O_R   0.571240 0.499970 0.385350 -0.613978
C3    C     C_R   0.501412 0.739445 0.499773 0.877111
C4    C     C_R   0.593936 0.500071 0.499793 0.877376
C5    C     C_R   0.175749 0.366692 0.501636 0.494393
O9    O     O_2   0.198765 0.256372 0.504952 -0.571097
N1    N     N_R   0.201671 0.477815 0.502476 -0.343937
C6    C     C_R   0.180084 0.591707 0.497347 0.585043
C7    C     C_R   0.278027 0.452488 0.385682 -0.192638
C8    C     C_R   0.328081 0.459684 0.383769 -0.219146
C9    C     C_R   0.328295 0.513498 0.622033 -0.296019
C10   C     C_R   0.277852 0.502134 0.625791 0.554384
C11   C     C_R   0.253025 0.475506 0.505406 0.224373
C12   C     C_R   0.101951 0.483083 0.491001 -0.126382
C13   C     C_R   0.125406 0.367097 0.497611 0.011593
C14   C     C_R   0.098244 0.254266 0.503000 -0.187682
C15   C     C_R   0.129524 0.597359 0.489318 -0.150469
C16   C     C_R   0.353463 0.491203 0.501691 -0.087937
H1    H     H_    0.347729 0.542507 0.711943 0.170622
H2    H     H_    0.115453 0.164576 0.514497 0.194165
C17   C     C_R   0.646647 0.498387 0.499039 -0.132773
C18   C     C_R   0.973005 0.371238 0.465535 -0.193419
C19   C     C_R   0.976479 0.600648 0.505654 0.126234
C20   C     C_R   0.949434 0.486320 0.486968 0.012382
C21   C     C_R   0.944794 0.263533 0.427500 0.494149
C22   C     C_R   0.894663 0.265705 0.428109 0.639888
C23   C     C_R   0.870959 0.376190 0.462166 -0.284737
C24   C     C_R   0.898374 0.487335 0.489278 -0.133876
C25   C     C_R   0.874684 0.599812 0.518509 0.020766
C26   C     C_R   0.824267 0.599039 0.521733 0.557503
N2    N     N_R   0.798480 0.490361 0.495910 -0.349097
C27   C     C_R   0.820382 0.380128 0.466615 0.662783
C28   C     C_R   0.721936 0.494688 0.374833 0.709436
C29   C     C_R   0.671853 0.497513 0.375825 -0.286564
C30   C     C_R   0.672211 0.496694 0.621214 -0.223952
C31   C     C_R   0.722323 0.493941 0.619950 -0.181447
C32   C     C_R   0.747117 0.492719 0.496914 0.164842
O10   O     O_2   0.793088 0.275178 0.442606 -0.448249
C33   C     C_R   0.023794 0.368900 0.480871 0.122453
C34   C     C_R   0.050910 0.484333 0.487305 0.073243
C35   C     C_R   0.027381 0.600679 0.493157 -0.012428
C36   C     C_R   0.048313 0.255072 0.496103 -0.138474
H3    H     H_    0.652934 0.498936 0.280331 0.189317
H4    H     H_    0.029644 0.165392 0.510005 0.210354
O11   O     O_2   0.207773 0.698403 0.500579 -0.492812
C37   C     C_R   0.105895 0.712811 0.478324 0.535045
H5    H     H_    0.346808 0.441496 0.290019 0.172057
H6    H     H_    0.258475 0.431254 0.293581 0.150581
C38   C     C_R   0.951610 0.711099 0.537477 -0.190721
C39   C     C_R   0.901630 0.710371 0.543976 -0.092995
O12   O     O_2   0.801033 0.706052 0.549347 -0.525912
C40   C     C_R   0.055550 0.713444 0.485985 -0.322227
H7    H     H_    0.969857 0.799097 0.562252 0.160290
H8    H     H_    0.653589 0.497279 0.717498 0.181929
H9    H     H_    0.884178 0.797368 0.568868 0.211266
H10   H     H_    0.741963 0.492528 0.714271 0.182076
H11   H     H_    0.039437 0.804562 0.482257 0.162276
H12   H     H_    0.438487 0.109786 0.384648 0.146604
C41   C     C_R   0.582507 0.137359 0.622295 -0.173191
H13   H     H_    0.584469 0.239193 0.622126 0.154493
C42   C     C_R   0.620609 0.074363 0.681182 -0.102200
H14   H     H_    0.650370 0.127507 0.726118 0.159666
C43   C     C_R   0.620700 0.943238 0.680717 -0.106604
H15   H     H_    0.650529 0.894486 0.725314 0.161159
C44   C     C_R   0.582706 0.874675 0.621286 -0.188858
H16   H     H_    0.584817 0.773110 0.620212 0.144390
C45   C     C_R   0.543501 0.937164 0.562397 0.094291
C46   C     C_R   0.543386 0.069187 0.562937 0.095898
C47   C     C_R   0.504482 0.128701 0.500134 -0.083176
C48   C     C_R   0.467772 0.061989 0.433715 -0.184523
H17   H     H_    0.438672 0.881229 0.383896 0.161291
C49   C     C_R   0.467894 0.933342 0.433186 -0.178043
C50   C     C_R   0.504716 0.871973 0.499107 -0.099458
H18   H     H_    0.554908 0.639918 0.124382 0.149990
C51   C     C_R   0.436011 0.336222 0.141033 -0.265014
H19   H     H_    0.434217 0.329437 0.248069 0.224002
C52   C     C_R   0.404042 0.256831 0.071258 -0.310805
H20   H     H_    0.379325 0.194434 0.126274 0.181646
C53   C     C_R   0.403976 0.257028 0.931485 0.636733
C54   C     C_R   0.435946 0.336553 0.860786 -0.258453
H21   H     H_    0.434250 0.330099 0.753766 0.226653
C55   C     C_R   0.468422 0.419434 0.928149 0.087355
C56   C     C_R   0.468445 0.419390 0.072785 0.187252
N3    N     N_R   0.499540 0.498800 0.142780 -0.112177
C57   C     C_R   0.530221 0.577006 0.070999 -0.099700
H22   H     H_    0.554889 0.639874 0.873522 0.142297
C58   C     C_R   0.530214 0.576963 0.927825 -0.089462
N4    N     N_R   0.499520 0.498720 0.857170 -0.107297
O13   O     O_3   0.131917 0.826491 0.472793 -0.586882
C59   C     C_3   0.126297 0.884984 0.345103 0.099231
H23   H     H_    0.132670 0.987918 0.358977 0.181659
H24   H     H_    0.089202 0.873131 0.302831 0.125162
C60   C     C_3   0.163604 0.838021 0.243808 -0.329020
H25   H     H_    0.200529 0.854362 0.284979 0.272314
H26   H     H_    0.157663 0.735221 0.227140 0.207913
C61   C     C_3   0.159993 0.906491 0.108689 -0.909426
H27   H     H_    0.123591 0.890062 0.064211 0.272639
H28   H     H_    0.187405 0.870478 0.037628 0.280854
H29   H     H_    0.166772 0.009373 0.122267 0.267267
O14   O     O_3   0.251876 0.531779 0.740829 -0.627320
C62   C     C_3   0.262068 0.448706 0.848654 0.042886
H30   H     H_    0.250073 0.494300 0.943335 0.179426
H31   H     H_    0.301274 0.432289 0.861440 0.141997
C63   C     C_3   0.234043 0.322788 0.833414 -0.328901
H32   H     H_    0.195108 0.340629 0.817901 0.237171
H33   H     H_    0.247774 0.271898 0.744006 0.262342
C64   C     C_3   0.239671 0.239677 0.958094 -0.875740
H34   H     H_    0.278365 0.220297 0.975197 0.295126
H35   H     H_    0.219650 0.148627 0.943087 0.276344
H36   H     H_    0.224844 0.286572 0.048692 0.247268
F1    F     F_    0.372943 0.179094 0.863613 -0.667365
F2    F     F_    0.746091 0.494467 0.255447 -0.640360
F3    F     F_    0.869637 0.159076 0.392048 -0.556182
F4    F     F_    0.964856 0.158233 0.377554 -0.643941

loop_
_geom_bond_atom_site_label_1
_geom_bond_atom_site_label_2
_geom_bond_distance
_ccdc_geom_bond_type
H12   C48   1.084946 S    
C52   H20   1.082966 S    
C56   N3    1.377325 A    
Zn1   N4    2.021103 S    
N2    C27   1.365331 A    
C21   C22   1.389672 A    
C12   C15   1.413911 A    
C4    C17   1.460904 S    
C28   C29   1.388694 A    
C1    C47   1.406671 S    
C63   H32   1.111690 S    
C55   N4    1.376220 A    
C30   C31   1.389455 A    
Zn1   O7    2.009114 S    
N1    C11   1.423977 S    
C53   F1    1.356376 S    
C40   H11   1.077628 S    
C21   F4    1.356869 S    
C31   H10   1.082924 S    
C64   H35   1.110345 S    
C51   H19   1.063367 S    
O4    C2    1.298172 A    
O7    C4    1.298288 A    
C5    C13   1.395486 A    
C61   H27   1.110962 S    
C45   C50   1.410198 A    
C5    O9    1.350068 S    
C58   N4    1.366583 A    
N1    C6    1.365283 A    
C43   H15   1.082574 S    
C23   C27   1.403562 A    
C41   C42   1.394557 A    
O5    C3    1.282951 A    
O14   C62   1.417268 S    
C59   H23   1.110377 S    
C51   C56   1.410232 A    
C29   H3    1.083107 S    
C2    C16   1.458337 S    
C7    C8    1.386545 A    
C10   O14   1.387756 S    
C60   C61   1.525963 S    
C38   C39   1.385699 A    
C19   C38   1.413131 A    
O1    Zn1   1.982697 S    
C9    C10   1.399393 A    
C43   C44   1.394547 A    
C41   C46   1.415449 A    
C41   H13   1.080458 S    
C35   C40   1.410568 A    
O3    Zn1   2.011209 S    
C36   H4    1.077805 S    
H17   C49   1.084909 S    
C51   C52   1.390973 A    
C7    H6    1.083277 S    
C12   C34   1.415050 A    
C17   C29   1.404439 A    
C18   C21   1.417923 A    
C22   F3    1.358681 S    
Zn2   N3    2.021749 S    
C12   C13   1.410310 A    
C62   H31   1.112659 S    
C64   H36   1.111027 S    
C25   C26   1.396775 A    
C42   C43   1.391659 A    
C15   C37   1.410289 A    
C8    C16   1.401482 A    
C34   C35   1.414535 A    
C13   C14   1.395912 A    
C45   C46   1.401222 A    
C9    H1    1.082858 S    
C49   C50   1.390025 A    
C59   C60   1.533171 S    
C26   O12   1.350252 S    
O1    C1    1.283138 A    
H18   C57   1.081812 S    
C18   C20   1.418208 A    
C7    C11   1.397349 A    
C44   H16   1.081260 S    
C23   C24   1.410695 A    
C14   C36   1.385419 A    
C54   C55   1.410152 A    
O13   C59   1.418287 S    
Zn2   O8    2.011205 S    
C33   C36   1.411304 A    
H22   C58   1.081977 S    
C59   H24   1.114682 S    
C19   C20   1.419790 A    
N2    C32   1.423894 S    
C60   H26   1.111361 S    
C27   O10   1.349599 S    
C44   C45   1.415670 A    
C28   F2    1.357012 S    
C6    O11   1.349151 S    
C48   C49   1.365395 A    
C26   N2    1.363757 A    
C9    C16   1.403375 A    
O8    C4    1.297982 A    
C39   H9    1.083601 S    
C14   H2    1.083028 S    
C52   C53   1.384516 A    
C37   C40   1.396752 A    
O3    C2    1.296619 A    
C5    N1    1.362421 A    
C31   C32   1.397394 A    
C22   C23   1.402395 A    
C62   H30   1.111102 S    
C20   C24   1.414993 A    
O2    Zn2   1.980403 S    
C6    C15   1.406229 A    
O6    C3    1.283003 A    
O4    Zn2   2.009117 S    
C63   H33   1.110758 S    
C57   C58   1.418201 A    
C19   C35   1.415180 A    
C3    C50   1.406705 S    
C30   H8    1.083037 S    
C38   H7    1.077935 S    
O2    C1    1.282876 A    
C53   C54   1.391089 A    
C42   H14   1.082631 S    
C64   H34   1.110907 S    
C46   C47   1.410596 A    
C54   H21   1.063591 S    
C24   C25   1.409584 A    
C61   H28   1.110770 S    
C25   C39   1.395830 A    
C55   C56   1.432677 A    
C62   C63   1.533450 S    
N3    C57   1.366551 A    
C18   C33   1.416596 A    
C63   C64   1.526516 S    
C47   C48   1.390136 A    
Zn1   O5    1.980405 S    
Zn2   O6    1.982697 S    
C33   C34   1.419517 A    
C17   C30   1.404415 A    
C60   H25   1.111424 S    
C10   C11   1.403736 A    
C37   O13   1.387707 S    
C8    H5    1.082978 S    
C28   C32   1.398324 A    
C61   H29   1.110992 S    
