data_mof_unit_5792.cif
_audit_creation_date              2013-03-05T15:53:24-0500
_audit_creation_method            fapswitch 2.2
_symmetry_space_group_name_H-M    P1
_symmetry_Int_Tables_number       1
_space_group_crystal_system       triclinic
_cell_length_a                    10.669399
_cell_length_b                    10.679807
_cell_length_c                    16.904666
_cell_angle_alpha                 98.567625
_cell_angle_beta                  98.591844
_cell_angle_gamma                 61.659688
_cell_volume                      1669.58331995

loop_
_atom_site_label
_atom_site_type_symbol
_atom_site_description
_atom_site_fract_x
_atom_site_fract_y
_atom_site_fract_z
_atom_type_partial_charge
O1    O     O_R   0.751220 0.499230 0.435170 -0.495973
O2    O     O_R   0.477220 0.727600 0.436870 -0.502913
C1    C     C_R   0.383225 0.706099 0.386944 0.547844
O3    O     O_R   0.258650 0.745120 0.411470 -0.505335
O4    O     O_R   0.297070 0.467240 0.395960 -0.443754
C2    C     C_R   0.370226 0.346403 0.359148 0.594818
O5    O     O_R   0.488830 0.252610 0.387790 -0.504319
O6    O     O_R   0.724400 0.302390 0.420980 -0.503880
C3    C     C_R   0.782781 0.373536 0.404931 0.556383
O7    O     O_R   0.752100 0.501210 0.612190 -0.504369
O8    O     O_R   0.478040 0.729440 0.600970 -0.492918
C4    C     C_R   0.356519 0.771613 0.627111 0.542833
O9    O     O_R   0.259530 0.747110 0.588490 -0.522455
O10   O     O_R   0.297880 0.469080 0.560050 -0.474219
C5    C     C_R   0.366916 0.345639 0.585050 0.578028
O11   O     O_R   0.489720 0.254590 0.564810 -0.519872
O12   O     O_R   0.725220 0.304230 0.585080 -0.505373
C6    C     C_R   0.774000 0.379674 0.629532 0.541591
Cr1   Cr    Cr6+3 0.608340 0.611040 0.520430 1.032660
Cr2   Cr    Cr6+3 0.287650 0.601120 0.489350 1.072588
Cr3   Cr    Cr6+3 0.604040 0.287870 0.490280 1.025408
O13   O     O_3   0.500010 0.500010 0.500020 -0.300688
C7    C     C_1   0.341647 0.334322 0.275627 -0.007804
C8    C     C_1   0.329268 0.323913 0.204391 -0.009893
C9    C     C_3   0.810466 0.254461 0.208176 0.224572
C10   C     C_3   0.740429 0.398606 0.257017 -0.149382
H1    H     H_    0.623785 0.456622 0.261010 0.121330
C11   C     C_3   0.845350 0.331352 0.329227 0.017267
C12   C     C_3   0.914341 0.184745 0.280824 -0.049348
C13   C     C_3   0.024316 0.226341 0.255731 -0.199268
C14   C     C_3   0.951031 0.371778 0.304484 0.202700
C15   C     C_3   0.847440 0.442483 0.232747 -0.140240
C16   C     C_3   0.916799 0.296974 0.183087 -0.009510
H2    H     H_    0.140855 0.166655 0.250765 0.102212
H3    H     H_    0.821468 0.547800 0.213587 0.146714
C17   C     C_3   0.432813 0.677213 0.185159 -0.144091
C18   C     C_3   0.313456 0.688658 0.232379 -0.125688
H4    H     H_    0.275417 0.608182 0.230806 0.127146
H5    H     H_    0.493982 0.587956 0.141089 0.148245
C19   C     C_3   0.375927 0.746154 0.307439 0.049421
C20   C     C_3   0.496390 0.734326 0.262295 -0.131682
C21   C     C_3   0.400176 0.889258 0.240600 -0.123214
C22   C     C_3   0.281993 0.899970 0.287650 -0.108642
C23   C     C_3   0.218052 0.843441 0.212093 -0.096059
C24   C     C_3   0.337233 0.831198 0.165516 0.050170
H6    H     H_    0.609400 0.694478 0.287266 0.131343
H7    H     H_    0.435273 0.972312 0.242147 0.140154
H8    H     H_    0.227930 0.986928 0.334198 0.136701
H9    H     H_    0.103648 0.888562 0.189422 0.139367
C25   C     C_3   0.459669 0.262310 0.775450 -0.110698
C26   C     C_3   0.397241 0.402476 0.735131 -0.115519
H10   H     H_    0.455380 0.463824 0.730612 0.115762
H11   H     H_    0.567719 0.210472 0.807966 0.140274
C27   C     C_3   0.336913 0.334125 0.663215 0.052983
C28   C     C_3   0.399361 0.194799 0.702924 -0.114469
C29   C     C_3   0.257097 0.253886 0.740999 -0.114353
C30   C     C_3   0.194866 0.394209 0.700096 -0.117253
C31   C     C_3   0.255021 0.461435 0.773587 -0.123113
C32   C     C_3   0.318311 0.321457 0.812823 0.053548
H12   H     H_    0.456480 0.085970 0.672295 0.132910
H13   H     H_    0.198950 0.192641 0.745706 0.112201
H14   H     H_    0.087375 0.446000 0.667004 0.143951
H15   H     H_    0.197990 0.569841 0.804677 0.134570
C33   C     C_1   0.817460 0.341863 0.709544 -0.047288
C34   C     C_1   0.843948 0.314895 0.778090 -0.049746
C35   C     C_1   0.338148 0.812258 0.709695 -0.049652
C36   C     C_1   0.313336 0.839344 0.778535 -0.046059
O14   O     O_R   0.171830 0.913880 0.057510 -0.529745
O15   O     O_R   0.940690 0.186050 0.054730 -0.446900
C37   C     C_R   0.957610 0.284544 0.102606 0.568372
O16   O     O_R   0.920470 0.405720 0.075010 -0.508064
O17   O     O_R   0.196690 0.370460 0.084120 -0.532635
C38   C     C_R   0.318055 0.298117 0.120628 0.573001
O18   O     O_R   0.412990 0.180750 0.091610 -0.432228
O19   O     O_R   0.366620 0.943130 0.065760 -0.505513
C39   C     C_R   0.295710 0.889061 0.087921 0.536086
O20   O     O_R   0.160510 0.906330 0.879210 -0.512011
O21   O     O_R   0.930190 0.179050 0.889450 -0.487099
C40   C     C_R   0.885005 0.299393 0.860957 0.559041
O22   O     O_R   0.909140 0.398170 0.896710 -0.500936
O23   O     O_R   0.186190 0.363460 0.918830 -0.504254
C41   C     C_R   0.308279 0.294054 0.891982 0.556460
O24   O     O_R   0.401670 0.173200 0.913310 -0.498297
O25   O     O_R   0.356120 0.936130 0.900470 -0.495215
C42   C     C_R   0.280147 0.884669 0.859089 0.542263
Cr4   Cr    Cr6+3 0.054020 0.052700 0.970850 1.055345
Cr5   Cr    Cr6+3 0.059230 0.375120 0.993390 1.031047
Cr6   Cr    Cr6+3 0.374950 0.061200 0.992340 1.068106
O26   O     O_3   0.162740 0.163010 0.985530 -0.302059
N1    N     N_R   0.720309 0.201845 0.156455 0.066003
O27   O     O_R   0.641771 0.166397 0.190433 -0.371296
O28   O     O_R   0.682771 0.234370 0.082543 -0.315362
C43   C     C_R   0.938271 0.056635 0.321355 0.025957
C44   C     C_R   0.889591 0.959686 0.283127 -0.067991
C45   C     C_R   0.875295 0.867772 0.327618 -0.067663
C46   C     C_R   0.914600 0.867803 0.410259 -0.045122
C47   C     C_R   0.973624 0.955717 0.447798 -0.058286
C48   C     C_R   0.989035 0.046907 0.403227 -0.065039
H16   H     H_    0.860456 0.955796 0.219250 0.159854
H17   H     H_    0.831305 0.798298 0.298004 0.139454
H18   H     H_    0.900968 0.798612 0.445084 0.140785
H19   H     H_    0.006279 0.954265 0.511556 0.118912
H20   H     H_    0.031446 0.117145 0.433917 0.119682
N2    N     N_R   0.026229 0.433754 0.361694 0.078440
O29   O     O_R   0.017083 0.555556 0.350603 -0.383533
O30   O     O_R   0.096323 0.371321 0.426187 -0.366209

loop_
_geom_bond_atom_site_label_1
_geom_bond_atom_site_label_2
_geom_bond_distance
_ccdc_geom_bond_type
C23   H9    1.107164 S    
C28   C29   1.542048 S    
C10   C15   1.548123 S    
C43   C44   1.403686 A    
C34   C40   1.413703 S    
O14   Cr4   2.061973 S    
C20   C21   1.543310 S    
C45   C46   1.397310 A    
C32   C41   1.441182 S    
C22   C23   1.536945 S    
N2    O30   1.300796 A    
C47   C48   1.396741 A    
C30   C31   1.550580 S    
C30   H14   1.110139 S    
O4    Cr2   1.945572 S    
O8    Cr1   1.941373 S    
C10   H1    1.103554 S    
C18   H4    1.106907 S    
C24   C39   1.451461 S    
C25   C32   1.527787 S    
Cr3   O13   1.986970 S    
C11   C12   1.538466 S    
O22   Cr5   2.063899 S    
O15   C37   1.295021 A    
C13   C14   1.536631 S    
C8    C38   1.399884 S    
C5    O11   1.266702 A    
C29   C30   1.546515 S    
C38   O18   1.263965 A    
C19   C22   1.521638 S    
O6    C3    1.264994 A    
C20   H6    1.107886 S    
C37   O16   1.298924 A    
C22   H8    1.106200 S    
C47   H19   1.082091 S    
C13   C16   1.557729 S    
O21   Cr4   1.943533 S    
C35   C36   1.194597 T    
O20   C42   1.274550 A    
C28   H12   1.110339 S    
C17   C20   1.556933 S    
C18   C19   1.528090 S    
N2    O29   1.297495 A    
O23   C41   1.269612 A    
C17   H5    1.110246 S    
C9    C12   1.540516 S    
C36   C42   1.413849 S    
C25   H11   1.110421 S    
O1    Cr1   2.059751 S    
C13   H2    1.105516 S    
C26   H10   1.111214 S    
C15   H3    1.110231 S    
O10   Cr2   1.935439 S    
Cr1   O13   1.980199 S    
O1    C3    1.262733 A    
O25   C42   1.259930 A    
O21   C40   1.281824 A    
C25   C26   1.539734 S    
C31   C32   1.527732 S    
O5    Cr3   2.064776 S    
C4    C35   1.412885 S    
O12   Cr3   1.944820 S    
C21   C24   1.533837 S    
O19   C39   1.268896 A    
C5    C27   1.440741 S    
C12   C13   1.566475 S    
N1    O28   1.299979 A    
C14   C15   1.530496 S    
O10   C5    1.268937 A    
O7    Cr1   2.063426 S    
C7    C8    1.185955 T    
C46   C47   1.394734 A    
O12   C6    1.259213 A    
C9    N1    1.456370 S    
C17   C24   1.524472 S    
C26   C31   1.545074 S    
Cr6   O26   1.985949 S    
O23   Cr5   1.934494 S    
C16   C37   1.458255 S    
O16   Cr5   2.054025 S    
C19   C20   1.536382 S    
Cr2   O13   1.986269 S    
C1    C19   1.450458 S    
Cr5   O26   1.986916 S    
C21   C22   1.539881 S    
C1    O3    1.303638 A    
O17   Cr5   1.946073 S    
C23   C24   1.537728 S    
C31   H15   1.110083 S    
C27   C28   1.526868 S    
C17   C18   1.549427 S    
O9    Cr2   2.063310 S    
O2    Cr1   1.944770 S    
C45   H17   1.082209 S    
C11   C14   1.513149 S    
O25   Cr6   1.944197 S    
O17   C38   1.268069 A    
Cr4   O26   1.979733 S    
O6    Cr3   1.933448 S    
O20   Cr4   2.062158 S    
O8    C4    1.279315 A    
O11   Cr3   2.050752 S    
C2    O5    1.263776 A    
O14   C39   1.259544 A    
C10   C11   1.532541 S    
C25   C28   1.542206 S    
C29   C32   1.539812 S    
C26   C27   1.540451 S    
C15   C16   1.540254 S    
C18   C23   1.534085 S    
O2    C1    1.295675 A    
C9    C10   1.524273 S    
C14   N2    1.448696 S    
C12   C43   1.517220 S    
C6    C33   1.416013 S    
N1    O27   1.298148 A    
O4    C2    1.269418 A    
C44   H16   1.078402 S    
O7    C6    1.276823 A    
C2    C7    1.399102 S    
C33   C34   1.195747 T    
O24   Cr6   2.051962 S    
C21   H7    1.110499 S    
C44   C45   1.396036 A    
C40   O22   1.251349 A    
O3    Cr2   2.055211 S    
O19   Cr6   1.934949 S    
C4    O9    1.252956 A    
C41   O24   1.264528 A    
C29   H13   1.111104 S    
O18   Cr6   2.064235 S    
C46   H18   1.082137 S    
C43   C48   1.408941 A    
O15   Cr4   1.943344 S    
C48   H20   1.082932 S    
C3    C11   1.443729 S    
C9    C16   1.537308 S    
C27   C30   1.528780 S    
