data_mof_unit_45963.cif
_audit_creation_date              2012-12-10T18:58:13-0500
_audit_creation_method            fapswitch 2.2
_symmetry_space_group_name_H-M    P1
_symmetry_Int_Tables_number       1
_space_group_crystal_system       triclinic
_cell_length_a                    10.809884
_cell_length_b                    9.811937
_cell_length_c                    15.769215
_cell_angle_alpha                 90.003998
_cell_angle_beta                  89.97967
_cell_angle_gamma                 90.120824
_cell_volume                      1672.57216546

loop_
_atom_site_label
_atom_site_type_symbol
_atom_type_description
_atom_site_fract_x
_atom_site_fract_y
_atom_site_fract_z
_atom_type_partial_charge
C1    C     C_R   0.873829 0.500567 0.501394 -0.422158
C2    C     C_R   0.562448 0.374519 0.955358 0.149582
C3    C     C_R   0.555861 0.500336 0.912134 0.052831
C4    C     C_R   0.555374 0.500236 0.087781 0.052768
C5    C     C_1   0.534611 0.500202 0.823390 0.002578
C6    C     C_1   0.534115 0.500086 0.176541 0.001620
C7    C     C_1   0.516322 0.500015 0.250829 -0.152934
C8    C     C_1   0.516696 0.500085 0.749129 -0.152146
C9    C     C_R   0.522212 0.071973 0.572936 0.003547
C10   C     C_R   0.477242 0.927993 0.427132 -0.026845
C11   C     C_R   0.477552 0.071866 0.427087 0.028296
C12   C     C_R   0.127991 0.499852 0.500934 -0.422623
C13   C     C_R   0.522409 0.928115 0.572917 0.023706
C14   C     C_R   0.062538 0.381176 0.477666 0.311022
C15   C     C_R   0.940316 0.625741 0.503243 0.298315
C16   C     C_R   0.939352 0.375251 0.500336 0.302531
C17   C     C_R   0.063824 0.618642 0.525250 0.307088
C18   C     C_3   0.563949 0.761083 0.092209 -0.843657
C19   C     C_3   0.566599 0.239657 0.907686 -0.846111
C20   C     C_3   0.563807 0.761197 0.907838 -0.849932
C21   C     C_3   0.565116 0.239467 0.092060 -0.848284
C22   C     C_R   0.260012 0.499894 0.500136 1.056396
C23   C     C_R   0.740657 0.500201 0.500435 1.011203
C24   C     C_R   0.500595 0.499996 0.339005 0.932267
C25   C     C_R   0.500760 0.500007 0.660988 0.934832
C26   C     C_R   0.561297 0.626200 0.955422 0.149768
C27   C     C_R   0.561964 0.374448 0.044495 0.148562
C28   C     C_R   0.561208 0.626144 0.044560 0.148366
H1    H     H_    0.539992 0.126141 0.631346 0.128235
H2    H     H_    0.483243 0.178137 0.922983 0.242105
H3    H     H_    0.566944 0.750363 0.837970 0.241589
H4    H     H_    0.480061 0.821401 0.923565 0.241939
H5    H     H_    0.647481 0.820154 0.925840 0.246219
H6    H     H_    0.567460 0.250281 0.161941 0.243191
H7    H     H_    0.482015 0.178063 0.075983 0.240645
H8    H     H_    0.649432 0.181742 0.074373 0.247004
H9    H     H_    0.255992 0.244300 0.307250 0.367240
H10   H     H_    0.750801 0.853061 0.372626 0.378142
H11   H     H_    0.775000 0.154965 0.650114 0.372617
H12   H     H_    0.458674 0.873784 0.368834 0.133422
H13   H     H_    0.268265 0.749032 0.691250 0.372272
H14   H     H_    0.459194 0.125961 0.368761 0.124833
H15   H     H_    0.540814 0.874005 0.631244 0.125987
H16   H     H_    0.567107 0.750166 0.162069 0.245343
H17   H     H_    0.647728 0.819874 0.074189 0.246004
H18   H     H_    0.480314 0.821490 0.076555 0.240665
H19   H     H_    0.570400 0.250695 0.837842 0.244233
H20   H     H_    0.650613 0.181959 0.926024 0.244826
N1    N     N_R   0.500000 0.857200 0.500000 -0.074790
N2    N     N_R   0.500000 0.142800 0.500000 -0.072369
O1    O     O_R   0.316770 0.614620 0.499990 -0.568142
O2    O     O_2   0.021344 0.181882 0.362899 -0.221507
O3    O     O_3   0.221622 0.322134 0.339509 -0.584775
O4    O     O_2   0.807858 0.851290 0.537586 -0.246905
O5    O     O_2   0.985765 0.879716 0.443019 -0.148803
O6    O     O_3   0.791002 0.763671 0.381946 -0.555794
O7    O     O_2   0.806002 0.146688 0.472728 -0.229263
O8    O     O_2   0.985233 0.126074 0.566803 -0.163783
O9    O     O_3   0.790962 0.246235 0.625554 -0.571674
O10   O     O_2   0.196952 0.850313 0.542610 -0.216038
O11   O     O_2   0.026326 0.815325 0.642560 -0.218439
O12   O     O_R   0.683230 0.385380 0.500010 -0.553693
O13   O     O_3   0.224916 0.672254 0.663203 -0.579530
O14   O     O_R   0.683230 0.614620 0.500010 -0.559465
O15   O     O_R   0.316770 0.385380 0.499990 -0.564640
O16   O     O_R   0.499980 0.614630 0.378020 -0.630618
O17   O     O_R   0.500020 0.385370 0.621980 -0.625205
O18   O     O_R   0.500020 0.614630 0.621980 -0.629680
O19   O     O_R   0.499980 0.385370 0.378020 -0.626517
O20   O     O_2   0.192573 0.147974 0.462300 -0.214743
S1    S     S_3+6 0.124134 0.251673 0.410283 0.101822
S2    S     S_3+6 0.881550 0.786209 0.467657 0.134479
S3    S     S_3+6 0.880635 0.217208 0.540204 0.129337
S4    S     S_3+6 0.127610 0.745792 0.593759 0.107430
Zn1   Zn    Zn3+2 0.500000 0.653120 0.500000 1.047948
Zn2   Zn    Zn3+2 0.500000 0.346880 0.500000 1.058257

loop_
_geom_bond_atom_site_label_1
_geom_bond_atom_site_label_2
_ccdc_geom_bond_type
C12   C17   A    
C5    C8    T    
N1    Zn1   S    
C22   O15   A    
C1    C23   S    
C6    C7    T    
C1    C15   A    
O13   S4    S    
N2    Zn2   S    
O11   S4    D    
H13   O13   S    
C1    C16   A    
C14   S1    S    
O9    S3    S    
C26   C28   A    
O5    S2    D    
C25   O17   A    
C9    H1    S    
H9    O3    S    
C4    C27   A    
C2    C3    A    
C21   C27   S    
H11   O9    S    
C19   H2    S    
C21   H8    S    
O2    S1    D    
O18   Zn1   S    
C15   S2    S    
C25   O18   A    
O12   Zn2   S    
C2    C27   A    
O15   Zn2   S    
C20   C26   S    
C11   H14   S    
C13   N1    A    
O16   Zn1   S    
C18   H18   S    
O10   S4    D    
C23   O14   A    
C4    C28   A    
O14   Zn1   S    
O1    Zn1   S    
C24   O19   A    
C18   C28   S    
C19   H19   S    
C23   O12   A    
C17   S4    S    
C14   C16   A    
C21   H7    S    
C10   C11   A    
C20   H5    S    
C8    C25   S    
C16   S3    S    
O3    S1    S    
C18   H17   S    
C12   C22   S    
C18   H16   S    
C13   H15   S    
O20   S1    D    
H10   O6    S    
C24   O16   A    
O19   Zn2   S    
C4    C6    S    
C20   H4    S    
O7    S3    D    
C15   C17   A    
C11   N2    A    
C19   H20   S    
C10   H12   S    
C9    C13   A    
O17   Zn2   S    
O4    S2    D    
O6    S2    S    
C2    C19   S    
C10   N1    A    
C21   H6    S    
C3    C26   A    
C9    N2    A    
C7    C24   S    
O8    S3    D    
C12   C14   A    
C22   O1    A    
C3    C5    S    
C20   H3    S    
