data_mof_unit_61595.cif
_audit_creation_date              2012-12-10T17:36:11-0500
_audit_creation_method            fapswitch 2.2
_symmetry_space_group_name_H-M    P1
_symmetry_Int_Tables_number       1
_space_group_crystal_system       triclinic
_cell_length_a                    30.634256
_cell_length_b                    30.296243
_cell_length_c                    24.870567
_cell_angle_alpha                 90.534262
_cell_angle_beta                  128.677435
_cell_angle_gamma                 89.865062
_cell_volume                      18018.9623603

loop_
_atom_site_label
_atom_site_type_symbol
_atom_type_description
_atom_site_fract_x
_atom_site_fract_y
_atom_site_fract_z
_atom_type_partial_charge
C1    C     C_R   0.810071 0.810050 0.500409 0.904145
C2    C     C_R   0.190052 0.810104 0.499731 0.898470
C3    C     C_R   0.309136 0.309901 0.498565 0.892760
C4    C     C_R   0.690113 0.309916 0.500391 0.884534
C5    C     C_R   0.644275 0.748092 0.291089 -0.237003
C6    C     C_R   0.360953 0.745578 0.709307 -0.256666
C7    C     C_R   0.145457 0.250022 0.291023 -0.238437
C8    C     C_R   0.858483 0.247820 0.709578 -0.234926
C9    C     C_R   0.473769 0.742550 0.930426 0.482316
C10   C     C_R   0.540022 0.744713 0.069732 0.469311
C11   C     C_R   0.974452 0.251012 0.930940 0.482282
C12   C     C_R   0.042797 0.251736 0.070259 0.456992
C13   C     C_3   0.892992 0.869393 0.563810 0.292776
C14   C     C_3   0.116820 0.876060 0.438734 0.298367
C15   C     C_3   0.394355 0.364775 0.561108 0.304004
C16   C     C_3   0.620571 0.377587 0.442609 0.298271
C17   C     C_3   0.868843 0.912825 0.523136 0.349088
C18   C     C_3   0.141306 0.915250 0.490190 0.358343
C19   C     C_3   0.372567 0.410488 0.528646 0.373819
C20   C     C_3   0.643813 0.413922 0.498634 0.362416
C21   C     C_3   0.903881 0.905466 0.497945 -0.300684
C22   C     C_3   0.096156 0.907327 0.499502 -0.294474
C23   C     C_3   0.402840 0.406525 0.497071 -0.340843
C24   C     C_3   0.593597 0.405587 0.498316 -0.306385
C25   C     C_3   0.927481 0.861361 0.538219 0.309984
C26   C     C_3   0.071436 0.867856 0.447422 0.289606
C27   C     C_3   0.424769 0.359993 0.529290 0.264125
C28   C     C_3   0.570473 0.368852 0.442422 0.304438
C29   C     C_3   0.877453 0.836204 0.473767 0.094719
C30   C     C_3   0.111343 0.836270 0.507902 0.087646
C31   C     C_3   0.371026 0.338939 0.462820 0.107842
C32   C     C_3   0.604962 0.334321 0.499337 0.116868
C33   C     C_3   0.853904 0.879870 0.433600 0.151104
C34   C     C_3   0.136269 0.875381 0.559721 0.130141
C35   C     C_3   0.349188 0.384990 0.431189 0.152658
C36   C     C_3   0.627805 0.370572 0.555319 0.132054
C37   C     C_3   0.820076 0.887351 0.459127 0.175883
C38   C     C_3   0.180231 0.883639 0.550147 0.184270
C39   C     C_3   0.320035 0.389108 0.463662 0.199398
C40   C     C_3   0.677377 0.379409 0.555722 0.164836
C41   C     C_3   0.843453 0.843940 0.499441 -0.279010
C42   C     C_3   0.156280 0.844418 0.499341 -0.243191
C43   C     C_3   0.341696 0.343370 0.495710 -0.268003
C44   C     C_3   0.655178 0.343122 0.500188 -0.264629
C45   C     C_R   0.683252 0.749461 0.367488 0.849479
C46   C     C_R   0.318105 0.748681 0.632677 0.843728
C47   C     C_R   0.183540 0.249861 0.367458 0.836079
C48   C     C_R   0.817380 0.249325 0.632739 0.857758
C49   C     C_R   0.828834 0.747359 0.743519 0.353087
C50   C     C_R   0.157930 0.769899 0.251261 0.396412
C51   C     C_R   0.328159 0.247107 0.743286 0.356451
C52   C     C_R   0.658051 0.270560 0.251607 0.392096
C53   C     C_R   0.863541 0.736810 0.814329 0.210469
C54   C     C_R   0.125731 0.760012 0.180142 0.182975
C55   C     C_R   0.362655 0.236724 0.814190 0.211352
C56   C     C_R   0.624968 0.261692 0.180127 0.186777
C57   C     C_R   0.922401 0.735021 0.852633 -0.034859
C58   C     C_R   0.074228 0.737468 0.145662 -0.035314
C59   C     C_R   0.421509 0.234673 0.852627 -0.035107
C60   C     C_R   0.572968 0.239933 0.145558 -0.035083
C61   C     C_R   0.944306 0.737609 0.817153 -0.225175
C62   C     C_R   0.058483 0.721274 0.183921 -0.226106
C63   C     C_R   0.443481 0.235836 0.817172 -0.219352
C64   C     C_R   0.557041 0.224003 0.183746 -0.224750
C65   C     C_R   0.909194 0.742087 0.745854 -0.258850
C66   C     C_R   0.094013 0.725656 0.255442 -0.263591
C67   C     C_R   0.408467 0.239807 0.745832 -0.269384
C68   C     C_R   0.592971 0.227658 0.255345 -0.262147
C69   C     C_R   0.851531 0.747277 0.708345 -0.148037
C70   C     C_R   0.144532 0.749256 0.290485 -0.176732
C71   C     C_R   0.351007 0.246415 0.708282 -0.156274
C72   C     C_R   0.644273 0.250090 0.290597 -0.181601
C73   C     C_R   0.034611 0.733515 0.069545 0.438608
C74   C     C_R   0.961632 0.732398 0.929316 0.428552
C75   C     C_R   0.533429 0.235891 0.069509 0.439972
C76   C     C_R   0.460636 0.233173 0.929354 0.427094
C77   C     C_3   0.593982 0.649640 0.448740 0.136753
C78   C     C_3   0.407288 0.652558 0.547113 0.159579
C79   C     C_3   0.093329 0.151099 0.449947 0.139755
C80   C     C_3   0.907475 0.151637 0.548983 0.157344
C81   C     C_3   0.593500 0.642965 0.509722 0.368405
C82   C     C_3   0.403482 0.641746 0.483606 0.373531
C83   C     C_3   0.094799 0.143166 0.512203 0.360932
C84   C     C_3   0.904942 0.142022 0.486064 0.367777
C85   C     C_3   0.599331 0.592326 0.505661 -0.351800
C86   C     C_3   0.400665 0.591688 0.495643 -0.357341
C87   C     C_3   0.098966 0.092545 0.505141 -0.350197
C88   C     C_3   0.900814 0.091809 0.495516 -0.356761
C89   C     C_R   0.690105 0.689806 0.499467 0.850433
C90   C     C_R   0.310973 0.689939 0.502484 0.846890
C91   C     C_R   0.189913 0.189834 0.499098 0.854924
C92   C     C_R   0.810995 0.189901 0.502543 0.863872
C93   C     C_3   0.601482 0.599617 0.445257 0.155954
C94   C     C_3   0.403351 0.603768 0.558448 0.158010
C95   C     C_3   0.098945 0.101176 0.443253 0.158814
C96   C     C_3   0.902262 0.102559 0.557762 0.157697
C97   C     C_3   0.666247 0.604830 0.497799 0.378955
C98   C     C_3   0.338907 0.606195 0.511041 0.391856
C99   C     C_3   0.163805 0.105085 0.493761 0.378740
C100  C     C_3   0.837817 0.105760 0.509069 0.396407
C101  C     C_3   0.664735 0.596949 0.558106 0.290164
C102  C     C_3   0.334778 0.594473 0.447025 0.286287
C103  C     C_3   0.164516 0.096068 0.555605 0.291156
C104  C     C_3   0.835014 0.095238 0.445792 0.290659
C105  C     C_3   0.657315 0.647080 0.560515 0.106600
C106  C     C_3   0.338754 0.644389 0.437087 0.097184
C107  C     C_3   0.158788 0.146152 0.561018 0.106494
C108  C     C_3   0.840279 0.145309 0.438269 0.096281
C109  C     C_3   0.657904 0.654968 0.500261 -0.311346
C110  C     C_3   0.343425 0.655448 0.500992 -0.293684
C111  C     C_3   0.157407 0.155125 0.499492 -0.308353
C112  C     C_3   0.843554 0.155285 0.501383 -0.294258
C113  C     C_R   0.438113 0.558907 0.499263 0.888696
C114  C     C_R   0.561473 0.559582 0.501145 0.884460
C115  C     C_R   0.938190 0.058976 0.499229 0.906901
C116  C     C_R   0.061379 0.059674 0.501064 0.874084
C117  C     C_R   0.939233 0.939666 0.499386 0.883183
C118  C     C_R   0.061281 0.940716 0.499984 0.866527
C119  C     C_R   0.438663 0.440353 0.499283 0.857487
C120  C     C_R   0.560521 0.440143 0.499743 0.872192
C121  C     C_R   0.815493 0.749373 0.632416 0.845359
C122  C     C_R   0.183126 0.750212 0.367242 0.812588
C123  C     C_R   0.315286 0.249117 0.632400 0.843723
C124  C     C_R   0.683101 0.250330 0.367288 0.814631
C125  C     C_R   0.623232 0.787900 0.253546 0.151496
C126  C     C_R   0.399371 0.780828 0.747934 0.192581
C127  C     C_R   0.124613 0.290591 0.255408 0.148942
C128  C     C_R   0.915421 0.259423 0.744203 0.151716
C129  C     C_R   0.591850 0.786963 0.181165 0.172200
C130  C     C_R   0.437736 0.779174 0.820308 0.160757
C131  C     C_R   0.093773 0.291285 0.183160 0.172995
C132  C     C_R   0.954091 0.260220 0.817164 0.164738
C133  C     C_R   0.576114 0.746099 0.145781 -0.181481
C134  C     C_R   0.438313 0.742420 0.854871 -0.184246
C135  C     C_R   0.078804 0.251289 0.146040 -0.171699
C136  C     C_R   0.935835 0.249394 0.855204 -0.167696
C137  C     C_R   0.593804 0.706386 0.182910 0.401944
C138  C     C_R   0.404901 0.705458 0.817196 0.388927
C139  C     C_R   0.096006 0.210748 0.180893 0.404714
C140  C     C_R   0.880486 0.235755 0.821335 0.376738
C141  C     C_R   0.630375 0.707227 0.255229 0.112767
C142  C     C_R   0.365284 0.707069 0.744836 0.105636
C143  C     C_R   0.131841 0.210054 0.253223 0.110006
C144  C     C_R   0.841908 0.234764 0.749290 0.110343
Cu1   Cu    Cu3+1 0.781380 0.718610 0.500000 0.910365
Cu2   Cu    Cu3+1 0.218620 0.718610 0.500000 0.916270
Cu3   Cu    Cu3+1 0.281380 0.218610 0.500000 0.914461
Cu4   Cu    Cu3+1 0.718620 0.218610 0.500000 0.915902
Cu5   Cu    Cu3+1 0.718600 0.781380 0.500000 0.923925
Cu6   Cu    Cu3+1 0.281400 0.781380 0.500000 0.958708
Cu7   Cu    Cu3+1 0.218600 0.281380 0.500000 0.936709
Cu8   Cu    Cu3+1 0.781400 0.281380 0.500000 0.952449
Cu9   Cu    Cu3+1 0.965810 0.999960 0.431560 0.921461
Cu10  Cu    Cu3+1 0.034190 0.999960 0.568440 0.937715
Cu11  Cu    Cu3+1 0.465810 0.499960 0.431560 0.899088
Cu12  Cu    Cu3+1 0.534190 0.499960 0.568440 0.921710
H1    H     H_    0.988906 0.735704 0.844427 0.177319
H2    H     H_    0.019132 0.703913 0.158484 0.169457
H3    H     H_    0.488051 0.233367 0.844513 0.180760
H4    H     H_    0.517267 0.207295 0.158170 0.168870
H5    H     H_    0.927336 0.742326 0.719899 0.167047
H6    H     H_    0.081478 0.710748 0.283345 0.180295
H7    H     H_    0.426686 0.239046 0.719963 0.175104
H8    H     H_    0.580229 0.213017 0.283184 0.180193
N1    N     N_R   0.496512 0.773016 0.031579 -0.212819
N2    N     N_R   0.464009 0.771979 0.963179 -0.252447
N3    N     N_R   0.994916 0.275565 0.033623 -0.221537
N4    N     N_R   0.961237 0.275089 0.965163 -0.205472
N5    N     N_R   0.516852 0.713899 0.968329 -0.249640
N6    N     N_R   0.549427 0.714971 0.036814 -0.213287
N7    N     N_R   0.022396 0.227214 0.967465 -0.233374
N8    N     N_R   0.055950 0.227471 0.036032 -0.214604
N9    N     N_R   0.017283 0.726411 0.964002 -0.254750
N10   N     N_R   0.978991 0.738943 0.035082 -0.250461
N11   N     N_R   0.516187 0.226389 0.964327 -0.255457
N12   N     N_R   0.477919 0.242238 0.034782 -0.250835
N13   N     N_R   0.052982 0.726998 0.032593 -0.201524
N14   N     N_R   0.943380 0.738630 0.966509 -0.197349
N15   N     N_R   0.551801 0.227742 0.032898 -0.203124
N16   N     N_R   0.442396 0.241173 0.966215 -0.197772
O1    O     O_R   0.822280 0.769280 0.499990 -0.587775
O2    O     O_R   0.177720 0.769280 0.500010 -0.574314
O3    O     O_R   0.322280 0.269280 0.499990 -0.595499
O4    O     O_R   0.677720 0.269280 0.500010 -0.596393
O5    O     O_R   0.483150 0.545730 0.557820 -0.596704
O6    O     O_R   0.516850 0.545730 0.442180 -0.590607
O7    O     O_R   0.983150 0.045730 0.557820 -0.581555
O8    O     O_R   0.016850 0.045730 0.442180 -0.596327
O9    O     O_R   0.925350 0.954170 0.442210 -0.621488
O10   O     O_R   0.074650 0.954170 0.557790 -0.611980
O11   O     O_R   0.425350 0.454170 0.442210 -0.629819
O12   O     O_R   0.574650 0.454170 0.557790 -0.592822
O13   O     O_R   0.983160 0.954150 0.557800 -0.565085
O14   O     O_R   0.016840 0.954150 0.442200 -0.572797
O15   O     O_R   0.483160 0.454150 0.557800 -0.592333
O16   O     O_R   0.516840 0.454150 0.442200 -0.587888
O17   O     O_R   0.769270 0.822280 0.499990 -0.589068
O18   O     O_R   0.230730 0.822280 0.500010 -0.588669
O19   O     O_R   0.269270 0.322280 0.499990 -0.566252
O20   O     O_R   0.730730 0.322280 0.500010 -0.581005
O21   O     O_R   0.726580 0.723490 0.400140 -0.596148
O22   O     O_R   0.273420 0.723490 0.599860 -0.593361
O23   O     O_R   0.226580 0.223490 0.400140 -0.601582
O24   O     O_R   0.773420 0.223490 0.599860 -0.600368
O25   O     O_R   0.673560 0.776500 0.400140 -0.565627
O26   O     O_R   0.326440 0.776500 0.599860 -0.555951
O27   O     O_R   0.173560 0.276500 0.400140 -0.565231
O28   O     O_R   0.826440 0.276500 0.599860 -0.558071
O29   O     O_R   0.730720 0.677700 0.500010 -0.572598
O30   O     O_R   0.269280 0.677700 0.499990 -0.572106
O31   O     O_R   0.230720 0.177700 0.500010 -0.571906
O32   O     O_R   0.769280 0.177700 0.499990 -0.560354
O33   O     O_R   0.677700 0.730710 0.500010 -0.604922
O34   O     O_R   0.322300 0.730710 0.499990 -0.593585
O35   O     O_R   0.177700 0.230710 0.500010 -0.603788
O36   O     O_R   0.822300 0.230710 0.499990 -0.590751
O37   O     O_R   0.826430 0.723490 0.599850 -0.601708
O38   O     O_R   0.173570 0.723490 0.400150 -0.605038
O39   O     O_R   0.326430 0.223490 0.599850 -0.598601
O40   O     O_R   0.673570 0.223490 0.400150 -0.602096
O41   O     O_R   0.773410 0.776490 0.599850 -0.585945
O42   O     O_R   0.226590 0.776490 0.400150 -0.556530
O43   O     O_R   0.273410 0.276490 0.599850 -0.583568
O44   O     O_R   0.726590 0.276490 0.400150 -0.561502
O45   O     O_R   0.425350 0.545750 0.442230 -0.608682
O46   O     O_R   0.574650 0.545750 0.557770 -0.592990
O47   O     O_R   0.925350 0.045750 0.442230 -0.618675
O48   O     O_R   0.074650 0.045750 0.557770 -0.594364
N17   N     N_2   0.637529 0.828997 0.289413 -0.425604
H9    H     H_    0.651146 0.852850 0.273614 0.243792
C145  C     C_3   0.596472 0.845564 0.295680 -0.648440
H10   H     H_    0.557928 0.855947 0.244867 0.199683
H11   H     H_    0.614122 0.874509 0.331211 0.221287
H12   H     H_    0.585099 0.819955 0.316695 0.245737
N18   N     N_2   0.400121 0.818014 0.713916 -0.378275
H13   H     H_    0.436368 0.821286 0.719746 0.258568
C146  C     C_3   0.380814 0.859150 0.722267 -0.643059
H14   H     H_    0.416792 0.878914 0.765186 0.230397
H15   H     H_    0.351219 0.853288 0.733161 0.214223
H16   H     H_    0.359371 0.878372 0.674167 0.235427
N19   N     N_2   0.138196 0.330850 0.293071 -0.426266
H17   H     H_    0.151899 0.355711 0.278809 0.240706
C147  C     C_3   0.096455 0.345840 0.299109 -0.643693
H18   H     H_    0.058237 0.357045 0.248654 0.199137
H19   H     H_    0.113672 0.373890 0.336269 0.220397
H20   H     H_    0.084589 0.319047 0.317982 0.245086
N20   N     N_2   0.933864 0.268386 0.705083 -0.398306
H21   H     H_    0.966048 0.248623 0.716463 0.246112
C148  C     C_3   0.941436 0.314595 0.698379 -0.618388
H22   H     H_    0.980155 0.327680 0.746978 0.209845
H23   H     H_    0.905184 0.334346 0.684677 0.239412
H24   H     H_    0.945017 0.318288 0.656905 0.210962
N21   N     N_2   0.760952 0.896330 0.419782 -0.409433
H25   H     H_    0.735409 0.869867 0.391111 0.266964
C149  C     C_3   0.741145 0.937477 0.383798 -0.717978
H26   H     H_    0.696324 0.941497 0.359760 0.219538
H27   H     H_    0.745468 0.937960 0.342776 0.243078
H28   H     H_    0.764817 0.964999 0.420643 0.249744
N22   N     N_2   0.239786 0.889025 0.603850 -0.419764
H29   H     H_    0.258780 0.860988 0.632510 0.249818
C150  C     C_3   0.256975 0.929348 0.643747 -0.700074
H30   H     H_    0.302245 0.928242 0.688038 0.208132
H31   H     H_    0.233395 0.934273 0.663506 0.252927
H32   H     H_    0.249898 0.957593 0.611441 0.246099
N23   N     N_2   0.262652 0.400862 0.431267 -0.378363
H33   H     H_    0.234102 0.376336 0.400361 0.259691
C151  C     C_3   0.244861 0.443623 0.400372 -0.674921
H34   H     H_    0.205952 0.452732 0.392040 0.221726
H35   H     H_    0.235998 0.442718 0.349788 0.222507
H36   H     H_    0.277494 0.468398 0.434991 0.244910
N24   N     N_2   0.736193 0.381482 0.614656 -0.424136
H37   H     H_    0.752401 0.351848 0.639630 0.234546
C152  C     C_3   0.753248 0.418816 0.660181 -0.662485
H38   H     H_    0.798269 0.415937 0.705039 0.209413
H39   H     H_    0.728601 0.420219 0.678922 0.251736
H40   H     H_    0.747603 0.449441 0.632745 0.245632
O49   O     O_3   0.771814 0.751901 0.707739 -0.631882
C153  C     C_3   0.757013 0.797220 0.697682 0.102502
H41   H     H_    0.718198 0.800741 0.643675 0.183857
H42   H     H_    0.788887 0.819709 0.704074 0.133419
C154  C     C_3   0.744554 0.812451 0.745658 -0.406662
H43   H     H_    0.715360 0.788720 0.742470 0.230178
H44   H     H_    0.784085 0.813743 0.799496 0.216688
C155  C     C_3   0.718329 0.858289 0.726459 -0.911370
H45   H     H_    0.746904 0.882660 0.729585 0.257096
H46   H     H_    0.710534 0.868643 0.762731 0.260649
H47   H     H_    0.677847 0.857907 0.673392 0.252480
O50   O     O_3   0.204244 0.797250 0.281959 -0.605513
C156  C     C_3   0.191865 0.839927 0.293415 0.097483
H48   H     H_    0.231933 0.854929 0.337955 0.179409
H49   H     H_    0.163910 0.839207 0.307834 0.147774
C157  C     C_3   0.166524 0.869628 0.230711 -0.411194
H50   H     H_    0.193475 0.868977 0.215070 0.230068
H51   H     H_    0.124110 0.857271 0.187389 0.211014
C158  C     C_3   0.161426 0.917396 0.245942 -0.916645
H52   H     H_    0.137320 0.919289 0.265443 0.251779
H53   H     H_    0.139271 0.936898 0.197957 0.261407
H54   H     H_    0.203585 0.932101 0.284437 0.259015
O51   O     O_3   0.271146 0.252020 0.707195 -0.629883
C159  C     C_3   0.256939 0.297450 0.697959 0.100814
H55   H     H_    0.217857 0.301321 0.644237 0.183125
H56   H     H_    0.288833 0.319691 0.703967 0.133709
C160  C     C_3   0.245522 0.312685 0.746956 -0.410445
H57   H     H_    0.216529 0.289050 0.744358 0.229295
H58   H     H_    0.285447 0.313807 0.800485 0.218679
C161  C     C_3   0.219571 0.358609 0.728486 -0.908871
H59   H     H_    0.248008 0.382919 0.731214 0.257443
H60   H     H_    0.212459 0.368889 0.765422 0.260000
H61   H     H_    0.178766 0.358425 0.675731 0.252920
O52   O     O_3   0.706039 0.295973 0.282882 -0.608297
C162  C     C_3   0.697440 0.338922 0.298173 0.107705
H62   H     H_    0.738460 0.350996 0.345033 0.181466
H63   H     H_    0.668332 0.339560 0.310819 0.142790
C163  C     C_3   0.676839 0.370928 0.239379 -0.411829
H64   H     H_    0.704029 0.368411 0.224184 0.231735
H65   H     H_    0.633198 0.362229 0.194448 0.208909
C164  C     C_3   0.677909 0.418599 0.260476 -0.914076
H66   H     H_    0.651981 0.422151 0.277272 0.251316
H67   H     H_    0.660832 0.440560 0.215896 0.260815
H68   H     H_    0.721505 0.429076 0.303008 0.256459
N25   N     N_2   0.838932 0.725064 0.845535 -0.408186
H69   H     H_    0.800839 0.739303 0.824219 0.270006
C165  C     C_3   0.837494 0.677998 0.853880 -0.662093
H70   H     H_    0.811399 0.661152 0.802794 0.222567
H71   H     H_    0.819269 0.671575 0.880105 0.221454
H72   H     H_    0.880317 0.663991 0.885795 0.236446
N26   N     N_2   0.144879 0.772818 0.143086 -0.409201
H73   H     H_    0.157119 0.805235 0.149667 0.259062
C166  C     C_3   0.185710 0.743240 0.151211 -0.632034
H74   H     H_    0.225599 0.745362 0.204706 0.230922
H75   H     H_    0.193856 0.752749 0.115188 0.222670
H76   H     H_    0.169930 0.708674 0.139242 0.230192
N27   N     N_2   0.337890 0.225435 0.845397 -0.409265
H77   H     H_    0.299117 0.238794 0.822698 0.270052
C167  C     C_3   0.338290 0.178612 0.856836 -0.664174
H78   H     H_    0.313746 0.160325 0.806992 0.220263
H79   H     H_    0.319376 0.172634 0.882344 0.221818
H80   H     H_    0.381679 0.165743 0.890643 0.237523
N28   N     N_2   0.643817 0.274674 0.142816 -0.410107
H81   H     H_    0.656296 0.307076 0.149914 0.257537
C168  C     C_3   0.684205 0.244995 0.150032 -0.628149
H82   H     H_    0.724198 0.246500 0.203499 0.232413
H83   H     H_    0.692335 0.254857 0.114118 0.221504
H84   H     H_    0.667983 0.210555 0.137279 0.231031
O53   O     O_3   0.558341 0.663939 0.520817 -0.582945
C169  C     C_3   0.564809 0.710558 0.523476 0.115411
H85   H     H_    0.533382 0.724319 0.471482 0.120934
H86   H     H_    0.606365 0.721577 0.540556 0.171417
C170  C     C_3   0.555972 0.730976 0.572471 -0.327328
H87   H     H_    0.512288 0.725227 0.552084 0.249361
H88   H     H_    0.584528 0.715345 0.623756 0.220354
C171  C     C_3   0.567286 0.780587 0.581107 -0.960735
H89   H     H_    0.611398 0.787305 0.603633 0.265243
H90   H     H_    0.559900 0.794420 0.616295 0.261057
H91   H     H_    0.538929 0.797205 0.530543 0.254253
O54   O     O_3   0.444772 0.658669 0.480200 -0.591179
C172  C     C_3   0.422476 0.677421 0.415992 0.087303
H92   H     H_    0.446943 0.707446 0.425943 0.149622
H93   H     H_    0.379786 0.690232 0.387191 0.170447
C173  C     C_3   0.428157 0.645334 0.372811 -0.289145
H94   H     H_    0.472575 0.635959 0.401716 0.274815
H95   H     H_    0.404262 0.614816 0.362514 0.207155
C174  C     C_3   0.407205 0.665720 0.304629 -0.936041
H96   H     H_    0.362249 0.674300 0.273601 0.249174
H97   H     H_    0.412337 0.641705 0.274956 0.266622
H98   H     H_    0.431638 0.695957 0.314087 0.268914
O55   O     O_3   0.061158 0.163503 0.526234 -0.583097
C175  C     C_3   0.069046 0.210035 0.532440 0.113839
H99   H     H_    0.038179 0.225466 0.481685 0.116794
H100  H     H_    0.110967 0.220756 0.550528 0.173940
C176  C     C_3   0.060389 0.228584 0.582534 -0.324719
H101  H     H_    0.016386 0.223248 0.561184 0.252843
H102  H     H_    0.088146 0.211302 0.632529 0.218741
C177  C     C_3   0.073209 0.277941 0.595086 -0.964794
H103  H     H_    0.117507 0.284239 0.618129 0.267323
H104  H     H_    0.066165 0.290380 0.631243 0.260268
H105  H     H_    0.045428 0.296156 0.545916 0.254684
O56   O     O_3   0.947005 0.159516 0.484527 -0.593190
C178  C     C_3   0.925841 0.176819 0.419864 0.089673
H106  H     H_    0.951626 0.205760 0.429226 0.152288
H107  H     H_    0.883738 0.190964 0.390614 0.170757
C179  C     C_3   0.930477 0.142909 0.377688 -0.291628
H108  H     H_    0.974593 0.132484 0.407057 0.271934
H109  H     H_    0.905418 0.113289 0.367991 0.208978
C180  C     C_3   0.910325 0.161813 0.308987 -0.930280
H110  H     H_    0.865510 0.170996 0.277304 0.247227
H111  H     H_    0.915282 0.136678 0.280390 0.266762
H112  H     H_    0.935303 0.191466 0.317590 0.273437
N29   N     N_2   0.555806 0.680535 0.394449 -0.417923
H113  H     H_    0.565285 0.712951 0.410791 0.243917
C181  C     C_3   0.542770 0.674281 0.328333 -0.668554
H114  H     H_    0.581230 0.677288 0.333502 0.201506
H115  H     H_    0.513229 0.700285 0.292657 0.212863
H116  H     H_    0.521712 0.642042 0.305561 0.273267
N30   N     N_2   0.443802 0.685884 0.598627 -0.411495
H117  H     H_    0.436324 0.716842 0.577666 0.267516
C182  C     C_3   0.502642 0.675092 0.645674 -0.687033
H118  H     H_    0.527595 0.705560 0.672264 0.208400
H119  H     H_    0.516555 0.659725 0.617960 0.264674
H120  H     H_    0.511068 0.652381 0.685783 0.233996
N31   N     N_2   0.055589 0.183151 0.397604 -0.413221
H121  H     H_    0.064748 0.214971 0.416678 0.244195
C183  C     C_3   0.045548 0.180408 0.332829 -0.673532
H122  H     H_    0.085542 0.182942 0.341311 0.200526
H123  H     H_    0.018521 0.208256 0.299687 0.211231
H124  H     H_    0.022736 0.149525 0.305235 0.269639
N32   N     N_2   0.943816 0.184107 0.602314 -0.408741
H125  H     H_    0.937328 0.215464 0.582899 0.271098
C184  C     C_3   0.002351 0.172618 0.650561 -0.699690
H126  H     H_    0.027609 0.202689 0.678791 0.207003
H127  H     H_    0.017156 0.157667 0.623601 0.264883
H128  H     H_    0.009246 0.149290 0.689194 0.234802
N33   N     N_2   0.572024 0.571886 0.383727 -0.403892
H129  H     H_    0.564754 0.540277 0.391399 0.267793
C185  C     C_3   0.593156 0.571665 0.345449 -0.652913
H130  H     H_    0.559030 0.561912 0.291254 0.211999
H131  H     H_    0.627411 0.547370 0.367457 0.227746
H132  H     H_    0.609217 0.604525 0.346195 0.250015
N34   N     N_2   0.437660 0.581972 0.624671 -0.412795
H133  H     H_    0.479301 0.580608 0.646392 0.265129
C186  C     C_3   0.428714 0.595748 0.673066 -0.658343
H134  H     H_    0.463378 0.583790 0.725380 0.197473
H135  H     H_    0.389309 0.581338 0.658267 0.266770
H136  H     H_    0.427103 0.632289 0.675457 0.237843
N35   N     N_2   0.067257 0.075082 0.379929 -0.399637
H137  H     H_    0.059618 0.043227 0.386200 0.271807
C187  C     C_3   0.086290 0.075931 0.339318 -0.647530
H138  H     H_    0.050654 0.068189 0.284834 0.211840
H139  H     H_    0.118976 0.050695 0.357733 0.226758
H140  H     H_    0.103806 0.108523 0.341996 0.247955
N36   N     N_2   0.935567 0.078763 0.622282 -0.396251
H141  H     H_    0.977485 0.078112 0.645192 0.269931
C188  C     C_3   0.925322 0.089454 0.670349 -0.647339
H142  H     H_    0.958194 0.074355 0.721006 0.197457
H143  H     H_    0.884562 0.075668 0.651924 0.259814
H144  H     H_    0.925909 0.125751 0.677585 0.240518
O57   O     O_3   0.701972 0.588912 0.483949 -0.608947
C189  C     C_3   0.749887 0.567652 0.541144 0.066998
H145  H     H_    0.768538 0.548478 0.521794 0.142604
H146  H     H_    0.739017 0.542782 0.563470 0.164013
C190  C     C_3   0.794558 0.600533 0.595386 -0.266258
H147  H     H_    0.810550 0.619741 0.573059 0.223222
H148  H     H_    0.776687 0.623998 0.611419 0.234135
C191  C     C_3   0.843376 0.576637 0.659098 -0.932864
H149  H     H_    0.828738 0.558026 0.683481 0.269016
H150  H     H_    0.875316 0.601118 0.696974 0.261386
H151  H     H_    0.862929 0.553396 0.644984 0.246414
O58   O     O_3   0.309151 0.592479 0.534418 -0.610268
C192  C     C_3   0.267376 0.561152 0.489961 0.110380
H152  H     H_    0.259054 0.541994 0.520587 0.148118
H153  H     H_    0.281638 0.536604 0.470830 0.160446
C193  C     C_3   0.212877 0.583988 0.431709 -0.276423
H154  H     H_    0.196289 0.602823 0.453985 0.209062
H155  H     H_    0.220700 0.607743 0.404815 0.251358
C194  C     C_3   0.169004 0.550566 0.379244 -0.942292
H156  H     H_    0.183587 0.533126 0.353627 0.270990
H157  H     H_    0.129499 0.567958 0.339340 0.257643
H158  H     H_    0.160582 0.526120 0.404805 0.248555
O59   O     O_3   0.197043 0.089410 0.476027 -0.607622
C195  C     C_3   0.242823 0.064112 0.528767 0.071463
H159  H     H_    0.257871 0.044771 0.505128 0.143403
H160  H     H_    0.230307 0.039224 0.549347 0.168621
C196  C     C_3   0.291657 0.093338 0.585453 -0.268254
H161  H     H_    0.307889 0.112599 0.563443 0.218983
H162  H     H_    0.277691 0.117051 0.606145 0.240059
C197  C     C_3   0.338892 0.065474 0.644564 -0.933292
H163  H     H_    0.323985 0.046688 0.668500 0.267379
H164  H     H_    0.373902 0.087331 0.684372 0.261094
H165  H     H_    0.354519 0.041988 0.625552 0.246878
O60   O     O_3   0.806443 0.091738 0.530009 -0.605377
C198  C     C_3   0.767886 0.058174 0.487094 0.088917
H166  H     H_    0.761051 0.038311 0.518563 0.142049
H167  H     H_    0.784318 0.034685 0.469234 0.160822
C199  C     C_3   0.711631 0.078260 0.427790 -0.273311
H168  H     H_    0.693893 0.096286 0.449286 0.209228
H169  H     H_    0.717431 0.102396 0.399373 0.251879
C200  C     C_3   0.670257 0.042750 0.377658 -0.948180
H170  H     H_    0.685357 0.026521 0.351870 0.266529
H171  H     H_    0.629118 0.058073 0.337622 0.258914
H172  H     H_    0.664743 0.017563 0.405180 0.250073
O61   O     O_3   0.709529 0.579693 0.622988 -0.629458
C201  C     C_3   0.699238 0.537728 0.636580 0.094854
H173  H     H_    0.736569 0.517592 0.656120 0.142723
H174  H     H_    0.663192 0.519946 0.590553 0.172729
C202  C     C_3   0.695282 0.541756 0.694918 -0.325969
H175  H     H_    0.732720 0.559710 0.739119 0.207420
H176  H     H_    0.657968 0.561243 0.677796 0.233744
C203  C     C_3   0.693147 0.496838 0.720312 -0.896355
H177  H     H_    0.658892 0.476287 0.677086 0.293615
H178  H     H_    0.685845 0.501394 0.758474 0.241073
H179  H     H_    0.733574 0.479539 0.745865 0.243689
O62   O     O_3   0.288459 0.571558 0.388861 -0.630988
C204  C     C_3   0.302335 0.532681 0.371377 0.083690
H180  H     H_    0.267356 0.509677 0.351279 0.155950
H181  H     H_    0.340200 0.516022 0.415937 0.147765
C205  C     C_3   0.302988 0.540603 0.311105 -0.321082
H182  H     H_    0.263296 0.556634 0.268516 0.209776
H183  H     H_    0.338003 0.562593 0.327269 0.221665
C206  C     C_3   0.308365 0.497739 0.283228 -0.895776
H184  H     H_    0.273161 0.475133 0.265584 0.255218
H185  H     H_    0.348497 0.481575 0.323445 0.284927
H186  H     H_    0.307439 0.504939 0.238835 0.236984
O63   O     O_3   0.210204 0.077438 0.618664 -0.628670
C207  C     C_3   0.198542 0.036637 0.633674 0.092718
H187  H     H_    0.235197 0.015609 0.653727 0.146578
H188  H     H_    0.162006 0.018904 0.588128 0.167161
C208  C     C_3   0.195491 0.042604 0.692549 -0.329458
H189  H     H_    0.234285 0.059329 0.736626 0.207060
H190  H     H_    0.159604 0.063866 0.676039 0.234227
C209  C     C_3   0.190816 0.998636 0.717994 -0.890327
H191  H     H_    0.153743 0.979881 0.675428 0.294026
H192  H     H_    0.186548 0.004771 0.758596 0.238631
H193  H     H_    0.228973 0.978647 0.740447 0.244514
O64   O     O_3   0.788875 0.073725 0.385667 -0.628130
C210  C     C_3   0.801612 0.033147 0.370711 0.084115
H194  H     H_    0.766033 0.011347 0.352401 0.154544
H195  H     H_    0.839294 0.016729 0.415978 0.161097
C211  C     C_3   0.801963 0.037791 0.309662 -0.333719
H196  H     H_    0.763320 0.055016 0.267118 0.213648
H197  H     H_    0.838203 0.057751 0.324539 0.220908
C212  C     C_3   0.803709 0.993017 0.282507 -0.880097
H198  H     H_    0.766936 0.972659 0.265641 0.248048
H199  H     H_    0.842510 0.975273 0.322753 0.293994
H200  H     H_    0.802877 0.997868 0.237682 0.237085
N37   N     N_2   0.577277 0.826968 0.143641 -0.400385
H201  H     H_    0.567542 0.853159 0.161012 0.259288
C213  C     C_3   0.614587 0.839203 0.129134 -0.685264
H202  H     H_    0.598486 0.869177 0.096708 0.226997
H203  H     H_    0.617173 0.812290 0.100599 0.240569
H204  H     H_    0.657069 0.846400 0.177837 0.208980
N38   N     N_2   0.476322 0.814684 0.857542 -0.414372
H205  H     H_    0.478547 0.826900 0.897983 0.272857
C214  C     C_3   0.530761 0.807301 0.875799 -0.697145
H206  H     H_    0.556403 0.837795 0.899495 0.226768
H207  H     H_    0.526692 0.798966 0.829246 0.226776
H208  H     H_    0.552554 0.780055 0.913451 0.232459
N39   N     N_2   0.078419 0.332077 0.147282 -0.400523
H209  H     H_    0.068598 0.357322 0.165961 0.260315
C215  C     C_3   0.115089 0.346140 0.132625 -0.694059
H210  H     H_    0.157670 0.352903 0.181344 0.210779
H211  H     H_    0.098543 0.376791 0.101783 0.227331
H212  H     H_    0.117539 0.320449 0.102459 0.240335
N40   N     N_2   0.011324 0.271973 0.852655 -0.408070
H213  H     H_    0.028821 0.264021 0.829485 0.250795
C216  C     C_3   0.030346 0.313581 0.890328 -0.650811
H214  H     H_    0.045240 0.335818 0.869531 0.199815
H215  H     H_    0.065718 0.307322 0.945300 0.240391
H216  H     H_    0.996620 0.330745 0.887042 0.228270
N41   N     N_2   0.689583 0.674004 0.622652 -0.387194
H217  H     H_    0.730245 0.678818 0.641583 0.277968
C217  C     C_3   0.685263 0.662798 0.675552 -0.589614
H218  H     H_    0.695979 0.692243 0.708671 0.223941
H219  H     H_    0.715121 0.636206 0.708230 0.221453
H220  H     H_    0.642344 0.651797 0.653008 0.234616
N42   N     N_2   0.299651 0.669932 0.374839 -0.420256
H221  H     H_    0.268600 0.685356 0.372721 0.259015
C218  C     C_3   0.278262 0.650506 0.309323 -0.661665
H222  H     H_    0.243970 0.626991 0.292075 0.256264
H223  H     H_    0.311851 0.634084 0.312270 0.223490
H224  H     H_    0.260882 0.676905 0.270403 0.211744
N43   N     N_2   0.193379 0.172007 0.624133 -0.386948
H225  H     H_    0.233770 0.176158 0.641682 0.275263
C219  C     C_3   0.190301 0.160909 0.678067 -0.592362
H226  H     H_    0.201256 0.190459 0.711078 0.228929
H227  H     H_    0.220650 0.134558 0.710519 0.216970
H228  H     H_    0.147728 0.149699 0.656687 0.233535
N44   N     N_2   0.802696 0.171346 0.376152 -0.421359
H229  H     H_    0.772169 0.188167 0.373560 0.260484
C220  C     C_3   0.781441 0.151676 0.310746 -0.648011
H230  H     H_    0.744575 0.130570 0.291152 0.254522
H231  H     H_    0.814018 0.132154 0.315231 0.226933
H232  H     H_    0.767982 0.178197 0.272887 0.208603
O65   O     O_3   0.576950 0.665977 0.148739 -0.587644
C221  C     C_3   0.521686 0.656010 0.122959 0.097150
H233  H     H_    0.499342 0.641030 0.070882 0.167809
H234  H     H_    0.496809 0.685469 0.116459 0.114561
C222  C     C_3   0.522856 0.622481 0.169439 -0.348692
H235  H     H_    0.546117 0.592621 0.174089 0.233156
H236  H     H_    0.544708 0.637148 0.221458 0.227414
C223  C     C_3   0.463907 0.609145 0.141059 -0.944803
H237  H     H_    0.440471 0.638472 0.137635 0.260701
H238  H     H_    0.466221 0.584865 0.175917 0.257884
H239  H     H_    0.441140 0.593788 0.089168 0.261236
O66   O     O_3   0.409029 0.668180 0.851884 -0.594970
C224  C     C_3   0.443301 0.637012 0.851574 0.083771
H240  H     H_    0.483648 0.652093 0.869531 0.141674
H241  H     H_    0.421456 0.623117 0.798863 0.160145
C225  C     C_3   0.456157 0.599385 0.899912 -0.309289
H242  H     H_    0.478627 0.612715 0.953009 0.232076
H243  H     H_    0.416347 0.584087 0.882927 0.220944
C226  C     C_3   0.492097 0.564144 0.900471 -0.935711
H244  H     H_    0.470043 0.550082 0.847927 0.252055
H245  H     H_    0.500433 0.537159 0.935662 0.260671
H246  H     H_    0.532675 0.578508 0.918749 0.262715
O67   O     O_3   0.079850 0.171112 0.144649 -0.587857
C227  C     C_3   0.024323 0.160285 0.117001 0.090448
H247  H     H_    0.006447 0.139124 0.070780 0.170891
H248  H     H_    0.996418 0.189561 0.099060 0.116486
C228  C     C_3   0.023494 0.134376 0.168971 -0.352627
H249  H     H_    0.052487 0.105904 0.188136 0.241357
H250  H     H_    0.037619 0.156149 0.213311 0.216928
C229  C     C_3   0.964845 0.117514 0.136684 -0.947493
H251  H     H_    0.934874 0.145385 0.115568 0.263093
H252  H     H_    0.965021 0.100795 0.176337 0.258008
H253  H     H_    0.950940 0.093444 0.094769 0.263528
O68   O     O_3   0.863107 0.224527 0.859175 -0.575364
C230  C     C_3   0.872288 0.178970 0.873780 0.074482
H254  H     H_    0.916505 0.169872 0.898935 0.126987
H255  H     H_    0.843940 0.159218 0.825462 0.150770
C231  C     C_3   0.860009 0.167708 0.922902 -0.304358
H256  H     H_    0.888825 0.186742 0.971759 0.220387
H257  H     H_    0.816332 0.177190 0.899225 0.230014
C232  C     C_3   0.867405 0.118517 0.938907 -0.958163
H258  H     H_    0.838437 0.098859 0.890853 0.260887
H259  H     H_    0.857899 0.111461 0.974357 0.262556
H260  H     H_    0.911135 0.108456 0.963981 0.253441
N45   N     N_2   0.649941 0.666189 0.290661 -0.417206
H261  H     H_    0.657303 0.665116 0.337062 0.250315
C233  C     C_3   0.693292 0.645224 0.292406 -0.578008
H262  H     H_    0.731523 0.666175 0.321357 0.217743
H263  H     H_    0.678956 0.639326 0.239459 0.252351
H264  H     H_    0.703802 0.612843 0.318358 0.205715
N46   N     N_2   0.332936 0.668364 0.709146 -0.416358
H265  H     H_    0.326429 0.660401 0.664246 0.272201
C234  C     C_3   0.285250 0.661802 0.707307 -0.583805
H266  H     H_    0.254729 0.689009 0.679091 0.225277
H267  H     H_    0.298747 0.660421 0.760361 0.247471
H268  H     H_    0.264404 0.630050 0.680800 0.201516
N47   N     N_2   0.150491 0.168318 0.286556 -0.413698
H269  H     H_    0.156052 0.165859 0.331745 0.250315
C235  C     C_3   0.194984 0.148363 0.289701 -0.577204
H270  H     H_    0.233191 0.169313 0.320841 0.216400
H271  H     H_    0.182123 0.143823 0.237215 0.251609
H272  H     H_    0.204880 0.115425 0.313973 0.205428
N48   N     N_2   0.787098 0.219163 0.718853 -0.395782
H273  H     H_    0.773032 0.192642 0.685567 0.266830
C236  C     C_3   0.746206 0.252836 0.698748 -0.630448
H274  H     H_    0.738176 0.272843 0.656232 0.206557
H275  H     H_    0.761211 0.274550 0.743568 0.244643
H276  H     H_    0.706418 0.237053 0.680796 0.208213
O69   O     O_3   0.863260 0.956357 0.539373 -0.629564
C237  C     C_3   0.856237 0.957703 0.590292 0.068131
H277  H     H_    0.858038 0.993000 0.604052 0.174344
H278  H     H_    0.891379 0.941916 0.638183 0.148987
C238  C     C_3   0.799795 0.938807 0.565308 -0.333275
H279  H     H_    0.765219 0.955442 0.517236 0.221841
H280  H     H_    0.797722 0.902945 0.554792 0.263850
C239  C     C_3   0.791736 0.945375 0.619487 -0.942951
H281  H     H_    0.825497 0.928507 0.667948 0.263116
H282  H     H_    0.750892 0.931100 0.600331 0.258029
H283  H     H_    0.792099 0.981107 0.630210 0.251013
O70   O     O_3   0.156238 0.958921 0.487578 -0.643189
C240  C     C_3   0.173508 0.961910 0.446727 0.041016
H284  H     H_    0.174334 0.997309 0.437140 0.160919
H285  H     H_    0.142710 0.947397 0.394937 0.166857
C241  C     C_3   0.232538 0.943605 0.482913 -0.321332
H286  H     H_    0.263265 0.962919 0.530650 0.201796
H287  H     H_    0.234550 0.908623 0.496619 0.270051
C242  C     C_3   0.249023 0.946028 0.436595 -0.948751
H288  H     H_    0.221488 0.923894 0.391453 0.268623
H289  H     H_    0.292890 0.934876 0.465326 0.256545
H290  H     H_    0.245488 0.980369 0.419018 0.252403
O71   O     O_3   0.369424 0.448030 0.560156 -0.610819
C243  C     C_3   0.423078 0.460838 0.619834 0.113851
H291  H     H_    0.434835 0.492124 0.608859 0.177225
H292  H     H_    0.456642 0.436417 0.636909 0.151426
C244  C     C_3   0.420972 0.468688 0.678906 -0.304322
H293  H     H_    0.392036 0.496363 0.665752 0.224696
H294  H     H_    0.404819 0.438533 0.686431 0.243462
C245  C     C_3   0.478866 0.479570 0.745909 -0.955433
H295  H     H_    0.507613 0.451332 0.761532 0.255307
H296  H     H_    0.475779 0.486264 0.787370 0.257931
H297  H     H_    0.496541 0.509100 0.739513 0.264516
O72   O     O_3   0.661968 0.457799 0.503932 -0.648016
C246  C     C_3   0.680779 0.463947 0.465288 0.036009
H298  H     H_    0.683091 0.499843 0.460319 0.165828
H299  H     H_    0.650197 0.452220 0.411533 0.167877
C247  C     C_3   0.739295 0.444694 0.501360 -0.310636
H300  H     H_    0.769651 0.461780 0.551679 0.200126
H301  H     H_    0.739497 0.409058 0.511018 0.267099
C248  C     C_3   0.757885 0.450029 0.457477 -0.939711
H302  H     H_    0.729603 0.430958 0.408724 0.270003
H303  H     H_    0.801013 0.437195 0.485758 0.253312
H304  H     H_    0.757403 0.485349 0.445566 0.249276
O73   O     O_3   0.906581 0.859434 0.628219 -0.629488
C249  C     C_3   0.960310 0.875133 0.684127 0.101747
H305  H     H_    0.956081 0.895146 0.718271 0.128755
H306  H     H_    0.980249 0.897005 0.669107 0.174197
C250  C     C_3   0.997960 0.836090 0.726291 -0.305570
H307  H     H_    0.979193 0.817044 0.745345 0.211707
H308  H     H_    0.001059 0.813855 0.693287 0.250148
C251  C     C_3   0.056391 0.851447 0.787730 -0.927945
H309  H     H_    0.075848 0.871094 0.770137 0.260691
H310  H     H_    0.083033 0.822290 0.816114 0.257268
H311  H     H_    0.054252 0.871955 0.823276 0.255286
O74   O     O_3   0.115153 0.871140 0.380760 -0.640393
C252  C     C_3   0.064603 0.886366 0.319573 0.083765
H312  H     H_    0.075065 0.906631 0.292053 0.120338
H313  H     H_    0.040365 0.908582 0.328073 0.181859
C253  C     C_3   0.029948 0.846849 0.273250 -0.291729
H314  H     H_    0.052720 0.829729 0.257697 0.204658
H315  H     H_    0.024423 0.822971 0.302092 0.233385
C254  C     C_3   0.972759 0.861162 0.208865 -0.913338
H316  H     H_    0.948904 0.877649 0.223267 0.263177
H317  H     H_    0.948824 0.831742 0.176450 0.256249
H318  H     H_    0.977581 0.884245 0.178430 0.253540
O75   O     O_3   0.408742 0.356559 0.626323 -0.614751
C255  C     C_3   0.463596 0.340695 0.673063 0.080578
H319  H     H_    0.494065 0.363102 0.676673 0.181057
H320  H     H_    0.465822 0.306916 0.657271 0.157302
C256  C     C_3   0.478926 0.338873 0.744418 -0.357346
H321  H     H_    0.481509 0.372970 0.763075 0.221352
H322  H     H_    0.445760 0.321058 0.741201 0.239341
C257  C     C_3   0.534723 0.315772 0.795915 -0.924165
H323  H     H_    0.532440 0.281150 0.779174 0.251442
H324  H     H_    0.544717 0.315369 0.847202 0.265636
H325  H     H_    0.568654 0.333525 0.800578 0.259035
O76   O     O_3   0.624715 0.375966 0.388967 -0.633920
C258  C     C_3   0.575385 0.390012 0.325297 0.072450
H326  H     H_    0.587961 0.411291 0.300946 0.127164
H327  H     H_    0.547997 0.411050 0.329897 0.173322
C259  C     C_3   0.544177 0.349886 0.278059 -0.288915
H328  H     H_    0.572151 0.331751 0.271475 0.202329
H329  H     H_    0.532369 0.326972 0.301637 0.240374
C260  C     C_3   0.491711 0.363551 0.207370 -0.908446
H330  H     H_    0.462340 0.380842 0.212241 0.260528
H331  H     H_    0.470525 0.333733 0.174419 0.260185
H332  H     H_    0.502838 0.385666 0.182165 0.251059
O77   O     O_3   0.985532 0.853268 0.587150 -0.597095
C261  C     C_3   0.005687 0.824869 0.562057 0.083955
H333  H     H_    0.037788 0.842708 0.563791 0.129586
H334  H     H_    0.974458 0.815438 0.507388 0.128304
C262  C     C_3   0.031032 0.783482 0.607080 -0.359935
H335  H     H_    0.002798 0.770767 0.616876 0.213863
H336  H     H_    0.035566 0.757067 0.579608 0.167524
C263  C     C_3   0.087818 0.792321 0.676684 -0.827834
H337  H     H_    0.120735 0.790927 0.670949 0.240260
H338  H     H_    0.096929 0.766322 0.713595 0.235752
H339  H     H_    0.088885 0.824953 0.698119 0.283261
O78   O     O_3   0.015231 0.865964 0.386883 -0.613490
C264  C     C_3   0.979781 0.842888 0.394491 0.086606
H340  H     H_    0.952435 0.867097 0.394151 0.148123
H341  H     H_    0.001799 0.824472 0.442927 0.130071
C265  C     C_3   0.944004 0.811512 0.332567 -0.342982
H342  H     H_    0.919002 0.831059 0.284424 0.227289
H343  H     H_    0.971428 0.788997 0.330261 0.213352
C266  C     C_3   0.904626 0.783737 0.335940 -0.930779
H344  H     H_    0.928621 0.762822 0.382431 0.260768
H345  H     H_    0.879104 0.762019 0.289662 0.255862
H346  H     H_    0.876388 0.805658 0.337004 0.274712
O79   O     O_3   0.482559 0.349701 0.570844 -0.641764
C267  C     C_3   0.493403 0.312571 0.546305 0.079389
H347  H     H_    0.538543 0.312710 0.571329 0.169098
H348  H     H_    0.472349 0.314892 0.490824 0.128579
C268  C     C_3   0.481457 0.269040 0.566084 -0.343347
H349  H     H_    0.511413 0.265464 0.622963 0.196469
H350  H     H_    0.438512 0.268680 0.549867 0.247603
C269  C     C_3   0.488011 0.229740 0.532896 -0.899614
H351  H     H_    0.457725 0.232069 0.475868 0.261576
H352  H     H_    0.479829 0.198659 0.548608 0.250778
H353  H     H_    0.531181 0.228717 0.549666 0.253137
O80   O     O_3   0.516100 0.365512 0.378877 -0.597123
C270  C     C_3   0.475719 0.355428 0.386936 0.101335
H354  H     H_    0.477544 0.378119 0.423600 0.141798
H355  H     H_    0.481101 0.321293 0.405334 0.121747
C271  C     C_3   0.418032 0.358096 0.316281 -0.370649
H356  H     H_    0.416190 0.334916 0.279977 0.219510
H357  H     H_    0.385562 0.347645 0.320297 0.154826
C272  C     C_3   0.405177 0.404703 0.287072 -0.743579
H358  H     H_    0.409492 0.428897 0.323847 0.251417
H359  H     H_    0.361692 0.405930 0.238074 0.213818
H360  H     H_    0.434218 0.414262 0.276695 0.260626
N49   N     N_2   0.874463 0.795693 0.439532 -0.428666
H361  H     H_    0.835327 0.790005 0.393490 0.263390
C273  C     C_3   0.899757 0.755802 0.479370 -0.635819
H362  H     H_    0.934913 0.745693 0.480176 0.192161
H363  H     H_    0.868848 0.728286 0.455007 0.223678
H364  H     H_    0.914724 0.760332 0.532660 0.243267
N50   N     N_2   0.100425 0.793173 0.522423 -0.420689
H365  H     H_    0.090291 0.793026 0.554680 0.245009
C274  C     C_3   0.072253 0.760025 0.468137 -0.618193
H366  H     H_    0.029870 0.753374 0.451630 0.185171
H367  H     H_    0.095956 0.728686 0.488308 0.233327
H368  H     H_    0.069006 0.770258 0.422960 0.236210
N51   N     N_2   0.368618 0.301592 0.423736 -0.419030
H369  H     H_    0.385633 0.308497 0.399861 0.229122
C275  C     C_3   0.317061 0.276448 0.379872 -0.611788
H370  H     H_    0.307550 0.268894 0.329699 0.185092
H371  H     H_    0.280991 0.294542 0.369517 0.215589
H372  H     H_    0.322169 0.244403 0.404335 0.253683
N52   N     N_2   0.585395 0.291402 0.502038 -0.433146
H373  H     H_    0.612758 0.275233 0.547957 0.256030
C276  C     C_3   0.559105 0.262575 0.442284 -0.652082
H374  H     H_    0.520651 0.248094 0.430333 0.203894
H375  H     H_    0.587220 0.234855 0.453113 0.237476
H376  H     H_    0.547716 0.280450 0.396355 0.240779
N53   N     N_2   0.834543 0.888211 0.364380 -0.396694
H377  H     H_    0.865839 0.887962 0.360105 0.259166
C277  C     C_3   0.784027 0.866174 0.307260 -0.726722
H378  H     H_    0.765410 0.885350 0.259675 0.228488
H379  H     H_    0.752592 0.863445 0.315352 0.233998
H380  H     H_    0.793230 0.832690 0.298814 0.212018
N54   N     N_2   0.148544 0.877574 0.626319 -0.403203
H381  H     H_    0.114240 0.879812 0.624568 0.267263
C278  C     C_3   0.192098 0.848856 0.679445 -0.699598
H382  H     H_    0.189961 0.847114 0.722327 0.220117
H383  H     H_    0.233831 0.862342 0.701734 0.241850
H384  H     H_    0.187885 0.815121 0.658828 0.232867
N55   N     N_2   0.325082 0.398506 0.361912 -0.401575
H385  H     H_    0.354089 0.402314 0.354227 0.273643
C279  C     C_3   0.275572 0.375442 0.305353 -0.721810
H386  H     H_    0.252239 0.396866 0.259390 0.219489
H387  H     H_    0.247536 0.366994 0.317576 0.229679
H388  H     H_    0.287377 0.345067 0.292122 0.230545
N56   N     N_2   0.628853 0.371082 0.614476 -0.396426
H389  H     H_    0.590045 0.374410 0.601998 0.276832
C280  C     C_3   0.663971 0.339483 0.668096 -0.710407
H390  H     H_    0.665848 0.347645 0.713105 0.234494
H391  H     H_    0.707064 0.340944 0.685371 0.240935
H392  H     H_    0.646481 0.305767 0.650165 0.209779

loop_
_geom_bond_atom_site_label_1
_geom_bond_atom_site_label_2
_ccdc_geom_bond_type
C181  H116  S    
C99   C103  S    
C187  H138  S    
C124  O40   A    
C11   N7    A    
C172  H92   S    
Cu12  O46   S    
C55   C59   A    
C166  H75   S    
N35   H137  S    
C9    N5    A    
N54   H381  S    
C225  C226  S    
C104  C108  S    
C136  C140  A    
C263  H337  S    
C149  H27   S    
C254  H316  S    
C12   N8    A    
C104  O64   S    
C218  H222  S    
C159  H55   S    
C154  C155  S    
C135  C139  A    
C179  H108  S    
C257  H324  S    
C264  C265  S    
C116  O48   A    
C19   C39   S    
C155  H45   S    
C183  H123  S    
C234  H266  S    
C182  H119  S    
C35   C39   S    
C20   C40   S    
C95   C99   S    
C208  H190  S    
C21   C33   S    
C226  H245  S    
N24   H37   S    
C29   C33   S    
C100  C104  S    
C216  H216  S    
Cu8   O20   S    
C273  H363  S    
C224  H240  S    
C91   O35   A    
C245  H297  S    
C99   O59   S    
Cu2   Cu6   S    
Cu9   O14   S    
N38   H205  S    
C223  H237  S    
C206  H185  S    
C257  H325  S    
N18   C146  S    
C258  C259  S    
C29   N49   S    
C75   N15   A    
C16   C44   S    
C40   C44   S    
Cu1   O29   S    
C235  H272  S    
C107  C111  S    
C235  H271  S    
Cu2   O30   S    
C232  H259  S    
C49   C69   A    
C274  H366  S    
C72   C124  S    
C244  C245  S    
C245  H296  S    
C233  H263  S    
C130  C134  A    
C51   C71   A    
C239  H283  S    
C13   C41   S    
O78   C264  S    
C251  H310  S    
C217  H220  S    
C63   C67   A    
C68   H8    S    
C25   C29   S    
C35   N55   S    
C24   C120  S    
C129  N37   S    
C27   C31   S    
C219  H226  S    
C270  H354  S    
Cu12  O15   S    
C227  H247  S    
Cu5   O33   S    
C160  H58   S    
C240  C241  S    
C167  H79   S    
C30   C34   S    
C241  H286  S    
C220  H232  S    
C76   N16   A    
C163  H64   S    
O57   C189  S    
C123  O43   A    
C205  C206  S    
C17   C21   S    
N45   C233  S    
C80   N32   S    
C19   C23   S    
C279  H386  S    
C188  H142  S    
C115  O47   A    
C271  H356  S    
C52   C72   A    
C197  H164  S    
Cu7   O19   S    
C78   C82   S    
C15   C27   S    
C277  H378  S    
C74   N14   A    
C243  C244  S    
C16   C20   S    
C222  C223  S    
C171  H89   S    
C48   O28   A    
C265  H343  S    
C161  H59   S    
C277  H380  S    
C120  O16   A    
C14   C26   S    
C18   O70   S    
C32   N52   S    
C74   N9    A    
C87   C103  S    
C140  O68   S    
C1    C41   S    
C195  H160  S    
C172  C173  S    
C201  H174  S    
C204  H181  S    
C236  H274  S    
N17   C145  S    
C224  C225  S    
C84   O56   S    
N25   H69   S    
C201  C202  S    
C263  H339  S    
C90   O34   A    
C207  H187  S    
C36   N56   S    
C90   O30   A    
C34   N54   S    
C106  N42   S    
C260  H332  S    
C191  H151  S    
C22   C118  S    
C85   C114  S    
N34   H133  S    
C242  H289  S    
C75   N12   A    
O72   C246  S    
Cu9   O47   S    
C155  H47   S    
C54   N26   S    
C84   C88   S    
C255  H319  S    
N22   C150  S    
N11   N15   A    
C39   N23   S    
C57   C61   A    
C211  H196  S    
C278  H384  S    
C231  C232  S    
N45   H261  S    
C59   C63   A    
C209  H193  S    
C248  H302  S    
C60   C64   A    
C81   O53   S    
O58   C192  S    
Cu4   O32   S    
C237  H277  S    
C18   C38   S    
C254  H318  S    
N41   C217  S    
C11   C136  S    
N50   C274  S    
N43   C219  S    
C199  H168  S    
C66   C70   A    
C77   N29   S    
C279  H388  S    
C78   C94   S    
C223  H239  S    
C49   C53   A    
C157  H51   S    
C203  H177  S    
C52   O52   S    
N29   H113  S    
C145  H12   S    
C51   C55   A    
N52   C276  S    
C50   C70   A    
C249  H306  S    
N46   H265  S    
C117  O13   A    
C167  H78   S    
Cu2   O38   S    
N37   C213  S    
C61   C65   A    
C11   N4    A    
C264  H341  S    
C280  H390  S    
C122  O42   A    
C274  H368  S    
C65   H5    S    
C244  H293  S    
C194  H157  S    
C126  C130  A    
C191  H149  S    
C103  C107  S    
Cu7   O27   S    
C184  H126  S    
C175  C176  S    
C268  H349  S    
C234  H267  S    
C213  H204  S    
C186  H134  S    
C151  H35   S    
C25   O77   S    
C246  H298  S    
C227  C228  S    
C63   H3    S    
C210  C211  S    
C152  H40   S    
C211  C212  S    
C7    C143  A    
N31   H121  S    
C229  H251  S    
C230  C231  S    
C27   O79   S    
C158  H53   S    
Cu9   O9    S    
C13   O73   S    
C95   N35   S    
C148  H22   S    
C24   C36   S    
C31   C43   S    
C64   C68   A    
C71   C123  S    
C9    N2    A    
N54   C278  S    
C225  H243  S    
C125  N17   S    
C198  H167  S    
C23   C119  S    
N21   H25   S    
C178  H106  S    
C151  H36   S    
C83   O55   S    
C252  H313  S    
C171  H91   S    
Cu1   O1    S    
C262  H336  S    
C115  O7    A    
C141  N45   S    
N19   H17   S    
C212  H198  S    
C177  H103  S    
C209  H192  S    
Cu11  O16   S    
C139  O67   S    
C139  C143  A    
C8    C128  A    
C124  O44   A    
C45   O25   A    
C268  H350  S    
C87   C95   S    
C236  H276  S    
C21   C117  S    
C185  H131  S    
N9    N13   A    
C119  O15   A    
C207  C208  S    
Cu4   O4    S    
C176  C177  S    
C113  O5    A    
C165  H70   S    
C146  H14   S    
C215  H212  S    
C247  H301  S    
C248  H303  S    
C255  C256  S    
C28   C32   S    
C205  H183  S    
C173  H94   S    
C88   C104  S    
N17   H9    S    
N51   H369  S    
C127  C131  A    
C168  H83   S    
C22   C34   S    
C81   C105  S    
C62   C66   A    
C275  H370  S    
C275  H372  S    
Cu6   O26   S    
C91   O31   A    
N26   C166  S    
O60   C198  S    
C270  C271  S    
C89   O29   A    
C192  H153  S    
C276  H374  S    
N29   C181  S    
C80   C112  S    
C12   C135  S    
C203  H179  S    
C107  N43   S    
Cu10  O48   S    
C253  H314  S    
C165  H71   S    
C177  H105  S    
Cu3   Cu7   S    
C102  O62   S    
C202  H175  S    
C125  C129  A    
C97   C109  S    
C70   C122  S    
C169  H86   S    
O67   C227  S    
C49   O49   S    
C132  C136  A    
C280  H392  S    
C99   C111  S    
C105  C109  S    
C267  H348  S    
O61   C201  S    
N20   C148  S    
C79   N31   S    
C184  H128  S    
C77   C109  S    
N23   C151  S    
C100  O60   S    
C117  O9    A    
C190  H147  S    
C33   N53   S    
C250  H307  S    
C170  C171  S    
C259  H329  S    
C162  H63   S    
C250  H308  S    
C55   N27   S    
C266  H346  S    
N37   H201  S    
C92   O32   A    
C132  N40   S    
N24   C152  S    
C210  H194  S    
C86   C102  S    
C93   C97   S    
Cu11  Cu12  S    
Cu4   O24   S    
C169  C170  S    
C256  H322  S    
C238  C239  S    
C181  H115  S    
C21   C25   S    
C269  H351  S    
Cu11  O45   S    
C148  H24   S    
C121  O41   A    
C221  C222  S    
C241  C242  S    
C18   C22   S    
C128  N20   S    
C121  O37   A    
Cu8   O28   S    
Cu12  O5    S    
Cu4   Cu8   S    
C243  H292  S    
C193  H154  S    
C221  H233  S    
C263  H338  S    
C150  H32   S    
O63   C207  S    
C26   C30   S    
C186  H136  S    
C259  C260  S    
C48   O24   A    
C13   C17   S    
C272  H360  S    
C88   C115  S    
C155  H46   S    
O64   C210  S    
O56   C178  S    
C15   C43   S    
Cu2   O22   S    
N47   H269  S    
C261  H333  S    
C2    C42   S    
C147  H20   S    
C96   C100  S    
N51   C275  S    
C144  N48   S    
Cu7   O43   S    
C153  H42   S    
N32   C184  S    
C37   C41   S    
C262  H335  S    
C190  C191  S    
C67   H7    S    
C4    O20   A    
C56   C60   A    
N33   C185  S    
N43   H225  S    
N21   C149  S    
C146  H16   S    
C5    C125  A    
C215  H210  S    
C258  H327  S    
C153  H41   S    
C235  H270  S    
Cu7   O35   S    
C190  H148  S    
C180  H111  S    
C204  H180  S    
C3    O3    A    
C59   C76   S    
C173  C174  S    
C81   C85   S    
C149  H26   S    
C269  H353  S    
C58   C62   A    
C260  H331  S    
C83   C87   S    
C88   C96   S    
N33   H129  S    
C98   C110  S    
C174  H98   S    
C244  H294  S    
N35   C187  S    
O79   C267  S    
C127  N19   S    
C10   C133  S    
C133  C137  A    
C80   C84   S    
C130  N38   S    
C12   N3    A    
C51   O51   S    
N18   H13   S    
C85   C101  S    
C273  H362  S    
N56   C280  S    
C276  H376  S    
C15   C19   S    
C217  H219  S    
C50   C54   A    
C241  H287  S    
C253  C254  S    
N27   H77   S    
C101  O61   S    
C246  H299  S    
C227  H248  S    
C262  C263  S    
C16   O76   S    
C240  H285  S    
C177  H104  S    
C54   C58   A    
C142  N46   S    
C220  H231  S    
C94   C98   S    
C163  H65   S    
C147  H18   S    
C156  C157  S    
C259  H328  S    
O62   C204  S    
C66   H6    S    
C46   O26   A    
N5    N6    A    
C73   N10   A    
C164  H67   S    
C189  H145  S    
C175  H99   S    
C221  H234  S    
Cu10  O13   S    
C82   O54   S    
C230  H254  S    
C159  H56   S    
C222  H236  S    
C153  C154  S    
C171  H90   S    
C196  C197  S    
C19   O71   S    
N52   H373  S    
C62   H2    S    
C97   O57   S    
C6    C142  A    
C6    C46   S    
N10   N14   A    
N38   C214  S    
C29   C41   S    
C163  C164  S    
N27   C167  S    
Cu10  O10   S    
C149  H28   S    
C256  H321  S    
C172  H93   S    
C45   O21   A    
C2    O18   A    
C214  H206  S    
C224  H241  S    
C123  O39   A    
C193  C194  S    
Cu3   O31   S    
C173  H95   S    
N53   H377  S    
C207  H188  S    
C160  C161  S    
C218  H223  S    
C170  H87   S    
C178  C179  S    
C1    O17   A    
C242  H288  S    
C257  H323  S    
C228  C229  S    
C258  H326  S    
C161  H61   S    
C24   C28   S    
N48   H273  S    
C183  H124  S    
O70   C240  S    
C6    C126  A    
N36   C188  S    
C138  C142  A    
C182  H120  S    
Cu5   O25   S    
N3    N4    A    
Cu2   O2    S    
O76   C258  S    
C92   C112  S    
C208  C209  S    
C211  H197  S    
C4    C44   S    
C179  C180  S    
O80   C270  S    
C82   C86   S    
C17   O69   S    
Cu3   O23   S    
Cu11  O6    S    
C33   C37   S    
C174  H96   S    
C196  H161  S    
C168  H84   S    
C189  C190  S    
C7    C47   S    
C93   N33   S    
N42   H221  S    
C8    C48   S    
C79   C95   S    
N41   H217  S    
C61   H1    S    
C226  H246  S    
C189  H146  S    
C187  H139  S    
C199  H169  S    
N28   H81   S    
C176  H102  S    
C77   C81   S    
C151  H34   S    
C206  H186  S    
C20   O72   S    
C78   N30   S    
C64   H4    S    
C203  H178  S    
N55   C279  S    
C279  H387  S    
C47   O23   A    
C145  H11   S    
C162  H62   S    
Cu4   O40   S    
C249  C250  S    
C87   C116  S    
Cu6   O42   S    
Cu5   O41   S    
C255  H320  S    
C105  N41   S    
C100  C112  S    
C232  H260  S    
C37   N21   S    
Cu8   O44   S    
C274  H367  S    
C245  H295  S    
C233  H264  S    
C31   C35   S    
C218  H224  S    
C237  C238  S    
C154  H44   S    
C229  H253  S    
C32   C36   S    
O66   C224  S    
C251  H309  S    
C199  C200  S    
C89   O33   A    
C180  H110  S    
O71   C243  S    
C194  H156  S    
C213  H203  S    
C137  C141  A    
O52   C162  S    
C200  H171  S    
C1    O1    A    
C209  H191  S    
C50   O50   S    
C260  H330  S    
C140  C144  A    
C210  H195  S    
C138  O66   S    
C176  H101  S    
C174  H97   S    
C167  H80   S    
C14   O74   S    
N30   H117  S    
C230  H255  S    
C38   C42   S    
Cu9   O8    S    
C47   O27   A    
C10   N6    A    
C197  H165  S    
C53   N25   S    
Cu10  O7    S    
C60   C75   S    
C114  O6    A    
C165  H72   S    
N26   H73   S    
N53   C277  S    
C98   C102  S    
N39   C215  S    
C79   C83   S    
C166  H76   S    
C118  O10   A    
C252  H312  S    
N49   H361  S    
C5    C45   S    
C266  H344  S    
C65   C69   A    
C94   N34   S    
C77   C93   S    
C265  H342  S    
C84   C108  S    
C53   C57   A    
C92   O36   A    
C67   C71   A    
C267  C268  S    
O68   C230  S    
C118  O14   A    
C28   O80   S    
N34   C186  S    
C178  H107  S    
O75   C255  S    
C108  C112  S    
C46   O22   A    
Cu1   O37   S    
C195  H159  S    
C278  H383  S    
C231  H256  S    
C22   C26   S    
C204  C205  S    
C238  H280  S    
C150  H30   S    
C30   C42   S    
C108  N44   S    
C214  H208  S    
C182  H118  S    
Cu6   O18   S    
Cu1   Cu5   S    
C206  H184  S    
N50   H365  S    
C16   C28   S    
C273  H364  S    
N7    N8    A    
N1    N2    A    
C267  H347  S    
C215  H211  S    
C166  H74   S    
C14   C18   S    
C237  H278  S    
C183  H122  S    
C200  H170  S    
C198  H166  S    
C188  H144  S    
C38   N22   S    
C254  H317  S    
C220  H230  S    
C208  H189  S    
O73   C249  S    
C231  H257  S    
C116  O8    A    
C3    C43   S    
C264  H340  S    
C154  H43   S    
C253  H315  S    
C157  H50   S    
C275  H371  S    
C228  H249  S    
C119  O11   A    
C272  H358  S    
C200  H172  S    
C131  C135  A    
C120  O12   A    
C228  H250  S    
C270  H355  S    
C114  O46   A    
C213  H202  S    
C89   C109  S    
C131  N39   S    
O74   C252  S    
C56   N28   S    
C191  H150  S    
C2    O2    A    
C91   C111  S    
C249  H305  S    
C205  H182  S    
C86   C94   S    
C216  H215  S    
C113  O45   A    
C143  N47   S    
C26   O78   S    
C280  H391  S    
C216  H214  S    
C158  H52   S    
C194  H158  S    
C3    O19   A    
N32   H125  S    
N40   C216  S    
C152  H39   S    
C23   C27   S    
C80   C96   S    
N23   H33   S    
C278  H382  S    
N55   H385  S    
C68   C72   A    
C14   C42   S    
C180  H112  S    
C15   O75   S    
C9    C134  S    
C192  C193  S    
C82   C106  S    
C272  H359  S    
C186  H135  S    
C160  H57   S    
C250  C251  S    
C266  H345  S    
C13   C25   S    
O65   C221  S    
C85   C93   S    
N36   H141  S    
C128  C132  A    
N31   C183  S    
C158  H54   S    
C219  H227  S    
C101  C105  S    
C187  H140  S    
C269  H352  S    
C148  H23   S    
N48   C236  S    
C20   C24   S    
C36   C40   S    
C225  H242  S    
N47   C235  S    
C193  H155  S    
C198  C199  S    
C217  H218  S    
C150  H31   S    
O51   C159  S    
C252  C253  S    
C39   C43   S    
C271  C272  S    
N25   C165  S    
O77   C261  S    
C201  H173  S    
C265  C266  S    
N40   H213  S    
N19   C147  S    
C57   C74   S    
N56   H389  S    
C175  H100  S    
C96   N36   S    
C256  C257  S    
O55   C175  S    
N12   N16   A    
C261  H334  S    
C185  H130  S    
C195  C196  S    
C69   C121  S    
C246  C247  S    
C233  H262  S    
C268  C269  S    
N46   C234  S    
N39   H209  S    
C152  H38   S    
C32   C44   S    
C185  H132  S    
C78   C110  S    
C17   C37   S    
C4    O4    A    
C126  N18   S    
N42   C218  S    
Cu11  O11   S    
C86   C113  S    
Cu12  O12   S    
C223  H238  S    
C212  H199  S    
N28   C168  S    
C192  H152  S    
C146  H15   S    
C247  H300  S    
C248  H304  S    
C129  C133  A    
C184  H127  S    
C90   C110  S    
N49   C273  S    
N22   H29   S    
C31   N51   S    
C161  H60   S    
C164  H68   S    
Cu8   O36   S    
C261  C262  S    
C156  H48   S    
O69   C237  S    
C106  C110  S    
C40   N24   S    
Cu3   O3    S    
C76   N11   A    
C179  H109  S    
C122  O38   A    
C34   C38   S    
C271  H357  S    
C98   O58   S    
C157  C158  S    
C5    C141  A    
C239  H281  S    
N44   H229  S    
C134  C138  A    
N20   H21   S    
C159  C160  S    
N44   C220  S    
C229  H252  S    
C236  H275  S    
C276  H375  S    
C188  H143  S    
C23   C35   S    
C197  H163  S    
C232  H258  S    
C79   C111  S    
C219  H228  S    
C7    C127  A    
O50   C156  S    
C234  H268  S    
C214  H207  S    
Cu9   Cu10  S    
C73   N13   A    
C202  C203  S    
C202  H176  S    
C240  H284  S    
Cu1   O21   S    
N30   C182  S    
C169  H85   S    
C238  H279  S    
C10   N1    A    
C137  O65   S    
C242  H290  S    
O54   C172  S    
C156  H49   S    
C239  H282  S    
C83   C107  S    
C102  C106  S    
C277  H379  S    
Cu6   O34   S    
C164  H66   S    
C212  H200  S    
C103  O63   S    
C251  H311  S    
Cu3   O39   S    
C226  H244  S    
C8    C144  A    
O59   C195  S    
C243  H291  S    
C247  C248  S    
C170  H88   S    
C222  H235  S    
C162  C163  S    
C145  H10   S    
C196  H162  S    
C168  H82   S    
C30   N50   S    
C147  H19   S    
O53   C169  S    
O49   C153  S    
C181  H114  S    
C97   C101  S    
C52   C56   A    
C58   C73   S    
Cu5   O17   S    
