data_mof_unit_56517.cif
_audit_creation_date              2012-12-10T16:50:29-0500
_audit_creation_method            fapswitch 2.2
_symmetry_space_group_name_H-M    P1
_symmetry_Int_Tables_number       1
_space_group_crystal_system       triclinic
_cell_length_a                    26.225258
_cell_length_b                    26.25519
_cell_length_c                    22.30243
_cell_angle_alpha                 90.09367
_cell_angle_beta                  53.834514
_cell_angle_gamma                 89.771418
_cell_volume                      12397.1508929

loop_
_atom_site_label
_atom_site_type_symbol
_atom_type_description
_atom_site_fract_x
_atom_site_fract_y
_atom_site_fract_z
_atom_type_partial_charge
C1    C     C_R   0.650559 0.750154 0.698909 0.496004
C2    C     C_3   0.029116 0.274228 0.042902 -0.217515
C3    C     C_2   0.550798 0.756056 0.511578 -0.084205
C4    C     C_2   0.982300 0.709607 0.478946 0.242067
C5    C     C_2   0.980529 0.289050 0.482360 0.259888
C6    C     C_2   0.485056 0.211339 0.473598 0.239775
C7    C     C_2   0.478701 0.788828 0.485858 0.251588
C8    C     C_3   0.063324 0.629459 0.496317 0.025496
C9    C     C_3   0.104450 0.582193 0.457997 -0.251172
C10   C     C_3   0.088520 0.540486 0.514096 -0.493455
C11   C     C_3   0.099446 0.360712 0.417906 0.054464
C12   C     C_3   0.100865 0.393510 0.360460 -0.259626
C13   C     C_3   0.523813 0.220136 0.044230 -0.220757
C14   C     C_3   0.103190 0.450146 0.374091 -0.507647
C15   C     C_3   0.559337 0.130524 0.499440 0.027890
C16   C     C_3   0.601952 0.083542 0.466400 -0.251571
C17   C     C_3   0.582771 0.043839 0.526118 -0.495931
C18   C     C_3   0.590145 0.865135 0.430790 0.051742
C19   C     C_3   0.595204 0.899879 0.372600 -0.249650
C20   C     C_3   0.599883 0.955680 0.387821 -0.508510
C21   C     C_3   0.950199 0.692734 0.887041 0.093501
C22   C     C_3   0.886302 0.692339 0.899349 -0.261876
C23   C     C_3   0.893828 0.680451 0.827501 -0.505363
C24   C     C_3   0.532578 0.764976 0.042447 -0.216607
C25   C     C_3   0.992952 0.374485 0.956883 0.033293
C26   C     C_3   0.932941 0.405759 0.986588 -0.298833
C27   C     C_3   0.932989 0.455372 0.022303 -0.484980
C28   C     C_3   0.505965 0.149733 0.866557 0.040829
C29   C     C_3   0.488351 0.168785 0.815716 -0.256744
C30   C     C_3   0.530385 0.143991 0.738913 -0.500218
C31   C     C_3   0.513628 0.878481 0.956442 0.032801
C32   C     C_3   0.459547 0.917140 0.987301 -0.296435
C33   C     C_3   0.471367 0.964765 0.016634 -0.489680
C34   C     C_3   0.082030 0.616568 0.912057 -0.018395
C35   C     C_3   0.016151 0.791567 0.043465 0.179490
C36   C     C_3   0.145493 0.620344 0.835346 -0.258710
C37   C     C_3   0.189089 0.575998 0.821331 -0.482618
C38   C     C_3   0.167988 0.317685 0.882533 0.004592
C39   C     C_3   0.190860 0.321875 0.931766 -0.277182
C40   C     C_3   0.262823 0.322776 0.885200 -0.488343
C41   C     C_3   0.560677 0.122935 0.967908 0.030160
C42   C     C_3   0.595100 0.106224 0.001416 -0.272561
C43   C     C_3   0.557876 0.065930 0.061210 -0.495514
C44   C     C_3   0.676548 0.799704 0.875540 0.006298
C45   C     C_3   0.707273 0.795980 0.916299 -0.275850
C46   C     C_3   0.972246 0.193761 0.041766 0.191437
C47   C     C_3   0.778990 0.791454 0.861667 -0.485942
C48   C     C_3   0.963996 0.838692 0.915805 -0.026094
C49   C     C_3   0.928657 0.870466 0.893621 -0.248291
C50   C     C_3   0.950397 0.925770 0.878764 -0.489319
C51   C     C_3   0.895381 0.285703 0.938597 0.037018
C52   C     C_3   0.850649 0.250828 0.935225 -0.277602
C53   C     C_3   0.799526 0.281284 0.938139 -0.484122
C54   C     C_3   0.372744 0.255420 0.970154 0.003390
C55   C     C_3   0.334863 0.205572 0.993190 -0.248905
C56   C     C_3   0.264075 0.216686 0.039309 -0.501491
C57   C     C_3   0.478022 0.304390 0.040382 0.201558
C58   C     C_3   0.398699 0.808237 0.944978 0.037648
C59   C     C_3   0.342619 0.780667 0.955925 -0.277415
C60   C     C_3   0.293247 0.818260 0.966869 -0.499644
C61   C     C_3   0.895733 0.468261 0.397900 0.016798
C62   C     C_3   0.955150 0.437028 0.369715 -0.238708
C63   C     C_3   0.009887 0.452865 0.291450 -0.506479
C64   C     C_3   0.766408 0.529256 0.618739 0.007001
C65   C     C_3   0.783560 0.558808 0.663547 -0.249332
C66   C     C_3   0.747563 0.539207 0.742989 -0.503213
C67   C     C_3   0.403824 0.947545 0.376826 0.050409
C68   C     C_3   0.461704 0.696613 0.041353 0.191853
C69   C     C_3   0.451697 0.980306 0.310221 -0.255188
C70   C     C_3   0.516488 0.977903 0.294985 -0.496836
C71   C     C_3   0.358864 0.041763 0.517648 -0.017418
C72   C     C_3   0.332289 0.087520 0.570779 -0.238167
C73   C     C_3   0.347325 0.084096 0.627105 -0.483305
C74   C     C_3   0.642852 0.444598 0.519352 0.040981
C75   C     C_3   0.673966 0.431934 0.436862 -0.276184
C76   C     C_3   0.624744 0.413747 0.425874 -0.487469
C77   C     C_3   0.724694 0.573452 0.401594 -0.001206
C78   C     C_3   0.652670 0.580261 0.450596 -0.260290
C79   C     C_3   0.054599 0.794759 0.956744 0.136116
C80   C     C_3   0.632637 0.620867 0.419386 -0.467914
C81   C     C_3   0.209533 0.945613 0.639128 0.000389
C82   C     C_3   0.144044 0.930868 0.706985 -0.235609
C83   C     C_3   0.146839 0.911230 0.769270 -0.498807
C84   C     C_3   0.197052 0.040398 0.441087 0.007460
C85   C     C_3   0.140026 0.013903 0.452685 -0.240845
C86   C     C_3   0.140930 0.956539 0.463486 -0.379739
C87   C     C_3   0.995191 0.651932 0.394205 0.039337
C88   C     C_3   0.963674 0.607459 0.383902 -0.247955
C89   C     C_3   0.989742 0.600681 0.302438 -0.497910
C90   C     C_3   0.018014 0.192995 0.954964 0.122225
C91   C     C_3   0.934081 0.365330 0.540273 -0.012861
C92   C     C_3   0.861842 0.364917 0.587450 -0.238122
C93   C     C_3   0.832928 0.401236 0.653534 -0.492164
C94   C     C_3   0.507541 0.163273 0.375522 0.032815
C95   C     C_3   0.480532 0.123222 0.351818 -0.240665
C96   C     C_3   0.517942 0.120871 0.267324 -0.497760
C97   C     C_3   0.414266 0.852039 0.563714 -0.005510
C98   C     C_3   0.386897 0.904585 0.568652 -0.253935
C99   C     C_3   0.342819 0.922443 0.649292 -0.503433
C100  C     C_3   0.943333 0.839277 0.524909 0.001311
C101  C     C_3   0.522187 0.300944 0.953606 0.151073
C102  C     C_3   0.926440 0.878186 0.487928 -0.233459
C103  C     C_3   0.883772 0.920373 0.542033 -0.470612
C104  C     C_3   0.975959 0.163251 0.447596 0.016240
C105  C     C_3   0.936745 0.115807 0.488093 -0.245752
C106  C     C_3   0.943282 0.076115 0.433836 -0.489815
C107  C     C_3   0.438629 0.337805 0.535506 0.001702
C108  C     C_3   0.420093 0.379942 0.504120 -0.229044
C109  C     C_3   0.374609 0.418234 0.564150 -0.471559
C110  C     C_3   0.474352 0.663193 0.441012 0.013454
C111  C     C_3   0.435324 0.616156 0.483741 -0.249826
C112  C     C_R   0.650481 0.249920 0.698982 0.488295
C113  C     C_3   0.507457 0.695648 0.954576 0.123098
C114  C     C_3   0.434450 0.577898 0.432762 -0.484923
C115  C     C_3   0.048055 0.810868 0.119526 0.008549
C116  C     C_3   0.089113 0.791929 0.142804 -0.251867
C117  C     C_3   0.080283 0.824818 0.204826 -0.483845
C118  C     C_3   0.029715 0.159783 0.085617 0.055289
C119  C     C_3   0.046540 0.108371 0.101852 -0.254628
C120  C     C_3   0.098068 0.113795 0.113526 -0.501509
C121  C     C_3   0.467424 0.368759 0.121285 0.014361
C122  C     C_3   0.470172 0.419539 0.085751 -0.274551
C123  C     C_3   0.431645 0.460704 0.144444 -0.485822
C124  C     C_1   0.110122 0.750242 0.778321 -0.016145
C125  C     C_3   0.511207 0.647516 0.084705 0.056320
C126  C     C_3   0.517760 0.591915 0.099423 -0.255452
C127  C     C_3   0.569458 0.585148 0.110578 -0.498956
C128  C     C_3   0.147924 0.839661 0.914345 0.027138
C129  C     C_3   0.219583 0.835241 0.858401 -0.253609
C130  C     C_3   0.251775 0.885765 0.849884 -0.505402
C131  C     C_3   0.085634 0.126901 0.874277 0.001296
C132  C     C_3   0.050286 0.077097 0.909926 -0.247784
C133  C     C_3   0.067073 0.037161 0.851074 -0.497613
C134  C     C_3   0.586804 0.373595 0.897888 0.024325
C135  C     C_1   0.111752 0.249601 0.778150 0.003421
C136  C     C_3   0.617953 0.372060 0.814300 -0.271764
C137  C     C_3   0.631893 0.425427 0.781580 -0.494652
C138  C     C_3   0.565645 0.628079 0.870493 0.000377
C139  C     C_3   0.523486 0.580965 0.901513 -0.252976
C140  C     C_3   0.530188 0.549839 0.839392 -0.492353
C141  C     C_1   0.609557 0.248088 0.778111 -0.016898
C142  C     C_1   0.610796 0.750488 0.778151 -0.004464
C143  C     C_3   0.963876 0.750362 0.073246 -0.036902
C144  C     C_3   0.964472 0.249201 0.073460 -0.056520
C145  C     C_3   0.462140 0.249745 0.073056 -0.031235
C146  C     C_3   0.464071 0.749321 0.073482 -0.056363
C147  C     C_3   0.045889 0.699986 0.955873 0.181146
C148  C     C_R   0.150765 0.249955 0.698910 0.493181
C149  C     C_3   0.074388 0.270109 0.956917 0.138254
C150  C     C_3   0.565481 0.215213 0.957352 0.143740
C151  C     C_3   0.576580 0.761575 0.956344 0.136241
C152  C     C_3   0.034643 0.750300 0.926773 0.082055
C153  C     C_3   0.037650 0.249299 0.926620 0.115690
C154  C     C_3   0.532758 0.243773 0.926534 0.090249
C155  C     C_3   0.536488 0.750260 0.926618 0.114413
C156  C     C_3   0.961094 0.753071 0.960048 0.477284
C157  C     C_3   0.976007 0.282232 0.956517 0.493226
C158  C     C_3   0.465371 0.219813 0.958399 0.499848
C159  C     C_R   0.150443 0.750110 0.699034 0.489384
C160  C     C_3   0.480732 0.790492 0.957614 0.494881
C161  C     C_3   0.923239 0.763369 0.045270 -0.193921
C162  C     C_3   0.933640 0.282318 0.044822 -0.235445
C163  C     C_3   0.426529 0.222276 0.046468 -0.217325
C164  C     C_3   0.439520 0.790376 0.045879 -0.234874
C165  C     C_R   0.849538 0.749803 0.300959 0.495252
C166  C     C_R   0.849505 0.249939 0.301074 0.496857
C167  C     C_R   0.349702 0.250092 0.300949 0.501160
C168  C     C_R   0.349566 0.749868 0.301077 0.500128
C169  C     C_1   0.075890 0.750369 0.845070 0.002805
C170  C     C_2   0.949498 0.753465 0.490866 0.226879
C171  C     C_1   0.078782 0.249328 0.844869 0.051169
C172  C     C_1   0.575000 0.245797 0.844767 0.013719
C173  C     C_1   0.577362 0.750541 0.844884 0.043611
C174  C     C_1   0.922992 0.749573 0.154834 -0.064765
C175  C     C_1   0.923334 0.249434 0.155029 -0.047122
C176  C     C_1   0.422137 0.250621 0.154817 -0.058738
C177  C     C_1   0.423344 0.749238 0.155045 -0.045637
C178  C     C_1   0.889369 0.749471 0.221621 -0.012648
C179  C     C_1   0.889514 0.249641 0.221776 0.003879
C180  C     C_1   0.389339 0.250322 0.221599 -0.013152
C181  C     C_2   0.947649 0.246146 0.492971 0.258459
C182  C     C_1   0.389629 0.749455 0.221788 0.005869
C183  C     C_2   0.746220 0.027976 0.453980 -0.168303
C184  C     C_2   0.743424 0.971938 0.456154 -0.168965
C185  C     C_2   0.247048 0.527980 0.453335 -0.168076
C186  C     C_2   0.244231 0.471940 0.455487 -0.168491
C187  C     C_2   0.748143 0.056079 0.502892 -0.101822
C188  C     C_2   0.753223 0.943902 0.498748 -0.099888
C189  C     C_2   0.248488 0.556070 0.502609 -0.103421
C190  C     C_2   0.253604 0.443895 0.498443 -0.099025
C191  C     C_2   0.790306 0.473006 0.488838 0.257432
C192  C     C_2   0.449467 0.254281 0.490799 0.225460
C193  C     C_2   0.778985 0.527840 0.508399 0.265216
C194  C     C_2   0.299762 0.972291 0.461618 0.250486
C195  C     C_2   0.299193 0.027539 0.474702 0.274111
C196  C     C_2   0.742290 0.444078 0.502634 0.285778
C197  C     C_2   0.753304 0.557755 0.483517 0.312518
C198  C     C_2   0.252110 0.942886 0.514532 0.267501
C199  C     C_2   0.249363 0.056348 0.491927 0.295118
C200  C     C_R   0.750551 0.611854 0.498256 0.539613
C201  C     C_R   0.748708 0.388563 0.499799 0.510417
C202  C     C_R   0.250147 0.111431 0.499198 0.515332
C203  C     C_2   0.448397 0.745501 0.491140 0.253661
C204  C     C_R   0.250132 0.888624 0.501249 0.525511
C205  C     C_R   0.750428 0.888656 0.499742 0.506430
C206  C     C_R   0.749936 0.111340 0.500119 0.503716
C207  C     C_R   0.250512 0.388657 0.499674 0.507875
C208  C     C_R   0.250035 0.611338 0.500037 0.502463
C209  C     C_R   0.610756 0.750877 0.501294 0.507327
C210  C     C_R   0.610516 0.248918 0.501837 0.510985
C211  C     C_R   0.110786 0.250928 0.501229 0.519509
C212  C     C_R   0.110470 0.748929 0.501840 0.514458
C213  C     C_R   0.889684 0.750601 0.498561 0.544607
C214  C     C_3   0.996114 0.697430 0.041788 -0.175357
C215  C     C_R   0.888849 0.249753 0.499547 0.524463
C216  C     C_R   0.389776 0.250840 0.498338 0.534240
C217  C     C_R   0.388935 0.749582 0.499269 0.521256
C218  C     C_2   0.040263 0.708634 0.476529 0.250564
C219  C     C_2   0.043183 0.286262 0.468101 0.250954
C220  C     C_2   0.541391 0.209687 0.474349 0.248575
C221  C     C_2   0.541495 0.787006 0.470919 0.260090
C222  C     C_2   0.051745 0.745683 0.509003 -0.076577
C223  C     C_2   0.050729 0.257242 0.511997 -0.081666
C224  C     C_2   0.552310 0.246251 0.507961 -0.086189
H1    H     H_    0.012977 0.618471 0.525063 0.156616
H2    H     H_    0.142969 0.383171 0.303940 0.162327
H3    H     H_    0.798699 0.825562 0.825491 0.143649
H4    H     H_    0.014939 0.839932 0.868973 0.136188
H5    H     H_    0.954179 0.855934 0.967080 0.106663
H6    H     H_    0.936714 0.853944 0.842706 0.171344
H7    H     H_    0.877153 0.869356 0.938978 0.167681
H8    H     H_    0.943206 0.943055 0.928749 0.142396
H9    H     H_    0.922583 0.947895 0.864775 0.148307
H10   H     H_    0.001068 0.927966 0.831265 0.146066
H11   H     H_    0.918144 0.312028 0.890396 0.181035
H12   H     H_    0.867169 0.308222 0.990974 0.119343
H13   H     H_    0.058144 0.385740 0.362972 0.205209
H14   H     H_    0.878008 0.228187 0.882904 0.177778
H15   H     H_    0.827899 0.224052 0.982844 0.162971
H16   H     H_    0.770813 0.303521 0.990688 0.147164
H17   H     H_    0.767899 0.254838 0.935600 0.157615
H18   H     H_    0.821210 0.307714 0.890257 0.146740
H19   H     H_    0.363680 0.275990 0.933786 0.143400
H20   H     H_    0.354946 0.282188 0.017228 0.105151
H21   H     H_    0.348256 0.184074 0.943076 0.159199
H22   H     H_    0.343830 0.180995 0.026416 0.185132
H23   H     H_    0.248477 0.237536 0.090962 0.151225
H24   H     H_    0.060565 0.461587 0.429552 0.143743
H25   H     H_    0.237726 0.180316 0.054798 0.142810
H26   H     H_    0.252735 0.239851 0.006897 0.142453
H27   H     H_    0.422375 0.831463 0.893570 0.174375
H28   H     H_    0.380433 0.834101 0.993242 0.123968
H29   H     H_    0.359409 0.756333 0.906603 0.171995
H30   H     H_    0.320441 0.755766 0.005547 0.163424
H31   H     H_    0.274828 0.842300 0.016850 0.141989
H32   H     H_    0.253235 0.797005 0.974718 0.151995
H33   H     H_    0.314259 0.843051 0.917393 0.146159
H34   H     H_    0.745577 0.046496 0.410929 0.147193
H35   H     H_    0.104585 0.472789 0.331160 0.147554
H36   H     H_    0.733685 0.953375 0.420357 0.143502
H37   H     H_    0.246671 0.546524 0.410113 0.147061
H38   H     H_    0.234718 0.453388 0.419478 0.140884
H39   H     H_    0.747559 0.039189 0.547473 0.102994
H40   H     H_    0.765025 0.960847 0.533293 0.098858
H41   H     H_    0.247678 0.539164 0.547335 0.101237
H42   H     H_    0.265326 0.460826 0.533079 0.097657
H43   H     H_    0.905393 0.508984 0.400874 0.149028
H44   H     H_    0.883735 0.463694 0.357756 0.129635
H45   H     H_    0.968773 0.442554 0.407901 0.174695
H46   H     H_    0.146186 0.458672 0.370888 0.142578
H47   H     H_    0.945142 0.395970 0.369263 0.219992
H48   H     H_    0.996056 0.450579 0.253079 0.147104
H49   H     H_    0.050855 0.427059 0.270300 0.146107
H50   H     H_    0.024560 0.492315 0.292076 0.145931
H51   H     H_    0.778410 0.488345 0.617119 0.154484
H52   H     H_    0.714512 0.533261 0.647047 0.128519
H53   H     H_    0.835138 0.555126 0.636216 0.176896
H54   H     H_    0.772079 0.599805 0.664955 0.173298
H55   H     H_    0.695832 0.542222 0.771299 0.139571
H56   H     H_    0.759941 0.562339 0.774378 0.146376
H57   H     H_    0.510127 0.118813 0.522826 0.147309
H58   H     H_    0.760402 0.498877 0.743059 0.143556
H59   H     H_    0.418747 0.907030 0.362510 0.178808
H60   H     H_    0.404581 0.956684 0.425161 0.117927
H61   H     H_    0.455797 0.966862 0.260239 0.159708
H62   H     H_    0.434924 0.020400 0.321183 0.204313
H63   H     H_    0.513321 0.992177 0.343973 0.145817
H64   H     H_    0.550134 0.002081 0.246458 0.144235
H65   H     H_    0.534648 0.938129 0.282571 0.149378
H66   H     H_    0.409930 0.037685 0.492748 0.148511
H67   H     H_    0.336048 0.005952 0.548913 0.093016
H68   H     H_    0.560761 0.145653 0.545180 0.116706
H69   H     H_    0.352879 0.123149 0.538413 0.224892
H70   H     H_    0.280212 0.089319 0.601098 0.139070
H71   H     H_    0.323942 0.050475 0.663358 0.134631
H72   H     H_    0.329574 0.118853 0.662490 0.138780
H73   H     H_    0.399132 0.081206 0.598321 0.148110
H74   H     H_    0.015805 0.773570 0.545328 0.087582
H75   H     H_    0.010052 0.239219 0.560750 0.108820
H76   H     H_    0.516649 0.274184 0.544226 0.089099
H77   H     H_    0.511196 0.735353 0.557919 0.103273
H78   H     H_    0.604381 0.472534 0.537285 0.136601
H79   H     H_    0.598833 0.066666 0.422941 0.159474
H80   H     H_    0.617940 0.411267 0.555512 0.166634
H81   H     H_    0.697603 0.466004 0.402057 0.197312
H82   H     H_    0.709934 0.401365 0.416692 0.146272
H83   H     H_    0.601008 0.378927 0.459126 0.169414
H84   H     H_    0.648155 0.404582 0.366351 0.152261
H85   H     H_    0.588748 0.443956 0.442906 0.134554
H86   H     H_    0.739154 0.557713 0.347346 0.136038
H87   H     H_    0.749720 0.610443 0.387717 0.125388
H88   H     H_    0.630195 0.543700 0.453584 0.150180
H89   H     H_    0.634964 0.591156 0.507906 0.200337
H90   H     H_    0.651643 0.094917 0.440092 0.198579
H91   H     H_    0.655869 0.657640 0.413596 0.164545
H92   H     H_    0.580673 0.626446 0.457703 0.170141
H93   H     H_    0.645603 0.608842 0.364207 0.132188
H94   H     H_    0.227806 0.977082 0.654803 0.127501
H95   H     H_    0.241889 0.912221 0.622432 0.102006
H96   H     H_    0.112215 0.964614 0.727007 0.170468
H97   H     H_    0.124233 0.900666 0.691389 0.197070
H98   H     H_    0.175151 0.875508 0.751737 0.153284
H99   H     H_    0.098369 0.903203 0.818981 0.127586
H100  H     H_    0.168252 0.940156 0.784427 0.135534
H101  H     H_    0.586998 0.059758 0.569191 0.153569
H102  H     H_    0.241036 0.023699 0.390986 0.126592
H103  H     H_    0.194382 0.081516 0.430888 0.112503
H104  H     H_    0.095799 0.030583 0.502018 0.174758
H105  H     H_    0.140263 0.020675 0.403337 0.102388
H106  H     H_    0.185627 0.939318 0.415694 0.147272
H107  H     H_    0.100708 0.938539 0.467651 0.118825
H108  H     H_    0.136150 0.948627 0.515474 0.220110
H109  H     H_    0.044524 0.640428 0.370391 0.170818
H110  H     H_    0.996651 0.685275 0.362245 0.146095
H111  H     H_    0.971723 0.571980 0.404433 0.152200
H112  H     H_    0.070097 0.643162 0.538473 0.123023
H113  H     H_    0.614244 0.010038 0.500737 0.151377
H114  H     H_    0.912076 0.614404 0.416990 0.242098
H115  H     H_    0.981801 0.635815 0.281215 0.165044
H116  H     H_    0.965157 0.568837 0.296752 0.139077
H117  H     H_    0.041129 0.592016 0.268402 0.136707
H118  H     H_    0.950448 0.405102 0.522804 0.148185
H119  H     H_    0.949941 0.353348 0.574947 0.088520
H120  H     H_    0.846143 0.376365 0.552769 0.224488
H121  H     H_    0.844445 0.325855 0.608518 0.145621
H122  H     H_    0.845465 0.388912 0.690965 0.145410
H123  H     H_    0.780698 0.401255 0.685244 0.139908
H124  H     H_    0.533327 0.031542 0.552631 0.134470
H125  H     H_    0.850311 0.440565 0.634181 0.151694
H126  H     H_    0.556549 0.151709 0.353365 0.176044
H127  H     H_    0.509229 0.200297 0.349797 0.140916
H128  H     H_    0.482156 0.085370 0.372765 0.173616
H129  H     H_    0.430575 0.132728 0.376067 0.245708
H130  H     H_    0.517284 0.158557 0.245198 0.155241
H131  H     H_    0.496528 0.092628 0.251375 0.146151
H132  H     H_    0.567621 0.109368 0.241816 0.140095
H133  H     H_    0.441420 0.854416 0.587617 0.103500
H134  H     H_    0.374342 0.825039 0.597495 0.121530
H135  H     H_    0.631990 0.871356 0.430874 0.163263
H136  H     H_    0.425933 0.932370 0.536353 0.151388
H137  H     H_    0.360156 0.902894 0.544372 0.157393
H138  H     H_    0.303079 0.895402 0.682250 0.144216
H139  H     H_    0.323023 0.960382 0.651905 0.124885
H140  H     H_    0.369010 0.925426 0.674117 0.147172
H141  H     H_    0.972233 0.859090 0.539212 0.137823
H142  H     H_    0.900869 0.825580 0.578884 0.138058
H143  H     H_    0.970548 0.895408 0.439748 0.155282
H144  H     H_    0.902236 0.859198 0.466703 0.184202
H145  H     H_    0.838639 0.904155 0.589777 0.169783
H146  H     H_    0.547747 0.876464 0.486906 0.117652
H147  H     H_    0.873076 0.948109 0.513276 0.135805
H148  H     H_    0.907605 0.940747 0.562776 0.134776
H149  H     H_    0.026654 0.152099 0.410980 0.145632
H150  H     H_    0.964000 0.177946 0.410300 0.109420
H151  H     H_    0.952607 0.098798 0.520189 0.166583
H152  H     H_    0.886163 0.126564 0.527711 0.205293
H153  H     H_    0.926056 0.091908 0.402548 0.150295
H154  H     H_    0.914605 0.042189 0.465038 0.144567
H155  H     H_    0.993413 0.064087 0.394145 0.139937
H156  H     H_    0.466624 0.355696 0.552525 0.128425
H157  H     H_    0.637875 0.889266 0.316631 0.172118
H158  H     H_    0.396797 0.321055 0.587297 0.137814
H159  H     H_    0.463360 0.400204 0.459402 0.153253
H160  H     H_    0.397622 0.363325 0.479258 0.191562
H161  H     H_    0.330151 0.399066 0.608350 0.168439
H162  H     H_    0.363048 0.448622 0.539312 0.135537
H163  H     H_    0.396520 0.436042 0.589022 0.130148
H164  H     H_    0.524244 0.651101 0.399784 0.141058
H165  H     H_    0.458615 0.679191 0.408058 0.114187
H166  H     H_    0.455704 0.597543 0.510006 0.157061
H167  H     H_    0.386008 0.627691 0.528442 0.204840
H168  H     H_    0.552984 0.894777 0.372955 0.196284
H169  H     H_    0.412548 0.595304 0.407558 0.151694
H170  H     H_    0.406267 0.544154 0.465413 0.143217
H171  H     H_    0.483250 0.565156 0.388003 0.139093
H172  H     H_    0.093737 0.702244 0.943587 0.165414
H173  H     H_    0.111113 0.241341 0.943907 0.134295
H174  H     H_    0.608892 0.237125 0.937854 0.189032
H175  H     H_    0.608724 0.728447 0.942302 0.134570
H176  H     H_    0.019741 0.684800 0.067441 0.122058
H177  H     H_    0.051880 0.257961 0.067481 0.067477
H178  H     H_    0.550938 0.241290 0.060118 0.150492
H179  H     H_    0.556070 0.967906 0.441725 0.144324
H180  H     H_    0.552213 0.742005 0.066082 0.069408
H181  H     H_    0.992649 0.829495 0.066357 0.044810
H182  H     H_    0.925010 0.185018 0.055175 0.122088
H183  H     H_    0.433166 0.322989 0.056198 0.052453
H184  H     H_    0.413565 0.695790 0.054564 0.123219
H185  H     H_    0.997887 0.810904 0.169083 0.132673
H186  H     H_    0.061881 0.850512 0.098550 0.105960
H187  H     H_    0.076355 0.751966 0.162471 0.170286
H188  H     H_    0.139573 0.792685 0.094114 0.166382
H189  H     H_    0.093579 0.864860 0.186070 0.138806
H190  H     H_    0.606197 0.979726 0.343042 0.144564
H191  H     H_    0.110893 0.810121 0.220180 0.156266
H192  H     H_    0.030348 0.823679 0.254724 0.153427
H193  H     H_    0.012385 0.185020 0.134159 0.128772
H194  H     H_    0.073307 0.175442 0.035253 0.169208
H195  H     H_    0.003775 0.091777 0.152605 0.167829
H196  H     H_    0.063362 0.081896 0.054617 0.168958
H197  H     H_    0.141733 0.129410 0.062857 0.143012
H198  H     H_    0.109146 0.075866 0.125256 0.142823
H199  H     H_    0.081932 0.139492 0.161341 0.144134
H200  H     H_    0.484146 0.374934 0.156326 0.152375
H201  H     H_    0.641208 0.961415 0.389027 0.143520
H202  H     H_    0.417723 0.355406 0.159363 0.120955
H203  H     H_    0.520057 0.432175 0.047831 0.166268
H204  H     H_    0.451106 0.414606 0.052959 0.137080
H205  H     H_    0.381537 0.448891 0.183301 0.150580
H206  H     H_    0.433501 0.496584 0.116947 0.149344
H207  H     H_    0.451247 0.467987 0.176239 0.145255
H208  H     H_    0.498673 0.670346 0.133674 0.127071
H209  H     H_    0.557427 0.659853 0.034655 0.170844
H210  H     H_    0.472155 0.578677 0.150004 0.167786
H211  H     H_    0.529330 0.568008 0.051659 0.172529
H212  H     H_    0.042955 0.831485 0.943823 0.024213
H213  H     H_    0.615787 0.597223 0.060091 0.145503
H214  H     H_    0.572809 0.544399 0.121200 0.146023
H215  H     H_    0.558313 0.608034 0.158938 0.142526
H216  H     H_    0.136143 0.852042 0.968787 0.152873
H217  H     H_    0.131433 0.869248 0.893761 0.106785
H218  H     H_    0.237637 0.805564 0.877000 0.175128
H219  H     H_    0.231602 0.823459 0.803508 0.161309
H220  H     H_    0.236082 0.915505 0.828616 0.143506
H221  H     H_    0.303754 0.881016 0.809867 0.141547
H222  H     H_    0.240353 0.898386 0.904136 0.142401
H223  H     H_    0.096969 0.567463 0.416981 0.158429
H224  H     H_    0.990473 0.177484 0.935438 0.123176
H225  H     H_    0.137191 0.118837 0.839656 0.145696
H226  H     H_    0.075371 0.142005 0.835730 0.123686
H227  H     H_    0.063025 0.062126 0.946072 0.172682
H228  H     H_    0.998508 0.084197 0.944861 0.170161
H229  H     H_    0.052174 0.050305 0.816229 0.159625
H230  H     H_    0.042464 0.001022 0.878499 0.140379
H231  H     H_    0.118786 0.029775 0.815051 0.145139
H232  H     H_    0.617390 0.395691 0.907560 0.159753
H233  H     H_    0.540811 0.394309 0.927748 0.105668
H234  H     H_    0.662899 0.350052 0.785645 0.175034
H235  H     H_    0.497638 0.320547 0.932661 0.096419
H236  H     H_    0.585947 0.353014 0.804168 0.167648
H237  H     H_    0.587125 0.447051 0.807259 0.147898
H238  H     H_    0.655830 0.422932 0.720732 0.161759
H239  H     H_    0.663199 0.445853 0.791596 0.136934
H240  H     H_    0.615773 0.615381 0.835681 0.145307
H241  H     H_    0.558558 0.649522 0.832848 0.126581
H242  H     H_    0.536957 0.556913 0.931141 0.163151
H243  H     H_    0.473271 0.592646 0.941740 0.176429
H244  H     H_    0.513541 0.572397 0.811859 0.156623
H245  H     H_    0.501148 0.514891 0.862897 0.138869
H246  H     H_    0.477752 0.686714 0.935112 0.124683
H247  H     H_    0.580331 0.538744 0.797399 0.143745
H248  H     H_    0.879360 0.740130 0.075834 0.153984
H249  H     H_    0.921598 0.320321 0.071269 0.091193
H250  H     H_    0.416494 0.182802 0.068818 0.127454
H251  H     H_    0.435298 0.827413 0.072001 0.091867
H252  H     H_    0.906513 0.803393 0.059991 0.080170
H253  H     H_    0.886490 0.265993 0.067128 0.109536
H254  H     H_    0.379178 0.239676 0.075883 0.086468
H255  H     H_    0.154967 0.592600 0.427837 0.193697
H256  H     H_    0.389575 0.781269 0.069463 0.108660
H257  H     H_    0.971688 0.654156 0.868417 0.157581
H258  H     H_    0.982888 0.719159 0.841161 0.154578
H259  H     H_    0.855534 0.663131 0.941531 0.158787
H260  H     H_    0.862858 0.730066 0.920681 0.196640
H261  H     H_    0.922304 0.710407 0.785538 0.149964
H262  H     H_    0.846591 0.679214 0.838735 0.144203
H263  H     H_    0.917325 0.642873 0.804929 0.140654
H264  H     H_    0.033900 0.398260 0.915331 0.174048
H265  H     H_    1.000000 0.367177 0.000189 0.149287
H266  H     H_    0.096757 0.554157 0.554878 0.155427
H267  H     H_    0.929948 0.414785 0.940064 0.165197
H268  H     H_    0.890409 0.383716 0.028493 0.141208
H269  H     H_    0.934948 0.447198 0.069770 0.143422
H270  H     H_    0.889078 0.477214 0.043168 0.150320
H271  H     H_    0.974186 0.479039 0.981008 0.143289
H272  H     H_    0.501018 0.107642 0.868917 0.127718
H273  H     H_    0.556497 0.154843 0.841434 0.173658
H274  H     H_    0.438747 0.158879 0.840035 0.157936
H275  H     H_    0.494223 0.210522 0.807896 0.207751
H276  H     H_    0.580798 0.152979 0.712423 0.158417
H277  H     H_    0.119087 0.506702 0.484781 0.147556
H278  H     H_    0.517301 0.158724 0.702989 0.135614
H279  H     H_    0.524254 0.102001 0.743246 0.140373
H280  H     H_    0.558232 0.898185 0.913756 0.175580
H281  H     H_    0.520155 0.866518 0.998931 0.151935
H282  H     H_    0.455021 0.928296 0.942563 0.166861
H283  H     H_    0.414228 0.900099 0.033114 0.139325
H284  H     H_    0.475980 0.954589 0.061574 0.146254
H285  H     H_    0.431122 0.991719 0.039409 0.149578
H286  H     H_    0.515126 0.983969 0.971054 0.138058
H287  H     H_    0.959508 0.668541 0.056534 0.161563
H288  H     H_    0.038413 0.528886 0.543963 0.138392
H289  H     H_    0.021380 0.314760 0.060769 0.142721
H290  H     H_    0.511479 0.184013 0.075043 0.106011
H291  H     H_    0.532095 0.804435 0.060962 0.146430
H292  H     H_    0.059504 0.579930 0.915266 0.152636
H293  H     H_    0.088884 0.615603 0.956889 0.106714
H294  H     H_    0.137229 0.620180 0.791850 0.180885
H295  H     H_    0.169071 0.656648 0.830993 0.169003
H296  H     H_    0.198859 0.575977 0.863490 0.144924
H297  H     H_    0.234527 0.579827 0.765399 0.152723
H298  H     H_    0.167160 0.539236 0.823679 0.142261
H299  H     H_    0.144806 0.365972 0.410633 0.169094
H300  H     H_    0.185395 0.351247 0.845248 0.157063
H301  H     H_    0.188549 0.283535 0.845578 0.123173
H302  H     H_    0.171581 0.357379 0.965490 0.167229
H303  H     H_    0.173586 0.289031 0.970319 0.143354
H304  H     H_    0.282964 0.286999 0.852404 0.143408
H305  H     H_    0.277838 0.326193 0.922317 0.136404
H306  H     H_    0.281543 0.355800 0.846874 0.144292
H307  H     H_    0.565823 0.091511 0.931253 0.140325
H308  H     H_    0.508890 0.127295 0.009537 0.154353
H309  H     H_    0.642240 0.090417 0.956609 0.164917
H310  H     H_    0.061440 0.374559 0.474987 0.099791
H311  H     H_    0.603125 0.139253 0.025973 0.162028
H312  H     H_    0.510680 0.081068 0.106888 0.144655
H313  H     H_    0.583774 0.055077 0.084637 0.146081
H314  H     H_    0.551977 0.031453 0.037095 0.145885
H315  H     H_    0.696468 0.833135 0.838005 0.160430
H316  H     H_    0.688520 0.765767 0.839261 0.122197
H317  H     H_    0.695091 0.830538 0.951294 0.171153
H318  H     H_    0.688967 0.762165 0.953155 0.145967
H319  H     H_    0.792243 0.756864 0.826522 0.144527
H320  H     H_    0.799842 0.788564 0.892749 0.149453
O1    O     O_3   0.750030 0.750030 0.500000 -0.434184
O2    O     O_R   0.758570 0.135390 0.542990 -0.549611
O3    O     O_R   0.258570 0.364610 0.542990 -0.548881
O4    O     O_R   0.258570 0.635390 0.542990 -0.551115
O5    O     O_R   0.638020 0.720010 0.663980 -0.540241
O6    O     O_R   0.638020 0.279990 0.663980 -0.545553
O7    O     O_R   0.138020 0.220010 0.663980 -0.539163
O8    O     O_R   0.138020 0.779990 0.663980 -0.550710
O9    O     O_R   0.801960 0.780050 0.336020 -0.534709
O10   O     O_R   0.801960 0.219950 0.336020 -0.531860
O11   O     O_R   0.301960 0.280050 0.336020 -0.538473
O12   O     O_3   0.750030 0.249970 0.500000 -0.440153
O13   O     O_R   0.301960 0.719950 0.336020 -0.531986
O14   O     O_R   0.698090 0.780090 0.663980 -0.539363
O15   O     O_R   0.698090 0.219910 0.663980 -0.532692
O16   O     O_R   0.198090 0.280090 0.663980 -0.542677
O17   O     O_R   0.198090 0.719910 0.663980 -0.540303
O18   O     O_R   0.862050 0.719970 0.336020 -0.554690
O19   O     O_R   0.862050 0.280030 0.336020 -0.548683
O20   O     O_R   0.362050 0.219970 0.336020 -0.549725
O21   O     O_R   0.362050 0.780030 0.336020 -0.541726
O22   O     O_R   0.698510 0.635460 0.542990 -0.560692
O23   O     O_3   0.250030 0.250030 0.500000 -0.437271
O24   O     O_R   0.698510 0.364540 0.542990 -0.562265
O25   O     O_R   0.198510 0.135460 0.542990 -0.526161
O26   O     O_R   0.198510 0.864540 0.542990 -0.542353
O27   O     O_R   0.741470 0.864610 0.457010 -0.550836
O28   O     O_R   0.741470 0.135390 0.457010 -0.547427
O29   O     O_R   0.241470 0.364610 0.457010 -0.553524
O30   O     O_R   0.241470 0.635390 0.457010 -0.546795
O31   O     O_R   0.613960 0.720010 0.542990 -0.554529
O32   O     O_R   0.613960 0.279990 0.542990 -0.567658
O33   O     O_R   0.113960 0.220010 0.542990 -0.543577
O34   O     O_3   0.250030 0.749970 0.500000 -0.440275
O35   O     O_R   0.113960 0.779990 0.542990 -0.559362
O36   O     O_R   0.843120 0.780070 0.542990 -0.571588
O37   O     O_R   0.843120 0.219930 0.542990 -0.548259
O38   O     O_R   0.343120 0.280070 0.542990 -0.571950
O39   O     O_R   0.343120 0.719930 0.542990 -0.554889
O40   O     O_R   0.656940 0.780080 0.457010 -0.508263
O41   O     O_R   0.656940 0.219920 0.457010 -0.485156
O42   O     O_R   0.156940 0.280080 0.457010 -0.514093
O43   O     O_R   0.156940 0.719920 0.457010 -0.486679
O44   O     O_R   0.886110 0.719980 0.457010 -0.528266
O45   O     O_R   0.801570 0.635440 0.457010 -0.560017
O46   O     O_R   0.886110 0.280020 0.457010 -0.521947
O47   O     O_R   0.386110 0.219980 0.457010 -0.534726
O48   O     O_R   0.386110 0.780020 0.457010 -0.526344
O49   O     O_3   0.081324 0.667517 0.442492 -0.552594
O50   O     O_3   0.094493 0.308802 0.404539 -0.539228
O51   O     O_3   0.580958 0.167479 0.443294 -0.546170
O52   O     O_3   0.590889 0.813706 0.410941 -0.536865
O53   O     O_3   0.941020 0.703551 0.955261 -0.526912
O54   O     O_3   0.994733 0.330581 0.918768 -0.545462
O55   O     O_3   0.465753 0.166857 0.941616 -0.579978
O56   O     O_R   0.801570 0.364560 0.457010 -0.525400
O57   O     O_3   0.506767 0.838155 0.919551 -0.544221
O58   O     O_3   0.041273 0.656343 0.921542 -0.564143
O59   O     O_3   0.101172 0.318557 0.926126 -0.585330
O60   O     O_3   0.589838 0.166407 0.922896 -0.589199
O61   O     O_3   0.610610 0.807811 0.926648 -0.588853
O62   O     O_3   0.942100 0.788273 0.927178 -0.588264
O63   O     O_3   0.942104 0.255414 0.934648 -0.606119
O64   O     O_3   0.439299 0.249045 0.927931 -0.607460
O65   O     O_3   0.441914 0.771481 0.937325 -0.606194
O66   O     O_3   0.846302 0.450741 0.469021 -0.589848
O67   O     O_R   0.301570 0.135440 0.457010 -0.547210
O68   O     O_3   0.800848 0.549327 0.546206 -0.594349
O69   O     O_3   0.343920 0.952834 0.390823 -0.587860
O70   O     O_3   0.353524 0.050236 0.458887 -0.609959
O71   O     O_3   0.683307 0.467683 0.534389 -0.593343
O72   O     O_3   0.743394 0.537621 0.432830 -0.613087
O73   O     O_3   0.204485 0.963609 0.583029 -0.567208
O74   O     O_3   0.195759 0.034249 0.504865 -0.545733
O75   O     O_3   0.961032 0.663484 0.470968 -0.582161
O76   O     O_3   0.959767 0.335745 0.475058 -0.581101
O77   O     O_3   0.469583 0.166755 0.454165 -0.589191
O78   O     O_R   0.301570 0.864560 0.457010 -0.537551
O79   O     O_3   0.453670 0.836138 0.488663 -0.580675
O80   O     O_3   0.981129 0.799826 0.474052 -0.631114
O81   O     O_3   0.968038 0.199053 0.500227 -0.622360
O82   O     O_3   0.478122 0.301582 0.479283 -0.630687
O83   O     O_3   0.472688 0.698064 0.490810 -0.629842
O84   O     O_3   0.057153 0.778404 0.063264 -0.537196
O85   O     O_3   0.981408 0.152565 0.076342 -0.550257
O86   O     O_3   0.508201 0.332292 0.066117 -0.529152
O87   O     O_3   0.462265 0.651078 0.075849 -0.551655
O88   O     O_3   0.120923 0.791469 0.921434 -0.552012
O89   O     O_R   0.758570 0.864610 0.542990 -0.549646
O90   O     O_3   0.072301 0.162466 0.929664 -0.597906
O91   O     O_3   0.581751 0.323717 0.924982 -0.553110
O92   O     O_3   0.555904 0.658398 0.929035 -0.597547
Zn1   Zn    Zn3+2 0.823660 0.707100 0.438580 0.921196
Zn2   Zn    Zn3+2 0.737810 0.207050 0.438580 0.941790
Zn3   Zn    Zn3+2 0.237810 0.292950 0.438580 0.925173
Zn4   Zn    Zn3+2 0.237810 0.707050 0.438580 0.945002
Zn5   Zn    Zn3+2 0.762240 0.792950 0.561420 0.913904
Zn6   Zn    Zn3+2 0.762240 0.207050 0.561420 0.918800
Zn7   Zn    Zn3+2 0.262240 0.292950 0.561420 0.905042
Zn8   Zn    Zn3+2 0.262240 0.707050 0.561420 0.907246
Zn9   Zn    Zn3+2 0.823660 0.292900 0.438580 0.931856
Zn10  Zn    Zn3+2 0.323660 0.207100 0.438580 0.914143
Zn11  Zn    Zn3+2 0.323660 0.792900 0.438580 0.935661
Zn12  Zn    Zn3+2 0.676410 0.707120 0.561420 0.923199
Zn13  Zn    Zn3+2 0.676410 0.292880 0.561420 0.903160
Zn14  Zn    Zn3+2 0.176410 0.207120 0.561420 0.940038
Zn15  Zn    Zn3+2 0.176410 0.792880 0.561420 0.914346
Zn16  Zn    Zn3+2 0.737810 0.792950 0.438580 0.927080

loop_
_geom_bond_atom_site_label_1
_geom_bond_atom_site_label_2
_ccdc_geom_bond_type
C103  H147  S    
C20   H190  S    
C215  O46   A    
C126  C127  S    
C68   H184  S    
C57   C145  S    
C19   C20   S    
C162  H253  S    
C93   H123  S    
C147  C214  S    
C106  H154  S    
C126  H211  S    
C10   H277  S    
C108  H160  S    
C194  O69   S    
C101  O91   S    
C41   H308  S    
O56   Zn9   S    
C154  C158  S    
C14   H35   S    
C31   H280  S    
C192  O82   S    
C28   H273  S    
C215  O37   A    
O13   Zn4   S    
O12   Zn6   S    
C177  C182  T    
C15   H68   S    
C108  C109  S    
C27   H269  S    
C134  H233  S    
C51   H11   S    
C163  H254  S    
C55   H21   S    
C66   H58   S    
C99   H138  S    
C149  C153  S    
C110  C111  S    
C61   H43   S    
C7    C203  D    
C166  O19   A    
C52   H15   S    
C152  C156  S    
C123  H207  S    
C131  O90   S    
C146  C177  S    
C151  C155  S    
C54   O64   S    
C154  C172  S    
C210  O32   A    
C150  H174  S    
C69   H62   S    
C59   C60   S    
C21   C22   S    
C28   H272  S    
O44   Zn1   S    
C90   O90   S    
C111  H167  S    
C58   O65   S    
C40   H305  S    
C113  C155  S    
C57   H183  S    
C53   H16   S    
C104  C105  S    
C17   H113  S    
O32   Zn13  S    
C114  H170  S    
C11   O50   S    
C94   H127  S    
C188  C205  S    
C210  C224  S    
C203  C217  S    
C73   H73   S    
C51   C52   S    
C86   H108  S    
C67   H59   S    
C122  H203  S    
C207  O29   A    
C197  O72   S    
C11   H299  S    
C81   H95   S    
C35   H181  S    
C82   H96   S    
C114  H171  S    
C120  H199  S    
C26   H267  S    
C186  C190  D    
C50   H9    S    
C183  C184  S    
C118  H193  S    
C133  H230  S    
C24   C151  S    
C127  H215  S    
C95   H128  S    
C128  H216  S    
C29   H274  S    
C211  C223  S    
C56   H25   S    
C18   H146  S    
C209  O40   A    
O1    Zn1   S    
O5    Zn12  S    
C23   H261  S    
C90   C153  S    
C21   H258  S    
C32   H283  S    
C103  H145  S    
C83   H99   S    
O23   Zn7   S    
C198  C204  S    
C130  H220  S    
C217  O48   A    
C205  O89   A    
C109  H162  S    
C68   C146  S    
C8    H112  S    
C168  O21   A    
C75   H82   S    
C209  O31   A    
C84   H102  S    
C87   H109  S    
C43   H312  S    
C195  O70   S    
O89   Zn5   S    
C72   C73   S    
C110  H165  S    
C210  O41   A    
C134  C136  S    
C139  C140  S    
C39   H302  S    
O23   Zn10  S    
C97   H134  S    
C130  H221  S    
C20   H201  S    
C80   H92   S    
C25   H265  S    
C129  H218  S    
C64   C65   S    
C5    C219  S    
C17   H124  S    
C146  C164  S    
C135  C148  S    
C165  C178  S    
C123  H205  S    
C91   H118  S    
C138  O92   S    
C141  C172  T    
C69   C70   S    
C118  O85   S    
C30   H279  S    
O10   Zn2   S    
C117  H189  S    
O34   Zn11  S    
C88   C89   S    
C193  O68   S    
C156  O62   S    
C70   H63   S    
C24   H180  S    
C119  H195  S    
C83   H100  S    
C22   C23   S    
C158  O64   S    
C139  H243  S    
C167  O11   A    
C157  C162  S    
C143  C161  S    
O34   Zn8   S    
C115  H185  S    
C115  O84   S    
C74   O71   S    
C76   H84   S    
C59   H29   S    
C43   H314  S    
C2    C144  S    
C9    H255  S    
O21   Zn11  S    
C13   C145  S    
C128  C129  S    
C97   C98   S    
C170  C213  S    
C212  C222  S    
C85   C86   S    
C186  H38   S    
C140  H244  S    
O23   Zn14  S    
C4    C170  D    
O27   Zn16  S    
C36   C37   S    
C161  H248  S    
C53   H17   S    
C92   H120  S    
C206  O28   A    
C147  C152  S    
C115  H186  S    
C125  H209  S    
C38   C39   S    
C7    C221  S    
C78   C80   S    
C1    O14   A    
C131  H226  S    
C189  C208  S    
C115  C116  S    
C60   H32   S    
C204  O26   A    
C50   H10   S    
C49   H6    S    
C148  O7    A    
C92   C93   S    
C1    C142  S    
C213  O44   A    
C102  C103  S    
C214  H287  S    
C191  C196  D    
C208  O30   A    
C63   H49   S    
C118  H194  S    
O34   Zn15  S    
C31   C32   S    
C199  C202  S    
C84   O74   S    
C107  C108  S    
C50   H8    S    
C44   O61   S    
C191  O66   S    
O35   Zn15  S    
C9    C10   S    
C138  H241  S    
C104  H150  S    
C160  O57   S    
C52   H14   S    
C202  O25   A    
C33   H285  S    
C89   H115  S    
C47   H319  S    
C189  H41   S    
C58   H27   S    
C148  O16   A    
C48   H4    S    
C211  O42   A    
C142  C173  T    
C195  C199  D    
C37   H298  S    
C64   H51   S    
C4    O75   S    
C21   O53   S    
C27   H271  S    
C8    O49   S    
C163  H250  S    
C151  O61   S    
C161  H252  S    
C91   C92   S    
C132  H228  S    
C201  O24   A    
C79   H212  S    
C105  H151  S    
C220  O51   S    
C46   C144  S    
C145  C163  S    
C25   C26   S    
C223  H75   S    
O67   Zn10  S    
C2    H177  S    
C112  C141  S    
C211  O33   A    
C107  O82   S    
C29   C30   S    
C117  H191  S    
C12   H2    S    
O42   Zn3   S    
C183  H34   S    
C79   O88   S    
C83   H98   S    
C136  H234  S    
C120  H198  S    
C66   H55   S    
C137  H237  S    
C134  H232  S    
C165  O18   A    
C98   H137  S    
C158  C163  S    
C6    C220  S    
C48   H5    S    
C77   H87   S    
C156  C161  S    
C98   C99   S    
C4    C218  S    
C205  O27   A    
C44   H316  S    
C32   H282  S    
C65   H54   S    
C52   C53   S    
C129  C130  S    
C199  O74   S    
C216  O38   A    
C156  O53   S    
O47   Zn10  S    
C38   H300  S    
C54   C55   S    
C116  H187  S    
C97   O79   S    
C158  O55   S    
C91   O76   S    
C12   C14   S    
C93   H122  S    
C106  H155  S    
C218  O49   S    
C87   H110  S    
C185  C189  D    
C57   C101  S    
C62   H47   S    
C94   O77   S    
C78   H88   S    
C41   H307  S    
C54   H19   S    
C71   C72   S    
O30   Zn4   S    
O24   Zn13  S    
O16   Zn7   S    
C102  H143  S    
C194  C198  D    
C113  O92   S    
C13   H178  S    
C35   C79   S    
O38   Zn7   S    
C7    O79   S    
O25   Zn14  S    
C167  C180  S    
C34   C36   S    
C61   C62   S    
C88   H111  S    
C128  H217  S    
C39   C40   S    
C190  C207  S    
O40   Zn16  S    
C47   H3    S    
C160  O65   S    
O2    Zn6   S    
C89   H117  S    
C49   C50   S    
C170  O80   S    
C147  H172  S    
C77   O72   S    
C91   H119  S    
C22   H259  S    
C196  C201  S    
C61   O66   S    
C19   H157  S    
C45   H318  S    
C51   O63   S    
C79   C152  S    
C5    O76   S    
C3    C209  S    
C69   H61   S    
C13   H290  S    
C41   C42   S    
C164  H256  S    
C40   H306  S    
C221  O52   S    
C167  O20   A    
C20   H179  S    
C45   H317  S    
C16   H90   S    
C77   C78   S    
C26   C27   S    
C184  H36   S    
C134  O91   S    
C73   H72   S    
C160  C164  S    
C212  O43   A    
C28   C29   S    
C46   H182  S    
C13   C150  S    
C122  H204  S    
C81   H94   S    
C216  O47   A    
O41   Zn2   S    
C96   H132  S    
C136  H236  S    
C18   C19   S    
C137  H239  S    
C26   H268  S    
C157  O63   S    
C86   H106  S    
C121  O86   S    
C133  H229  S    
O39   Zn8   S    
C208  O4    A    
C124  C169  T    
C107  H158  S    
C16   C17   S    
C55   H22   S    
C56   H26   S    
C95   H129  S    
C74   H80   S    
C200  O45   A    
C71   H66   S    
C135  C171  T    
C21   H257  S    
C72   H69   S    
C174  C178  T    
C85   H104  S    
C68   C113  S    
C18   H135  S    
C112  O6    A    
C45   C47   S    
C103  H148  S    
C37   H296  S    
C3    C221  D    
C157  O54   S    
C219  O50   S    
C98   H136  S    
C106  H153  S    
C5    C181  D    
C56   H23   S    
C126  H210  S    
C108  H159  S    
O17   Zn8   S    
C81   O73   S    
C125  O87   S    
C23   H262  S    
C84   C85   S    
O11   Zn3   S    
C136  C137  S    
C58   C59   S    
C9    H223  S    
C97   H133  S    
C130  H222  S    
C27   H270  S    
C51   H12   S    
C100  O80   S    
C60   H33   S    
C197  C200  S    
C191  C193  S    
C61   H44   S    
C17   H101  S    
C62   C63   S    
C183  C187  D    
C145  C176  S    
O12   Zn2   S    
C28   O55   S    
O29   Zn3   S    
C147  O58   S    
C190  H42   S    
O14   Zn5   S    
C24   H291  S    
C121  C122  S    
O33   Zn14  S    
C48   C49   S    
C168  C182  S    
C65   H53   S    
C125  C126  S    
O37   Zn6   S    
C6    O77   S    
C42   C43   S    
C131  C132  S    
C96   H131  S    
O3    Zn7   S    
O45   Zn1   S    
C44   C45   S    
C67   O69   S    
C114  H169  S    
O1    Zn5   S    
C94   H126  S    
C150  O60   S    
C43   H313  S    
C86   H107  S    
C181  O81   S    
C67   H60   S    
C8    H1    S    
C14   H46   S    
C213  O36   A    
C46   C90   S    
C105  C106  S    
C11   H310  S    
C32   C33   S    
O4    Zn8   S    
C162  H249  S    
C133  H231  S    
C24   C146  S    
O31   Zn12  S    
C194  C195  S    
C152  C169  S    
O1    Zn12  S    
C185  C186  S    
C131  H225  S    
C93   H125  S    
C107  H156  S    
C127  H213  S    
C16   H79   S    
C25   O54   S    
O6    Zn13  S    
O34   Zn4   S    
C74   H78   S    
C111  C114  S    
C153  C157  S    
C94   C95   S    
O46   Zn9   S    
C138  C139  S    
C62   H45   S    
C219  C223  D    
C104  O81   S    
C36   H295  S    
C100  H141  S    
C41   O60   S    
C159  O8    A    
C87   C88   S    
C175  C179  T    
C82   C83   S    
C101  H235  S    
C6    C192  D    
C138  H240  S    
C82   H97   S    
C143  C174  S    
O12   Zn13  S    
C35   C143  S    
O26   Zn15  S    
C8    C9    S    
C33   H284  S    
C124  C159  S    
O20   Zn10  S    
C58   H28   S    
C95   C96   S    
C85   H105  S    
C75   C76   S    
C34   O58   S    
C81   C82   S    
C29   H275  S    
C34   H292  S    
C25   H264  S    
C37   H297  S    
C64   H52   S    
C151  H175  S    
O48   Zn11  S    
C48   O62   S    
C140  H245  S    
C159  O17   A    
C101  C154  S    
C164  H251  S    
C80   H91   S    
C129  H219  S    
C68   O87   S    
C109  H161  S    
C92   H121  S    
C75   H81   S    
O1    Zn16  S    
C15   C16   S    
O8    Zn15  S    
C123  H206  S    
C116  C117  S    
C144  C175  S    
C104  H149  S    
C121  H200  S    
C118  C119  S    
O9    Zn16  S    
C30   H278  S    
C34   H293  S    
C176  C180  T    
C39   H303  S    
C132  C133  S    
C31   O57   S    
C119  H196  S    
C18   O52   S    
C111  H166  S    
C166  O10   A    
C76   H83   S    
C155  C173  S    
C2    C149  S    
C77   H86   S    
O7    Zn14  S    
C200  O22   A    
C78   H89   S    
C222  H74   S    
C59   H30   S    
C42   H311  S    
O78   Zn11  S    
O36   Zn5   S    
C71   H67   S    
C218  C222  D    
C14   H24   S    
C38   H301  S    
C116  H188  S    
C203  O83   S    
C74   C75   S    
O15   Zn6   S    
C70   H65   S    
C2    H289  S    
C53   H18   S    
C181  C215  S    
C149  O59   S    
C207  O3    A    
C127  H214  S    
O43   Zn4   S    
C15   O51   S    
C125  H208  S    
C38   O59   S    
C60   H31   S    
C23   H263  S    
C184  C188  D    
C46   O85   S    
C67   C69   S    
C198  O73   S    
C54   H20   S    
C49   H7    S    
C63   H48   S    
C100  H142  S    
C202  O67   A    
C63   H50   S    
C102  H144  S    
C64   O68   S    
O22   Zn12  S    
C153  C171  S    
C55   C56   S    
C100  C102  S    
C149  H173  S    
C35   O84   S    
C201  O56   A    
O18   Zn1   S    
C90   H224  S    
C119  C120  S    
C66   H56   S    
C99   H140  S    
C143  C214  S    
C10   H288  S    
C33   H286  S    
C71   O70   S    
O23   Zn3   S    
C206  O2    A    
C89   H116  S    
C47   H320  S    
C84   H103  S    
C224  H76   S    
C15   H57   S    
C22   H260  S    
C88   H114  S    
C212  O35   A    
C128  O88   S    
C220  C224  D    
C112  O15   A    
C99   H139  S    
C31   H281  S    
C204  O78   A    
C80   H93   S    
O12   Zn9   S    
C168  O13   A    
C12   H13   S    
C140  H247  S    
C144  C162  S    
C155  C160  S    
C96   H130  S    
C109  H163  S    
C132  H227  S    
C11   C12   S    
C105  H152  S    
C110  H164  S    
C1    O5    A    
C188  H40   S    
C70   H64   S    
C196  O71   S    
C73   H71   S    
O28   Zn2   S    
C121  H202  S    
C19   H168  S    
C214  H176  S    
C30   H276  S    
C117  H192  S    
C165  O9    A    
O19   Zn9   S    
C185  H37   S    
C113  H246  S    
C193  C197  D    
C187  C206  S    
C187  H39   S    
C3    H77   S    
C120  H197  S    
C137  H238  S    
C40   H304  S    
C139  H242  S    
C217  O39   A    
C10   H266  S    
C76   H85   S    
C87   O75   S    
C65   C66   S    
C150  C154  S    
C42   H309  S    
C166  C179  S    
C122  C123  S    
C44   H315  S    
C72   H70   S    
C110  O83   S    
C192  C216  S    
C57   O86   S    
C36   H294  S    
