data_mof_unit_41742.cif
_audit_creation_date              2012-10-26T18:26:39-0400
_audit_creation_method            fapswitch 2.2
_symmetry_space_group_name_H-M    P1
_symmetry_Int_Tables_number       1
_space_group_crystal_system       triclinic
_cell_length_a                    15.825265
_cell_length_b                    8.693776
_cell_length_c                    7.453877
_cell_angle_alpha                 103.007654
_cell_angle_beta                  94.027219
_cell_angle_gamma                 92.204844
_cell_volume                      995.176668997

loop_
_atom_site_label
_atom_site_type_symbol
_atom_type_description
_atom_site_fract_x
_atom_site_fract_y
_atom_site_fract_z
_atom_type_partial_charge
C1    C     C_R   0.497484 0.199743 0.453274 0.547385
C2    C     C_3   0.977403 0.634895 0.608598 -0.100867
C3    C     C_1   0.250331 0.500186 0.507675 -0.029501
C4    C     C_1   0.749669 0.499814 0.492325 -0.029501
C5    C     C_3   0.032032 0.511102 0.674614 -0.100896
C6    C     C_3   0.967968 0.488898 0.325386 -0.100896
C7    C     C_3   0.082834 0.500148 0.504742 0.052880
C8    C     C_3   0.917166 0.499852 0.495258 0.052880
C9    C     C_1   0.174678 0.500243 0.508092 -0.061106
C10   C     C_1   0.825321 0.499756 0.491908 -0.061106
C11   C     C_R   0.502516 0.800257 0.546726 0.547386
C12   C     C_R   0.339933 0.499812 0.502530 0.549944
C13   C     C_R   0.660067 0.500188 0.497470 0.549944
C14   C     C_2   0.496280 0.031847 0.427040 -0.155455
C15   C     C_2   0.503720 0.968153 0.572959 -0.155455
C16   C     C_3   0.970232 0.376063 0.561248 -0.100775
C17   C     C_3   0.029768 0.623937 0.438752 -0.100775
C18   C     C_3   0.022597 0.365105 0.391402 -0.100867
Cu1   Cu    Cu3+1 0.509330 0.517380 0.684380 0.962533
Cu2   Cu    Cu3+1 0.490670 0.482620 0.315620 0.962533
H1    H     H_    0.042598 0.254326 0.302492 0.103457
H2    H     H_    0.565588 0.622493 0.051200 0.240203
H3    H     H_    0.957402 0.745674 0.697508 0.103457
H4    H     H_    0.944352 0.274253 0.611297 0.103981
H5    H     H_    0.055648 0.725747 0.388703 0.103981
H6    H     H_    0.940353 0.479816 0.182030 0.105731
H7    H     H_    0.059647 0.520183 0.817970 0.105731
H8    H     H_    0.489265 0.960279 0.286402 0.135157
H9    H     H_    0.510735 0.039721 0.713598 0.135157
H10   H     H_    0.434412 0.377507 0.948800 0.240203
N1    N     N_2   0.476600 0.456420 0.038510 -0.255260
N2    N     N_2   0.523400 0.543580 0.961490 -0.255260
O1    O     O_R   0.506070 0.286130 0.619780 -0.505869
O2    O     O_R   0.493930 0.713870 0.380220 -0.505869
O3    O     O_R   0.490300 0.256770 0.308360 -0.497889
O4    O     O_R   0.509700 0.743230 0.691640 -0.497889
O5    O     O_R   0.386960 0.514660 0.655680 -0.499705
O6    O     O_R   0.613040 0.485340 0.344320 -0.499705
O7    O     O_R   0.371190 0.485310 0.344260 -0.493951
O8    O     O_R   0.628810 0.514690 0.655740 -0.493951

loop_
_geom_bond_atom_site_label_1
_geom_bond_atom_site_label_2
_ccdc_geom_bond_type
C3    C9    T    
C1    C14   S    
C18   H1    S    
Cu2   O6    S    
C16   H4    S    
N1    N2    D    
C7    C18   S    
C17   H5    S    
C2    H3    S    
C12   O7    A    
Cu2   O7    S    
C1    O1    A    
C8    C16   S    
C2    C17   S    
C13   O6    A    
C6    H6    S    
H2    N2    S    
Cu1   N2    S    
C8    C10   S    
C11   O4    A    
C15   H9    S    
Cu1   O4    S    
H10   N1    S    
C6    C18   S    
C2    C5    S    
Cu1   O8    S    
C4    C10   T    
Cu2   O2    S    
C7    C9    S    
C12   O5    A    
C1    O3    A    
C16   C18   S    
Cu1   O1    S    
C4    C13   S    
C5    C7    S    
C6    C17   S    
C14   C15   D    
C13   O8    A    
C6    C8    S    
C3    C12   S    
Cu1   O5    S    
C14   H8    S    
C5    H7    S    
Cu2   O3    S    
C11   C15   S    
C11   O2    A    
C2    C8    S    
Cu1   Cu2   S    
C5    C16   S    
Cu2   N1    S    
C7    C17   S    
