data_mof_unit_34150.cif
_audit_creation_date              2012-12-10T20:49:10-0500
_audit_creation_method            fapswitch 2.2
_symmetry_space_group_name_H-M    P1
_symmetry_Int_Tables_number       1
_space_group_crystal_system       triclinic
_cell_length_a                    8.941996
_cell_length_b                    8.127024
_cell_length_c                    10.523106
_cell_angle_alpha                 90.179519
_cell_angle_beta                  89.530198
_cell_angle_gamma                 89.896822
_cell_volume                      764.702487225

loop_
_atom_site_label
_atom_site_type_symbol
_atom_type_description
_atom_site_fract_x
_atom_site_fract_y
_atom_site_fract_z
_atom_type_partial_charge
C1    C     C_R   0.218053 0.500098 0.500001 0.934153
C2    C     C_R   0.781950 0.499902 0.500037 0.935477
C3    C     C_R   0.503034 0.499801 0.256812 0.904607
C4    C     C_R   0.496930 0.500228 0.743177 0.918512
C5    C     C_3   0.517332 0.656787 0.041350 -0.261090
C6    C     C_3   0.483477 0.343735 0.958390 -0.249922
C7    C     C_3   0.630344 0.564329 0.954683 -0.383053
C8    C     C_3   0.369869 0.435905 0.044777 -0.386185
C9    C     C_3   0.386360 0.591629 0.962705 0.609720
C10   C     C_3   0.614024 0.408814 0.037491 0.592654
C11   C     C_3   0.497646 0.500592 0.877681 -0.107018
C12   C     C_3   0.502581 0.499622 0.122307 -0.105762
C13   C     C_1   0.065193 0.500161 0.499886 -0.201590
C14   C     C_1   0.934816 0.499873 0.499920 -0.194860
N1    N     N_1   0.500000 0.073640 0.500000 -0.030565
N2    N     N_1   0.500000 0.926360 0.500000 -0.030343
O1    O     O_R   0.285350 0.636850 0.500000 -0.612517
O2    O     O_R   0.714650 0.363150 0.500000 -0.611051
O3    O     O_R   0.714650 0.636850 0.500000 -0.621193
O4    O     O_R   0.285350 0.363150 0.500000 -0.621656
O5    O     O_R   0.499970 0.636850 0.313950 -0.645899
O6    O     O_R   0.500030 0.363150 0.686050 -0.641746
O7    O     O_R   0.500030 0.636850 0.686050 -0.594250
O8    O     O_R   0.499970 0.363150 0.313950 -0.595632
Zn1   Zn    Zn3+2 0.500000 0.682780 0.500000 0.994357
Zn2   Zn    Zn3+2 0.500000 0.317220 0.500000 0.993878
O9    O     O_3   0.274836 0.694087 0.910344 -0.619470
C15   C     C_3   0.151484 0.711524 0.994408 0.093380
H1    H     H_    0.112410 0.591295 0.030550 0.077085
H2    H     H_    0.056682 0.762846 0.939528 0.157833
C16   C     C_3   0.182677 0.827525 0.106604 -0.394379
H3    H     H_    0.077980 0.842500 0.163161 0.188488
H4    H     H_    0.267292 0.772859 0.170405 0.221175
C17   C     C_3   0.234762 0.996641 0.062697 -0.781821
H5    H     H_    0.341126 0.986262 0.008323 0.276796
H6    H     H_    0.253307 0.076929 0.146640 0.239060
H7    H     H_    0.148526 0.053653 0.001862 0.247589
O10   O     O_3   0.723934 0.301827 0.087535 -0.638994
C18   C     C_3   0.865707 0.333232 0.032821 0.067452
H8    H     H_    0.951444 0.274977 0.093924 0.159984
H9    H     H_    0.891447 0.466617 0.033915 0.116369
C19   C     C_3   0.880097 0.258481 0.898741 -0.376410
H10   H     H_    0.887381 0.122326 0.906263 0.222447
H11   H     H_    0.780456 0.288394 0.840965 0.231980
C20   C     C_3   0.018201 0.323398 0.828994 -0.931742
H12   H     H_    0.006401 0.457500 0.811542 0.262308
H13   H     H_    0.030337 0.259735 0.735967 0.279174
H14   H     H_    0.120703 0.301479 0.885132 0.263631
H15   H     H_    0.531122 0.783262 0.079536 0.179847
H16   H     H_    0.473199 0.217451 0.919166 0.171533
H17   H     H_    0.732095 0.618264 0.910357 0.153511
H18   H     H_    0.267538 0.381987 0.087922 0.144149

loop_
_geom_bond_atom_site_label_1
_geom_bond_atom_site_label_2
_ccdc_geom_bond_type
C6    C10   S    
C7    C10   S    
C16   H4    S    
C5    C9    S    
N2    Zn1   S    
C2    O2    A    
C17   H7    S    
C4    O6    A    
C8    H18   S    
C1    O1    A    
C16   H3    S    
O2    Zn2   S    
C8    C12   S    
C10   O10   S    
O1    Zn1   S    
C15   H2    S    
C16   C17   S    
C7    H17   S    
C18   H9    S    
C13   C14   T    
C6    H16   S    
C4    C11   S    
C7    C11   S    
C9    C11   S    
C6    C11   S    
C5    H15   S    
C3    O8    A    
O4    Zn2   S    
C2    C14   S    
C10   C12   S    
C15   H1    S    
O8    Zn2   S    
C18   C19   S    
C17   H6    S    
O7    Zn1   S    
O10   C18   S    
O3    Zn1   S    
C3    O5    A    
C1    C13   S    
C19   H10   S    
N1    N2    T    
C18   H8    S    
C9    O9    S    
C5    C12   S    
C17   H5    S    
O6    Zn2   S    
C20   H13   S    
O9    C15   S    
C5    C7    S    
C4    O7    A    
O5    Zn1   S    
C1    O4    A    
C6    C8    S    
C3    C12   S    
C20   H14   S    
C2    O3    A    
C20   H12   S    
C15   C16   S    
C19   H11   S    
C8    C9    S    
N1    Zn2   S    
C19   C20   S    
