data_mof_unit_7615.cif
_audit_creation_date              2012-12-10T18:37:05-0500
_audit_creation_method            fapswitch 2.2
_symmetry_space_group_name_H-M    P1
_symmetry_Int_Tables_number       1
_space_group_crystal_system       triclinic
_cell_length_a                    14.931262
_cell_length_b                    15.539753
_cell_length_c                    23.406614
_cell_angle_alpha                 91.310923
_cell_angle_beta                  103.450367
_cell_angle_gamma                 80.870882
_cell_volume                      5214.56795526

loop_
_atom_site_label
_atom_site_type_symbol
_atom_type_description
_atom_site_fract_x
_atom_site_fract_y
_atom_site_fract_z
_atom_type_partial_charge
C1    C     C_R   0.441335 0.662232 0.491636 0.884586
C2    C     C_R   0.558904 0.338073 0.508931 0.864607
C3    C     C_R   0.567782 0.529700 0.773060 -0.106717
C4    C     C_R   0.563266 0.536037 0.247431 -0.110543
C5    C     C_R   0.567277 0.533817 0.713868 -0.203676
C6    C     C_R   0.562929 0.538882 0.306585 -0.188110
C7    C     C_R   0.502791 0.494390 0.672730 -0.069730
C8    C     C_R   0.498146 0.499445 0.327124 -0.075511
C9    C     C_R   0.440267 0.449135 0.691344 -0.232788
C10   C     C_R   0.432139 0.458921 0.287698 -0.232658
C11   C     C_R   0.440975 0.443582 0.750816 0.147186
C12   C     C_R   0.431297 0.456332 0.227952 0.150069
C13   C     C_R   0.504746 0.485483 0.791557 0.288294
C14   C     C_R   0.498273 0.494783 0.208249 0.284260
C15   C     C_R   0.406751 0.755975 0.488297 -0.077443
C16   C     C_R   0.595837 0.245299 0.515403 -0.078736
C17   C     C_R   0.288890 0.880373 0.492690 -0.143520
C18   C     C_R   0.717432 0.123021 0.514327 -0.149679
C19   C     C_R   0.313374 0.790985 0.485250 -0.197847
C20   C     C_R   0.689589 0.212719 0.517447 -0.182349
C21   C     C_R   0.472342 0.811877 0.492693 -0.116903
C22   C     C_R   0.533514 0.187982 0.516466 -0.158579
C23   C     C_R   0.500695 0.499182 0.610398 0.878703
C24   C     C_R   0.499448 0.500074 0.389565 0.886752
C25   C     C_R   0.447444 0.901611 0.492955 0.112457
C26   C     C_R   0.561742 0.098364 0.518768 0.147649
C27   C     C_R   0.357091 0.935052 0.500024 0.097174
C28   C     C_R   0.652073 0.066218 0.511173 0.117682
C29   C     C_R   0.514628 0.957072 0.495149 -0.107945
C30   C     C_R   0.497008 0.041321 0.518871 -0.111320
C31   C     C_R   0.413502 0.066314 0.539341 0.429524
C32   C     C_R   0.599389 0.931742 0.475752 0.356684
C33   C     C_R   0.340563 0.018153 0.522508 -0.299554
C34   C     C_R   0.671035 0.981580 0.491817 -0.305282
C35   C     C_R   0.829296 0.653088 0.581653 -0.325858
C36   C     C_R   0.195844 0.321577 0.467747 -0.240753
C37   C     C_R   0.743129 0.624854 0.566630 0.043961
C38   C     C_R   0.266919 0.360948 0.456525 0.029885
C39   C     C_R   0.805133 0.502104 0.516749 0.171689
C40   C     C_R   0.194012 0.500390 0.479737 0.171953
C41   C     C_R   0.896899 0.522068 0.538542 -0.007027
C42   C     C_R   0.126947 0.461518 0.500626 -0.005407
C43   C     C_R   0.906081 0.603179 0.566043 0.147279
C44   C     C_R   0.127881 0.370534 0.492144 0.141498
C45   C     C_R   0.551829 0.426315 0.127106 0.525911
C46   C     C_R   0.449212 0.551845 0.872434 0.527759
C47   C     C_R   0.978720 0.469004 0.529416 0.064992
C48   C     C_R   0.057182 0.508022 0.527102 0.057544
C49   C     C_R   0.065665 0.587942 0.555855 -0.212338
C50   C     C_R   0.987969 0.377771 0.527672 -0.217261
C51   C     C_R   0.991786 0.633601 0.576821 -0.190583
C52   C     C_R   0.061399 0.328996 0.508725 -0.172720
C53   C     C_R   0.447117 0.561287 0.112305 0.543929
C54   C     C_R   0.558444 0.419715 0.887835 0.545960
C55   C     C_R   0.442523 0.560523 0.051318 -0.139200
C56   C     C_R   0.556213 0.416236 0.947783 -0.158552
C57   C     C_R   0.498235 0.490029 0.029524 -0.055066
C58   C     C_R   0.500317 0.486562 0.969581 -0.059395
C59   C     C_R   0.552488 0.422865 0.067702 -0.075177
C60   C     C_R   0.446452 0.553936 0.931480 -0.051778
C61   C     C_R   0.385668 0.626091 0.011205 0.403817
C62   C     C_R   0.606904 0.346909 0.986937 0.444981
C63   C     C_R   0.389847 0.621803 0.952350 -0.231126
C64   C     C_R   0.605232 0.352602 0.046196 -0.205752
H1    H     H_    0.218473 0.905751 0.496165 0.139324
H2    H     H_    0.787793 0.098784 0.510231 0.140037
H3    H     H_    0.000562 0.694448 0.599385 0.155204
H4    H     H_    0.065332 0.258805 0.506137 0.152690
H5    H     H_    0.323592 0.321056 0.442389 0.144684
H6    H     H_    0.684049 0.662495 0.579760 0.141524
H7    H     H_    0.835640 0.713736 0.604901 0.157830
H8    H     H_    0.197127 0.252255 0.460615 0.157393
H9    H     H_    0.130908 0.612596 0.566217 0.154590
H10   H     H_    0.941439 0.343386 0.544036 0.147104
H11   H     H_    0.347740 0.672054 0.922084 0.225348
H12   H     H_    0.645135 0.300866 0.076065 0.248802
H13   H     H_    0.616606 0.561546 0.804758 0.154077
H14   H     H_    0.613741 0.566306 0.231756 0.157734
H15   H     H_    0.616115 0.568910 0.700233 0.167142
H16   H     H_    0.612994 0.572165 0.336133 0.194146
H17   H     H_    0.391045 0.417545 0.659659 0.183266
H18   H     H_    0.381746 0.428391 0.303350 0.161802
H19   H     H_    0.274979 0.040164 0.534681 0.186117
H20   H     H_    0.737233 0.959722 0.480382 0.176515
H21   H     H_    0.460564 0.213353 0.511020 0.189614
H22   H     H_    0.545190 0.785214 0.500380 0.198851
H23   H     H_    0.739320 0.256291 0.517172 0.146106
H24   H     H_    0.261165 0.749380 0.481534 0.150511
N1    N     N_R   0.499464 0.494285 0.147628 -0.367879
N2    N     N_R   0.504428 0.485719 0.852301 -0.369483
N3    N     N_R   0.731690 0.552740 0.533440 -0.107779
N4    N     N_R   0.268310 0.447260 0.466560 -0.128757
O1    O     O_R   0.383120 0.605620 0.483150 -0.636366
O2    O     O_R   0.616880 0.394380 0.516850 -0.639351
O3    O     O_R   0.531890 0.639510 0.504600 -0.602878
O4    O     O_R   0.468110 0.360490 0.495400 -0.621960
O5    O     O_R   0.425590 0.483070 0.573110 -0.602279
O6    O     O_R   0.574410 0.516930 0.426890 -0.619939
O7    O     O_R   0.574360 0.516970 0.594570 -0.620498
O8    O     O_R   0.425640 0.483030 0.405430 -0.622558
O9    O     O_2   0.602766 0.362180 0.164407 -0.544876
O10   O     O_2   0.397177 0.615377 0.835019 -0.544541
O11   O     O_2   0.401426 0.627942 0.137160 -0.456262
O12   O     O_2   0.614406 0.359515 0.864583 -0.460279
Zn1   Zn    Zn3+2 0.400660 0.477370 0.485670 0.950206
Zn2   Zn    Zn3+2 0.599340 0.522630 0.514330 0.961764
S1    S     S_3+6 0.305004 0.713191 0.029856 0.094346
O13   O     O_2   0.239198 0.677245 0.059314 -0.213477
O14   O     O_2   0.356662 0.774044 0.071032 -0.225288
O15   O     O_3   0.241368 0.770093 0.969714 -0.522400
H25   H     H_    0.280434 0.812465 0.962073 0.365009
S2    S     S_3+6 0.670212 0.249419 0.965576 0.078656
O16   O     O_2   0.608604 0.208693 0.915690 -0.249434
O17   O     O_2   0.753920 0.270309 0.946545 -0.225605
O18   O     O_3   0.706934 0.177204 0.021860 -0.552299
H26   H     H_    0.741261 0.125889 0.006019 0.399430
S3    S     S_3+6 0.404846 0.141262 0.597305 -0.011014
O19   O     O_2   0.345269 0.225362 0.572645 -0.368171
O20   O     O_2   0.359245 0.103774 0.639796 -0.268562
O21   O     O_3   0.510964 0.160118 0.633929 -0.536193
H27   H     H_    0.502091 0.222166 0.645218 0.367748
S4    S     S_3+6 0.612651 0.854102 0.419766 0.022938
O22   O     O_2   0.519377 0.838704 0.383694 -0.239268
O23   O     O_2   0.664883 0.887783 0.379564 -0.266526
O24   O     O_3   0.673985 0.759132 0.449796 -0.562859
H28   H     H_    0.734674 0.773844 0.471741 0.342699
C65   C     C_3   0.176246 0.594172 0.458176 -0.415749
C66   C     C_3   0.081140 0.618653 0.414809 -0.397868
C67   C     C_3   0.069801 0.711001 0.390380 -0.815639
H29   H     H_    0.073974 0.758727 0.426611 0.256439
H30   H     H_    0.125013 0.716435 0.366602 0.267400
H31   H     H_    0.000750 0.727014 0.359263 0.267168
H32   H     H_    0.075311 0.572279 0.377721 0.230874
H33   H     H_    0.022939 0.615462 0.436252 0.242154
H34   H     H_    0.228609 0.602208 0.432930 0.244472
H35   H     H_    0.185293 0.640065 0.494895 0.183058
C68   C     C_3   0.784675 0.437054 0.467591 -0.400780
C69   C     C_3   0.806495 0.466495 0.410783 -0.371008
C70   C     C_3   0.781965 0.402647 0.361192 -0.821746
H36   H     H_    0.826017 0.337981 0.372501 0.265004
H37   H     H_    0.707414 0.394997 0.353384 0.267260
H38   H     H_    0.794656 0.427468 0.320139 0.262389
H39   H     H_    0.766025 0.532081 0.397348 0.242768
H40   H     H_    0.881628 0.471199 0.417676 0.230336
H41   H     H_    0.818989 0.369923 0.479628 0.167329
H42   H     H_    0.711605 0.429620 0.457607 0.262222
C71   C     C_3   0.373166 0.393425 0.769327 -0.455381
C72   C     C_3   0.401564 0.295069 0.762842 -0.315358
C73   C     C_3   0.335247 0.243645 0.782971 -0.725127
H43   H     H_    0.336505 0.255793 0.830088 0.256168
H44   H     H_    0.263018 0.262686 0.756317 0.259009
H45   H     H_    0.357261 0.172884 0.777376 0.279212
H46   H     H_    0.400766 0.279672 0.716149 0.253885
H47   H     H_    0.473411 0.274055 0.789647 0.277056
H48   H     H_    0.369297 0.406966 0.815531 0.213780
H49   H     H_    0.302075 0.414978 0.741595 0.218930
C74   C     C_3   0.358789 0.412647 0.186507 -0.435116
C75   C     C_3   0.262840 0.470173 0.175502 -0.339861
C76   C     C_3   0.189845 0.428109 0.132115 -0.782778
H50   H     H_    0.209367 0.418857 0.089133 0.269623
H51   H     H_    0.183457 0.363982 0.149475 0.262028
H52   H     H_    0.121147 0.470959 0.125271 0.264061
H53   H     H_    0.240349 0.480949 0.217512 0.225122
H54   H     H_    0.266937 0.534552 0.157382 0.282060
H55   H     H_    0.377906 0.398413 0.143804 0.215565
H56   H     H_    0.355385 0.348867 0.205838 0.214706

loop_
_geom_bond_atom_site_label_1
_geom_bond_atom_site_label_2
_ccdc_geom_bond_type
C23   O7    A    
O4    Zn1   S    
C39   C68   S    
C74   C75   S    
C13   N2    S    
S1    O14   D    
C71   C72   S    
C64   H12   S    
C11   C71   S    
C66   C67   S    
S2    O17   D    
C39   C41   A    
C27   C33   A    
C15   C19   A    
C46   O10   S    
C59   C64   A    
C34   H20   S    
C60   C63   A    
C24   O6    A    
C68   H41   S    
C35   C37   A    
C65   H34   S    
C54   N2    A    
C29   C32   A    
C69   H39   S    
S3    O20   D    
C30   C31   A    
C70   H38   S    
C57   C59   A    
C58   C60   A    
O18   H26   S    
C20   H23   S    
C38   N4    A    
C11   C13   A    
C72   H47   S    
C22   H21   S    
C61   C63   A    
O15   H25   S    
C31   S3    S    
C62   C64   A    
O1    Zn1   S    
O2    Zn2   S    
C47   C48   A    
C49   C51   A    
C50   C52   A    
S1    O13   D    
C76   H51   S    
C1    C15   S    
C12   C74   S    
C5    H15   S    
C45   N1    A    
C18   C20   A    
C3    C13   A    
C75   H54   S    
C67   H31   S    
O5    Zn1   S    
C44   C52   A    
C40   C42   A    
C38   H5    S    
C35   H7    S    
C73   H44   S    
C37   H6    S    
C41   C43   A    
N3    Zn2   S    
C42   C44   A    
C10   C12   A    
C39   N3    A    
S2    O16   D    
C41   C47   A    
C47   C50   A    
C53   C55   A    
C25   C29   A    
C54   C56   A    
C37   N3    A    
C17   C27   A    
C32   S4    S    
C68   H42   S    
C2    O2    A    
C18   C28   A    
C65   H35   S    
C4    C6    A    
C19   H24   S    
C73   H45   S    
C74   H55   S    
C5    C7    A    
C17   C19   A    
C51   H3    S    
C40   C65   S    
C2    O4    A    
C10   H18   S    
C40   N4    A    
C32   C34   A    
C14   N1    S    
C4    H14   S    
C29   C30   A    
O3    Zn2   S    
C66   H33   S    
C9    C11   A    
C66   H32   S    
C6    H16   S    
C76   H50   S    
C1    O3    A    
C16   C20   A    
C31   C33   A    
O8    Zn1   S    
C76   H52   S    
C42   C48   A    
C72   C73   S    
C71   H49   S    
C33   H19   S    
C45   O9    S    
C75   H53   S    
C1    O1    A    
C48   C49   A    
C23   O5    A    
C12   C14   A    
C26   C30   A    
C55   C57   A    
C53   N1    A    
O24   H28   S    
S1    O15   S    
C49   H9    S    
S3    O21   S    
C18   H2    S    
C72   H46   S    
S4    O23   D    
C65   C66   S    
C3    H13   S    
C2    C16   S    
O21   H27   S    
C67   H29   S    
C54   O12   S    
C7    C9    A    
O7    Zn2   S    
C21   C25   A    
C21   H22   S    
C45   C59   A    
C16   C22   A    
C46   C60   A    
C24   O8    A    
C17   H1    S    
C3    C5    A    
C52   H4    S    
C74   H56   S    
C6    C8    A    
C70   H36   S    
C46   N2    A    
C71   H48   S    
C25   C27   A    
C68   C69   S    
C26   C28   A    
O6    Zn2   S    
S4    O24   S    
C50   H10   S    
C35   C43   A    
C69   H40   S    
S3    O19   D    
C70   H37   S    
C43   C51   A    
C57   C58   A    
C75   C76   S    
C63   H11   S    
C53   O11   S    
C7    C23   S    
C55   C61   A    
C36   C38   A    
C8    C24   S    
C56   C58   A    
C56   C62   A    
C4    C14   A    
C61   S1    S    
C36   C44   A    
C69   C70   S    
C28   C34   A    
N4    Zn1   S    
C15   C21   A    
C62   S2    S    
C8    C10   A    
C22   C26   A    
S4    O22   D    
C73   H43   S    
S2    O18   S    
C36   H8    S    
C9    H17   S    
C67   H30   S    
