data_mof_unit_8506.cif
_audit_creation_date              2012-12-10T16:55:49-0500
_audit_creation_method            fapswitch 2.2
_symmetry_space_group_name_H-M    P1
_symmetry_Int_Tables_number       1
_space_group_crystal_system       triclinic
_cell_length_a                    7.801301
_cell_length_b                    8.620729
_cell_length_c                    10.489618
_cell_angle_alpha                 91.701579
_cell_angle_beta                  84.832622
_cell_angle_gamma                 93.574941
_cell_volume                      701.017227378

loop_
_atom_site_label
_atom_site_type_symbol
_atom_type_description
_atom_site_fract_x
_atom_site_fract_y
_atom_site_fract_z
_atom_type_partial_charge
C1    C     C_R   0.545220 0.794199 0.496795 0.825040
C2    C     C_3   0.500129 0.500575 0.877194 -0.210090
C3    C     C_3   0.391372 0.382401 0.046342 -0.285824
C4    C     C_3   0.608628 0.617599 0.953658 -0.285824
C5    C     C_2   0.569394 0.956633 0.495236 0.299388
C6    C     C_2   0.430606 0.043367 0.504764 0.299387
C7    C     C_R   0.454780 0.205801 0.503205 0.825040
C8    C     C_R   0.500395 0.500676 0.742403 0.887832
C9    C     C_R   0.499605 0.499324 0.257597 0.887832
C10   C     C_3   0.341458 0.520307 0.970979 0.819814
C11   C     C_3   0.658542 0.479693 0.029021 0.819814
C12   C     C_3   0.447744 0.637598 0.049560 -0.342876
C13   C     C_3   0.552256 0.362402 0.950440 -0.342876
C14   C     C_3   0.499871 0.499425 0.122806 -0.210090
F1    F     F_    0.177376 0.541626 0.937167 -0.562367
F2    F     F_    0.822624 0.458374 0.062833 -0.562367
F3    F     F_    0.030296 0.357098 0.385496 -0.498416
F4    F     F_    0.969704 0.642902 0.614504 -0.498416
F5    F     F_    0.736031 0.016622 0.484164 -0.571273
F6    F     F_    0.263969 0.983378 0.515836 -0.571273
H1    H     H_    0.403402 0.748216 0.094143 0.202707
H2    H     H_    0.596598 0.251784 0.905856 0.202707
H3    H     H_    0.301773 0.288475 0.088312 0.223111
H4    H     H_    0.698227 0.711525 0.911687 0.223111
N1    N     N_2   0.950320 0.457950 0.465730 0.283040
N2    N     N_2   0.049680 0.542050 0.534270 0.283040
O1    O     O_R   0.389250 0.738570 0.508410 -0.576287
O2    O     O_R   0.610750 0.261430 0.491590 -0.576286
O3    O     O_R   0.678390 0.711620 0.486450 -0.544563
O4    O     O_R   0.321610 0.288380 0.513550 -0.544563
O5    O     O_R   0.355460 0.513510 0.697030 -0.573884
O6    O     O_R   0.644540 0.486490 0.302970 -0.573884
O7    O     O_R   0.644600 0.486560 0.675070 -0.586832
O8    O     O_R   0.355400 0.513440 0.324930 -0.586833
Zn1   Zn    Zn3+2 0.306940 0.517990 0.514670 1.211480
Zn2   Zn    Zn3+2 0.693060 0.482010 0.485330 1.211480

loop_
_geom_bond_atom_site_label_1
_geom_bond_atom_site_label_2
_ccdc_geom_bond_type
C2    C4    S    
C9    C14   S    
C6    C7    S    
C5    F5    S    
C4    C12   S    
C6    F6    S    
C11   F2    S    
C3    H3    S    
F4    N2    S    
C10   F1    S    
F3    N1    S    
C1    O3    A    
C7    O4    A    
C4    C11   S    
C11   C13   S    
O3    Zn2   S    
C9    O8    A    
C3    C14   S    
C10   C12   S    
O4    Zn1   S    
C1    C5    S    
O6    Zn2   S    
C12   C14   S    
C13   H2    S    
C8    O7    A    
C5    C6    D    
C4    H4    S    
C11   C14   S    
O5    Zn1   S    
N1    Zn2   S    
C2    C10   S    
N2    Zn1   S    
O7    Zn2   S    
O2    Zn2   S    
C1    O1    A    
O8    Zn1   S    
C3    C10   S    
C2    C13   S    
C9    O6    A    
O1    Zn1   S    
N1    N2    D    
C8    O5    A    
C12   H1    S    
C2    C8    S    
C7    O2    A    
C3    C13   S    
