data_mof_unit_54831.cif
_audit_creation_date              2013-03-05T16:00:51-0500
_audit_creation_method            fapswitch 2.2
_symmetry_space_group_name_H-M    P1
_symmetry_Int_Tables_number       1
_space_group_crystal_system       triclinic
_cell_length_a                    21.210131
_cell_length_b                    21.211544
_cell_length_c                    14.013536
_cell_angle_alpha                 90.151496
_cell_angle_beta                  90.195202
_cell_angle_gamma                 90.067864
_cell_volume                      6304.62150036

loop_
_atom_site_label
_atom_site_type_symbol
_atom_site_description
_atom_site_fract_x
_atom_site_fract_y
_atom_site_fract_z
_atom_type_partial_charge
O1    O     O_R   0.066090 0.433930 0.580280 -0.616718
O2    O     O_R   0.933910 0.566070 0.419720 -0.621593
O3    O     O_R   0.933910 0.566070 0.580280 -0.616501
O4    O     O_R   0.066090 0.433930 0.419720 -0.619355
O5    O     O_R   0.933910 0.433930 0.419720 -0.629505
O6    O     O_R   0.066090 0.566070 0.580280 -0.632909
O7    O     O_R   0.066090 0.566070 0.419720 -0.629003
O8    O     O_R   0.933910 0.433930 0.580280 -0.634313
O9    O     O_R   0.566090 0.933930 0.580280 -0.627821
O10   O     O_R   0.433910 0.066070 0.419720 -0.634221
O11   O     O_R   0.433910 0.066070 0.580280 -0.626562
O12   O     O_R   0.566090 0.933930 0.419720 -0.632198
O13   O     O_R   0.433910 0.933930 0.419720 -0.614553
O14   O     O_R   0.566090 0.066070 0.580280 -0.621533
O15   O     O_R   0.566090 0.066070 0.419720 -0.618096
O16   O     O_R   0.433910 0.933930 0.580280 -0.623065
C1    C     C_R   0.086817 0.413408 0.500053 0.895421
C2    C     C_R   0.913197 0.586606 0.500006 0.892451
C3    C     C_R   0.913466 0.413180 0.499756 0.894424
C4    C     C_R   0.086984 0.586376 0.500045 0.892639
C5    C     C_R   0.586628 0.913232 0.500045 0.894333
C6    C     C_R   0.413360 0.086768 0.499992 0.893408
C7    C     C_R   0.413456 0.913177 0.499769 0.891873
C8    C     C_R   0.586825 0.086562 0.500128 0.893753
Zn1   Zn    Zn3+2 1.000000 0.500000 0.607200 0.977190
Zn2   Zn    Zn3+2 0.000000 0.500000 0.392800 0.976129
Zn3   Zn    Zn3+2 0.500000 0.000000 0.607200 0.975823
Zn4   Zn    Zn3+2 0.500000 0.000000 0.392800 0.977447
C9    C     C_R   0.139075 0.674863 0.423397 -0.139510
C10   C     C_R   0.862363 0.323832 0.576402 -0.156925
C11   C     C_R   0.856777 0.671266 0.581014 -0.139591
C12   C     C_R   0.144021 0.329433 0.581393 -0.132304
C13   C     C_R   0.641605 0.172463 0.420718 -0.136428
C14   C     C_R   0.365989 0.820185 0.572103 -0.150559
C15   C     C_R   0.358281 0.172781 0.419886 -0.154153
C16   C     C_R   0.640858 0.826503 0.420413 -0.155357
C17   C     C_R   0.136173 0.632804 0.499145 -0.109025
C18   C     C_R   0.866775 0.364259 0.498868 -0.105225
C19   C     C_R   0.864824 0.633951 0.500243 -0.111589
C20   C     C_R   0.135230 0.366108 0.500353 -0.112608
C21   C     C_R   0.635428 0.133649 0.499888 -0.110717
C22   C     C_R   0.366862 0.864132 0.498759 -0.111625
C23   C     C_R   0.366061 0.135178 0.500191 -0.107647
C24   C     C_R   0.633882 0.864800 0.500346 -0.106649
C25   C     C_R   0.181052 0.633382 0.571585 -0.161150
C26   C     C_R   0.827643 0.357673 0.419697 -0.142629
C27   C     C_R   0.826631 0.641133 0.420199 -0.143540
C28   C     C_R   0.172681 0.358282 0.419982 -0.143113
C29   C     C_R   0.676059 0.138657 0.577560 -0.147605
C30   C     C_R   0.324653 0.860674 0.422899 -0.139364
C31   C     C_R   0.329404 0.143872 0.581218 -0.143462
C32   C     C_R   0.671296 0.856787 0.581063 -0.138543
C33   C     C_R   0.229775 0.677349 0.570075 -0.008565
C34   C     C_R   0.781935 0.310784 0.417502 -0.013341
C35   C     C_R   0.779289 0.686342 0.419465 -0.011309
C36   C     C_R   0.219941 0.313017 0.419109 -0.012187
C37   C     C_R   0.724100 0.183280 0.577376 -0.008076
C38   C     C_R   0.279266 0.813439 0.420021 -0.014268
C39   C     C_R   0.283446 0.190394 0.583151 -0.014672
C40   C     C_R   0.717300 0.810288 0.582962 -0.014723
C41   C     C_R   0.231384 0.722075 0.495026 -0.031289
C42   C     C_R   0.776539 0.270005 0.497078 -0.030500
C43   C     C_R   0.771386 0.724992 0.501303 -0.032337
C44   C     C_R   0.228613 0.275028 0.501240 -0.031761
C45   C     C_R   0.729884 0.223713 0.497427 -0.033884
C46   C     C_R   0.277687 0.768781 0.495134 -0.032473
C47   C     C_R   0.275045 0.228612 0.501213 -0.028338
C48   C     C_R   0.724909 0.771378 0.501357 -0.029261
C49   C     C_R   0.186305 0.720173 0.420151 -0.015389
C50   C     C_R   0.817740 0.275885 0.576522 -0.012770
C51   C     C_R   0.810291 0.717287 0.582932 -0.016062
C52   C     C_R   0.190513 0.283423 0.583249 -0.017587
C53   C     C_R   0.688573 0.218011 0.418125 -0.018772
C54   C     C_R   0.322109 0.771421 0.570926 -0.013649
C55   C     C_R   0.313119 0.220160 0.419168 -0.013371
C56   C     C_R   0.685996 0.779106 0.419716 -0.012890
C57   C     C_R   0.276539 0.677578 0.641756 0.307661
C58   C     C_R   0.741591 0.304174 0.337968 0.329454
C59   C     C_R   0.739837 0.693430 0.339066 0.342862
C60   C     C_R   0.258521 0.305209 0.338241 0.340328
C61   C     C_R   0.766372 0.188048 0.654879 0.341749
C62   C     C_R   0.235581 0.810211 0.344127 0.327270
C63   C     C_R   0.245902 0.199221 0.664921 0.326424
C64   C     C_R   0.755674 0.802161 0.664346 0.331528
C65   C     C_R   0.813498 0.234058 0.654153 0.321872
C66   C     C_R   0.189048 0.763530 0.344197 0.330465
C67   C     C_R   0.199402 0.245796 0.664974 0.330677
C68   C     C_R   0.802181 0.755588 0.664355 0.327356
C69   C     C_R   0.322082 0.725280 0.643162 0.324350
C70   C     C_R   0.694832 0.257775 0.338292 0.329060
C71   C     C_R   0.692904 0.739561 0.339434 0.322777
C72   C     C_R   0.305378 0.258990 0.338485 0.323014
H1    H     H_    0.103279 0.672379 0.368296 0.206238
H2    H     H_    0.894382 0.330133 0.635963 0.199225
H3    H     H_    0.887751 0.664392 0.641582 0.208267
H4    H     H_    0.113628 0.336786 0.642237 0.210676
H5    H     H_    0.608768 0.167110 0.361999 0.209902
H6    H     H_    0.400542 0.824123 0.628809 0.206209
H7    H     H_    0.388182 0.164863 0.358623 0.201192
H8    H     H_    0.610354 0.833916 0.359427 0.200138
H9    H     H_    0.177540 0.598983 0.628249 0.199151
H10   H     H_    0.832689 0.390260 0.360928 0.199842
H11   H     H_    0.833944 0.610576 0.359290 0.198365
H12   H     H_    0.164818 0.388342 0.358847 0.200050
H13   H     H_    0.670107 0.106847 0.637113 0.195578
H14   H     H_    0.327138 0.895979 0.367423 0.203794
H15   H     H_    0.336736 0.113381 0.642009 0.203164
H16   H     H_    0.664534 0.887814 0.641568 0.202913
C73   C     C_R   0.947401 0.480975 0.797660 0.027068
C74   C     C_R   0.052647 0.518802 0.202346 0.029541
C75   C     C_R   0.052048 0.520477 0.798440 0.028245
C76   C     C_R   0.947029 0.481992 0.201690 0.023912
C77   C     C_R   0.445354 0.011828 0.797712 0.029687
C78   C     C_R   0.554436 0.987430 0.202268 0.027066
C79   C     C_R   0.554410 0.987236 0.798228 0.028392
C80   C     C_R   0.445364 0.011889 0.201832 0.029885
N1    N     N_R   0.000000 0.500000 0.750030 -0.130051
N2    N     N_R   0.000000 0.500000 0.249970 -0.129680
N3    N     N_R   0.500000 0.000000 0.750030 -0.130103
N4    N     N_R   0.500000 0.000000 0.249970 -0.129924
C81   C     C_R   0.053139 0.521880 0.899203 -0.109228
C82   C     C_R   0.945415 0.481779 0.100921 -0.106877
C83   C     C_R   0.945822 0.480642 0.898414 -0.100126
C84   C     C_R   0.053836 0.520042 0.101648 -0.102628
C85   C     C_R   0.555819 0.986437 0.899022 -0.102838
C86   C     C_R   0.443801 0.012266 0.101036 -0.102853
C87   C     C_R   0.443660 0.011600 0.898485 -0.108427
C88   C     C_R   0.555721 0.986114 0.101528 -0.100468
C89   C     C_R   0.999650 0.500801 0.949468 -0.042736
C90   C     C_R   0.999687 0.500709 0.050614 -0.044247
C91   C     C_R   0.499756 0.999132 0.949435 -0.046181
C92   C     C_R   0.499761 0.999193 0.050593 -0.043899
C93   C     C_R   0.105867 0.544711 0.950560 0.402868
C94   C     C_R   0.890760 0.463937 0.049681 0.394353
C95   C     C_R   0.891759 0.461023 0.948880 0.395838
C96   C     C_R   0.107450 0.540793 0.051255 0.396002
C97   C     C_R   0.611794 0.973431 0.950132 0.397514
C98   C     C_R   0.387862 0.025527 0.049950 0.396768
C99   C     C_R   0.387324 0.023096 0.949059 0.408459
C100  C     C_R   0.611310 0.971486 0.050981 0.395809
H17   H     H_    0.906634 0.466235 0.756718 0.174654
H18   H     H_    0.093589 0.533073 0.243278 0.175013
H19   H     H_    0.092726 0.535664 0.758184 0.176342
H20   H     H_    0.906039 0.467913 0.242143 0.171275
H21   H     H_    0.403114 0.021268 0.756695 0.171466
H22   H     H_    0.596733 0.978211 0.243261 0.172930
H23   H     H_    0.596666 0.977792 0.757608 0.169632
H24   H     H_    0.403084 0.021115 0.242507 0.172740
Cl1   Cl    Cl    0.280202 0.617231 0.728795 -0.498201
Cl2   Cl    Cl    0.748776 0.353573 0.236780 -0.493815
Cl3   Cl    Cl    0.748276 0.644868 0.236752 -0.556560
Cl4   Cl    Cl    0.249017 0.352962 0.235497 -0.545562
Cl5   Cl    Cl    0.761457 0.136624 0.753848 -0.577611
Cl6   Cl    Cl    0.238089 0.864507 0.248165 -0.494782
Cl7   Cl    Cl    0.256327 0.152362 0.768454 -0.483797
Cl8   Cl    Cl    0.746307 0.849913 0.767437 -0.481247
Cl9   Cl    Cl    0.867522 0.237694 0.750831 -0.542689
Cl10  Cl    Cl    0.134523 0.760221 0.248073 -0.496147
Cl11  Cl    Cl    0.152675 0.256164 0.768559 -0.472429
Cl12  Cl    Cl    0.849906 0.746077 0.767507 -0.494008
Cl13  Cl    Cl    0.379035 0.726107 0.736057 -0.492239
Cl14  Cl    Cl    0.644420 0.250360 0.237618 -0.476247
Cl15  Cl    Cl    0.642650 0.746373 0.238650 -0.544480
Cl16  Cl    Cl    0.354436 0.251116 0.236994 -0.534508
O17   O     O_3   0.156639 0.570507 0.902873 -0.580821
C101  C     C_3   0.147212 0.636260 0.897361 -0.124144
H25   H     H_    0.143139 0.658072 0.969466 0.200530
H26   H     H_    0.104920 0.647655 0.853420 0.127519
H27   H     H_    0.188571 0.658018 0.862380 0.230875
O18   O     O_3   0.836697 0.446549 0.097769 -0.588688
C102  C     C_3   0.798312 0.500370 0.107818 -0.063362
H28   H     H_    0.782687 0.518540 0.037172 0.196911
H29   H     H_    0.822864 0.538173 0.148836 0.149649
H30   H     H_    0.755479 0.487152 0.148311 0.237942
O19   O     O_3   0.838010 0.442818 0.899911 -0.615911
C103  C     C_3   0.838707 0.376665 0.890390 -0.115889
H31   H     H_    0.835258 0.353180 0.961095 0.221122
H32   H     H_    0.881579 0.360297 0.852022 0.163134
H33   H     H_    0.797121 0.362040 0.847476 0.210523
O20   O     O_3   0.160006 0.562131 0.100312 -0.605152
C104  C     C_3   0.203367 0.512028 0.107260 -0.112451
H34   H     H_    0.220292 0.497045 0.035619 0.210944
H35   H     H_    0.182732 0.471160 0.145931 0.162027
H36   H     H_    0.244929 0.528432 0.148708 0.211773
O21   O     O_3   0.666476 0.958505 0.901741 -0.589685
C105  C     C_3   0.702814 0.013771 0.892638 -0.069455
H37   H     H_    0.719147 0.031290 0.963431 0.200721
H38   H     H_    0.676221 0.051342 0.854535 0.150956
H39   H     H_    0.745240 0.002616 0.849750 0.239750
O22   O     O_3   0.332434 0.037574 0.098340 -0.604907
C106  C     C_3   0.326283 0.103370 0.109101 -0.106615
H40   H     H_    0.320339 0.126914 0.038746 0.225142
H41   H     H_    0.367256 0.123927 0.148233 0.158941
H42   H     H_    0.283448 0.113157 0.151880 0.208998
O23   O     O_3   0.332054 0.035796 0.900193 -0.575889
C107  C     C_3   0.298133 0.978999 0.889554 -0.136129
H43   H     H_    0.284036 0.959458 0.959963 0.207963
H44   H     H_    0.325560 0.943390 0.848547 0.127483
H45   H     H_    0.254366 0.988864 0.848720 0.214813
O24   O     O_3   0.666489 0.958292 0.099807 -0.620009
C108  C     C_3   0.670700 0.892460 0.111662 -0.116687
H46   H     H_    0.674873 0.867885 0.041710 0.226705
H47   H     H_    0.629671 0.873743 0.152059 0.160992
H48   H     H_    0.713792 0.881780 0.153659 0.207799

loop_
_geom_bond_atom_site_label_1
_geom_bond_atom_site_label_2
_geom_bond_distance
_ccdc_geom_bond_type
C63   C67   1.396791 A    
C102  H28   1.112898 S    
O22   C106  1.409605 S    
C8    C21   1.434540 S    
O10   Zn4   2.019110 S    
O5    Zn2   2.018191 S    
C75   C81   1.412388 A    
C40   C64   1.409923 A    
C108  H46   1.112886 S    
C16   H8    1.082087 S    
C14   C22   1.389544 A    
C23   C31   1.390345 A    
C74   N2    1.362649 A    
O21   C105  1.408488 S    
C29   C37   1.389935 A    
C12   C52   1.388448 A    
C104  H34   1.113022 S    
O10   C6    1.284247 A    
C26   H10   1.082093 S    
O13   C7    1.282895 A    
C35   C59   1.409607 A    
O17   C101  1.411490 S    
C7    C22   1.434073 S    
C87   C99   1.412464 A    
C70   Cl14  1.773840 S    
C54   C69   1.409919 A    
C19   C27   1.390199 A    
O2    C2    1.284452 A    
C39   C63   1.409841 A    
C53   C70   1.409390 A    
C38   C62   1.409639 A    
C80   N4    1.363021 A    
O6    Zn1   2.018189 S    
C63   Cl7   1.774203 S    
O18   C102  1.410003 S    
O14   C8    1.284305 A    
C28   H12   1.081901 S    
C79   H23   1.082005 S    
C61   Cl5   1.770001 S    
C42   C50   1.418097 A    
O3    C2    1.283706 A    
C20   C28   1.390117 A    
C77   H21   1.081981 S    
C74   H18   1.081563 S    
C82   C94   1.412263 A    
C32   C40   1.388487 A    
C74   C84   1.411761 A    
C77   N3    1.363042 A    
C33   C41   1.418717 A    
C41   C46   1.394159 A    
C38   C46   1.418392 A    
C103  H33   1.109347 S    
O19   C103  1.409280 S    
C11   C19   1.390558 A    
O24   C108  1.409567 S    
C35   C43   1.418495 A    
C93   C96   1.414037 A    
C36   C44   1.418321 A    
O13   Zn4   2.018191 S    
O11   Zn3   2.018711 S    
O14   Zn3   2.018189 S    
C15   C23   1.390555 A    
C59   C71   1.396697 A    
O9    Zn3   2.019111 S    
C75   H19   1.081670 S    
C39   C47   1.418185 A    
C72   Cl16  1.772747 S    
O16   Zn3   2.015019 S    
C11   C51   1.388561 A    
C27   C35   1.389321 A    
C25   C33   1.391444 A    
C80   C86   1.412826 A    
C83   C89   1.410618 A    
C79   C85   1.412843 A    
C101  H26   1.113448 S    
O8    Zn1   2.015019 S    
C108  H47   1.113158 S    
C71   Cl15  1.772817 S    
C98   O22   1.382922 S    
C65   Cl9   1.772864 S    
C107  H45   1.109260 S    
C15   H7    1.081964 S    
C88   C92   1.411124 A    
C69   Cl13  1.772924 S    
C10   C50   1.388487 A    
C99   O23   1.382746 S    
C61   C65   1.396241 A    
C9    C49   1.388370 A    
C104  H35   1.113506 S    
C97   O21   1.382169 S    
C81   C93   1.412307 A    
C102  H30   1.108923 S    
O8    C3    1.284007 A    
C27   H11   1.082110 S    
C84   C96   1.411203 A    
C73   N1    1.363245 A    
C106  H40   1.113227 S    
C30   C38   1.389035 A    
C44   C47   1.393404 A    
C60   Cl4   1.773673 S    
O3    Zn1   2.018711 S    
C78   H22   1.081926 S    
C107  H44   1.113628 S    
Zn4   N4    2.001555 S    
C45   C53   1.417662 A    
C57   Cl1   1.772055 S    
C80   H24   1.081991 S    
C9    H1    1.082196 S    
C73   C83   1.412469 A    
C29   H13   1.082212 S    
C34   C42   1.417947 A    
C85   C97   1.412314 A    
C62   C66   1.397228 A    
O12   C5    1.284244 A    
C58   C70   1.396417 A    
C51   C68   1.410078 A    
C83   C95   1.412140 A    
C1    C20   1.436496 S    
C95   O19   1.382710 S    
C60   C72   1.396836 A    
C33   C57   1.409258 A    
C2    C19   1.436547 S    
C106  H41   1.113848 S    
C76   C82   1.412419 A    
C3    C18   1.433572 S    
C93   O17   1.382435 S    
C5    C24   1.436096 S    
C78   C88   1.412294 A    
C85   C91   1.411054 A    
C6    C23   1.436428 S    
C86   C92   1.410957 A    
C57   C69   1.398117 A    
C26   C34   1.388288 A    
C84   C90   1.410835 A    
O2    Zn2   2.019110 S    
O15   C8    1.282819 A    
C68   Cl12  1.773971 S    
C66   Cl10  1.773575 S    
C40   C48   1.418306 A    
C25   H9    1.082509 S    
C55   C72   1.409864 A    
C22   C30   1.389219 A    
C77   C87   1.412787 A    
O4    C1    1.284423 A    
C13   C53   1.387542 A    
C103  H31   1.112778 S    
C12   H4    1.081737 S    
C43   C51   1.418109 A    
O16   C7    1.283944 A    
C79   N3    1.362970 A    
C12   C20   1.390410 A    
C101  H25   1.113887 S    
C108  H48   1.109308 S    
C37   C61   1.409360 A    
C15   C55   1.389211 A    
C31   C39   1.388174 A    
C17   C25   1.389276 A    
C91   C92   1.417582 A    
C52   C67   1.409927 A    
O20   C104  1.409612 S    
C58   Cl2   1.772254 S    
C59   Cl3   1.772891 S    
C89   C90   1.417417 A    
C104  H36   1.109192 S    
C41   C49   1.417606 A    
C28   C36   1.388920 A    
C43   C48   1.393617 A    
C86   C98   1.412597 A    
C42   C45   1.393275 A    
C73   H17   1.081492 S    
Zn2   N2    2.001555 S    
C81   C89   1.410360 A    
C107  H43   1.112930 S    
Zn1   N1    2.001553 S    
C24   C32   1.390426 A    
O4    Zn2   2.018710 S    
O1    Zn1   2.019111 S    
C94   C95   1.414004 A    
O5    C3    1.282646 A    
Zn3   N3    2.001553 S    
C48   C56   1.418404 A    
C21   C29   1.389775 A    
O6    C4    1.285159 A    
C96   O20   1.382767 S    
O11   C6    1.283885 A    
O1    C1    1.283726 A    
C36   C60   1.409583 A    
C75   N1    1.363738 A    
C13   C21   1.389773 A    
C76   H20   1.081675 S    
C105  H39   1.109226 S    
C100  O24   1.382945 S    
C106  H42   1.109705 S    
C10   H2    1.082156 S    
C76   N2    1.363233 A    
C4    C17   1.433950 S    
C64   Cl8   1.774049 S    
O9    C5    1.283714 A    
O15   Zn4   2.015015 S    
C64   C68   1.396864 A    
O7    Zn2   2.015015 S    
C11   H3    1.081835 S    
C97   C100  1.414036 A    
C103  H32   1.113371 S    
C14   H6    1.082175 S    
C34   C58   1.409439 A    
C67   Cl11  1.773806 S    
C13   H5    1.081898 S    
C44   C52   1.418114 A    
C88   C100  1.411938 A    
C87   C91   1.411144 A    
C18   C26   1.389939 A    
C16   C24   1.390367 A    
C98   C99   1.414652 A    
C56   C71   1.409683 A    
O23   C107  1.409820 S    
C62   Cl6   1.773755 S    
C102  H29   1.113157 S    
C16   C56   1.389144 A    
C47   C55   1.418373 A    
C32   H16   1.082008 S    
C101  H27   1.107247 S    
C31   H15   1.081872 S    
O7    C4    1.281624 A    
C94   O18   1.382259 S    
C9    C17   1.389896 A    
C30   H14   1.082230 S    
C14   C54   1.390656 A    
C10   C18   1.389266 A    
O12   Zn4   2.018710 S    
C105  H37   1.112522 S    
C50   C65   1.408657 A    
C105  H38   1.113380 S    
C82   C90   1.410402 A    
C78   N4    1.362382 A    
C49   C66   1.409808 A    
C37   C45   1.418302 A    
C46   C54   1.418333 A    
