data_mof_unit_12457.cif
_audit_creation_date              2012-12-11T17:36:12-0500
_audit_creation_method            fapswitch 2.2
_symmetry_space_group_name_H-M    P1
_symmetry_Int_Tables_number       1
_space_group_crystal_system       triclinic
_cell_length_a                    25.858899
_cell_length_b                    6.898403
_cell_length_c                    21.699608
_cell_angle_alpha                 90.007301
_cell_angle_beta                  96.152238
_cell_angle_gamma                 90.007523
_cell_volume                      3848.59300762

loop_
_atom_site_label
_atom_site_type_symbol
_atom_type_description
_atom_site_fract_x
_atom_site_fract_y
_atom_site_fract_z
_atom_type_partial_charge
O1    O     O_R   0.208650 0.594520 0.175450 -0.538230
O2    O     O_R   0.791350 0.405480 0.824550 -0.538230
O3    O     O_R   0.291350 0.094520 0.324550 -0.538280
O4    O     O_R   0.708650 0.905480 0.675450 -0.538281
O5    O     O_R   0.192980 0.260780 0.300160 -0.515644
O6    O     O_R   0.807020 0.739220 0.699840 -0.515644
O7    O     O_R   0.307020 0.760780 0.199840 -0.515622
O8    O     O_R   0.692980 0.239220 0.800160 -0.515622
C1    C     C_R   0.178174 0.432391 0.317619 0.722566
C2    C     C_R   0.821826 0.567609 0.682381 0.722567
C3    C     C_R   0.321830 0.932396 0.182387 0.722619
C4    C     C_R   0.678170 0.067604 0.817613 0.722619
O9    O     O_R   0.202550 0.264660 0.174420 -0.536072
O10   O     O_R   0.797450 0.735340 0.825580 -0.536071
O11   O     O_R   0.297450 0.764660 0.325580 -0.536034
O12   O     O_R   0.702550 0.235340 0.674420 -0.536034
O13   O     O_R   0.300990 0.096480 0.197920 -0.539878
O14   O     O_R   0.699010 0.903520 0.802080 -0.539877
O15   O     O_R   0.199010 0.596480 0.302080 -0.539872
O16   O     O_R   0.800990 0.403520 0.697920 -0.539872
C5    C     C_R   0.190898 0.433803 0.151216 0.682640
C6    C     C_R   0.809102 0.566196 0.848784 0.682639
C7    C     C_R   0.309096 0.933846 0.348786 0.682567
C8    C     C_R   0.690904 0.066154 0.651214 0.682567
O17   O     O_3   0.282290 0.427760 0.257860 -0.351949
O18   O     O_3   0.717710 0.572240 0.742140 -0.351949
O19   O     O_3   0.217710 0.927760 0.242140 -0.351961
O20   O     O_3   0.782290 0.072240 0.757860 -0.351961
V1    V     V_3+5 0.244010 0.152080 0.248540 1.515757
V2    V     V_3+5 0.755990 0.847920 0.751460 1.515756
V3    V     V_3+5 0.255990 0.652080 0.251460 1.515708
V4    V     V_3+5 0.744010 0.347920 0.748540 1.515708
C9    C     C_R   0.658306 0.056154 0.590972 -0.128813
C10   C     C_R   0.341694 0.943846 0.409028 -0.128813
C11   C     C_R   0.841709 0.556414 0.909023 -0.128843
C12   C     C_R   0.158291 0.443586 0.090977 -0.128842
C13   C     C_R   0.648954 0.049230 0.478687 -0.124593
C14   C     C_R   0.351045 0.950769 0.521313 -0.124593
C15   C     C_R   0.851121 0.552121 0.021322 -0.124599
C16   C     C_R   0.148879 0.447879 0.978678 -0.124599
C17   C     C_R   0.681135 0.060236 0.534835 -0.032729
C18   C     C_R   0.318865 0.939764 0.465165 -0.032729
C19   C     C_R   0.818922 0.562279 0.965173 -0.032624
C20   C     C_R   0.181077 0.437721 0.034827 -0.032624
C21   C     C_R   0.603948 0.039185 0.589921 -0.188670
C22   C     C_R   0.396051 0.960815 0.410079 -0.188670
C23   C     C_R   0.896042 0.538470 0.910067 -0.188649
C24   C     C_R   0.103958 0.461530 0.089933 -0.188649
C25   C     C_R   0.570905 0.025871 0.533184 0.085653
C26   C     C_R   0.429095 0.974129 0.466815 0.085653
C27   C     C_R   0.929104 0.526057 0.966811 0.085665
C28   C     C_R   0.070896 0.473943 0.033189 0.085665
C29   C     C_R   0.594780 0.031956 0.477441 0.086647
C30   C     C_R   0.405220 0.968043 0.522559 0.086648
C31   C     C_R   0.905274 0.534003 0.022564 0.086641
C32   C     C_R   0.094726 0.465997 0.977436 0.086641
C33   C     C_R   0.515246 0.006335 0.529659 0.058550
C34   C     C_R   0.484754 0.993665 0.470341 0.058550
C35   C     C_R   0.984742 0.505757 0.970336 0.058545
C36   C     C_R   0.015258 0.494243 0.029664 0.058545
C37   C     C_R   0.510956 0.001288 0.416614 -0.163715
C38   C     C_R   0.489044 0.998712 0.583386 -0.163715
C39   C     C_R   0.989101 0.503740 0.083396 -0.163691
C40   C     C_R   0.010899 0.496260 0.916604 -0.163691
C41   C     C_R   0.564635 0.019943 0.420288 -0.172402
C42   C     C_R   0.435364 0.980057 0.579712 -0.172402
C43   C     C_R   0.935441 0.523078 0.079723 -0.172384
C44   C     C_R   0.064559 0.476922 0.920277 -0.172383
H1    H     H_    0.582839 0.024729 0.377559 0.139596
H2    H     H_    0.417161 0.975271 0.622441 0.139596
H3    H     H_    0.917272 0.529319 0.122458 0.139606
H4    H     H_    0.082728 0.470681 0.877542 0.139606
H5    H     H_    0.411071 0.963853 0.365671 0.117664
H6    H     H_    0.588929 0.036147 0.634329 0.117664
H7    H     H_    0.088967 0.465833 0.134348 0.117617
H8    H     H_    0.911033 0.534167 0.865652 0.117617
H9    H     H_    0.666251 0.052606 0.435325 0.164728
H10   H     H_    0.333749 0.947394 0.564675 0.164728
H11   H     H_    0.833855 0.556887 0.064693 0.164718
H12   H     H_    0.166145 0.443113 0.935307 0.164718
H13   H     H_    0.491114 0.993096 0.370493 0.139043
H14   H     H_    0.508886 0.006904 0.629507 0.139043
H15   H     H_    0.008965 0.496559 0.129523 0.139024
H16   H     H_    0.991035 0.503441 0.870477 0.139024
C45   C     C_R   0.440687 0.811893 0.096736 -0.139910
C46   C     C_R   0.559313 0.188107 0.903264 -0.139910
C47   C     C_R   0.059312 0.311889 0.403262 -0.139794
C48   C     C_R   0.940688 0.688111 0.596738 -0.139794
H17   H     H_    0.469183 0.697500 0.094761 0.150097
H18   H     H_    0.530817 0.302500 0.905238 0.150096
H19   H     H_    0.030805 0.197499 0.405224 0.150088
H20   H     H_    0.969195 0.802501 0.594776 0.150088
C49   C     C_R   0.402182 0.794147 0.137543 0.251209
C50   C     C_R   0.597817 0.205853 0.862457 0.251209
C51   C     C_R   0.097817 0.294135 0.362458 0.251300
C52   C     C_R   0.902182 0.705864 0.637541 0.251300
C53   C     C_R   0.364543 0.943061 0.140849 -0.119855
C54   C     C_R   0.635457 0.056939 0.859150 -0.119855
C55   C     C_R   0.135468 0.443051 0.359165 -0.119718
C56   C     C_R   0.864532 0.556949 0.640835 -0.119718
C57   C     C_R   0.367916 0.107965 0.103020 -0.137871
C58   C     C_R   0.632084 0.892035 0.896980 -0.137871
C59   C     C_R   0.132114 0.607945 0.397017 -0.138151
C60   C     C_R   0.867886 0.392055 0.602983 -0.138151
H21   H     H_    0.340241 0.225105 0.104172 0.154341
H22   H     H_    0.659759 0.774895 0.895827 0.154341
H23   H     H_    0.159809 0.725065 0.395887 0.154212
H24   H     H_    0.840191 0.274935 0.604113 0.154212
C61   C     C_R   0.406610 0.124210 0.062762 -0.083321
C62   C     C_R   0.593390 0.875790 0.937238 -0.083321
C63   C     C_R   0.093417 0.624197 0.437271 -0.083461
C64   C     C_R   0.906583 0.375803 0.562729 -0.083461
H25   H     H_    0.407968 0.252813 0.034317 0.140509
H26   H     H_    0.592032 0.747187 0.965683 0.140509
H27   H     H_    0.092071 0.752793 0.465731 0.140545
H28   H     H_    0.907929 0.247207 0.534269 0.140545
C65   C     C_R   0.443098 0.976053 0.059185 0.057820
C66   C     C_R   0.556902 0.023947 0.940815 0.057820
C67   C     C_R   0.056911 0.476052 0.440827 0.057896
C68   C     C_R   0.943088 0.523948 0.559173 0.057896
C69   C     C_1   0.483232 0.992966 0.017433 -0.013609
C70   C     C_1   0.516768 0.007034 0.982567 -0.013609
C71   C     C_1   0.016771 0.492968 0.482571 -0.013596
C72   C     C_1   0.983229 0.507031 0.517429 -0.013596
C73   C     C_2   0.261519 0.926019 0.465706 0.380169
H29   H     H_    0.235979 0.926668 0.422704 0.027173
O21   O     O_2   0.241944 0.914431 0.514354 -0.518605
C74   C     C_2   0.738481 0.073981 0.534294 0.380169
H30   H     H_    0.764021 0.073332 0.577296 0.027173
O22   O     O_2   0.758056 0.085569 0.485646 -0.518605
C75   C     C_2   0.238402 0.423011 0.034273 0.380291
H31   H     H_    0.263967 0.424722 0.077250 0.026949
O23   O     O_2   0.257930 0.409444 0.985642 -0.518672
C76   C     C_2   0.761597 0.576988 0.965727 0.380291
H32   H     H_    0.736033 0.575278 0.922750 0.026949
O24   O     O_2   0.742070 0.590556 0.014358 -0.518672
Br1   Br    Br    0.405996 0.567756 0.189442 -0.568225
Br2   Br    Br    0.594004 0.432244 0.810558 -0.568225
Br3   Br    Br    0.093995 0.067715 0.310551 -0.568111
Br4   Br    Br    0.906005 0.932285 0.689449 -0.568111

loop_
_geom_bond_atom_site_label_1
_geom_bond_atom_site_label_2
_ccdc_geom_bond_type
O17   V3    S    
C55   C59   A    
C48   C52   A    
O1    C5    A    
C47   H19   S    
O19   V1    S    
C9    C21   A    
O3    C7    A    
C10   C18   A    
C56   C60   A    
O15   V3    S    
C74   H30   S    
C62   C66   A    
C61   C65   A    
C71   C72   T    
C5    C12   S    
C20   C75   S    
O7    C3    A    
C6    C11   S    
C35   C40   A    
C26   C30   A    
C36   C39   A    
C40   C44   A    
O2    V4    S    
O9    V1    S    
C23   H8    S    
C14   C18   A    
O4    C8    A    
C51   C55   A    
C43   H3    S    
C50   C54   A    
C57   C61   A    
C60   H24   S    
O1    V3    S    
O13   V1    S    
C59   C63   A    
C66   C70   S    
O3    V1    S    
C65   C69   S    
C40   H16   S    
C46   C50   A    
C18   C73   S    
C45   C49   A    
C1    O15   A    
C15   C31   A    
C48   H20   S    
C2    O16   A    
C16   C32   A    
C47   C51   A    
O2    C6    A    
C16   H12   S    
C58   H22   S    
C10   C22   A    
C21   C25   A    
C48   C68   A    
C11   C19   A    
C62   H26   S    
C16   C20   A    
C4    C54   S    
C12   C20   A    
C44   H4    S    
C13   C29   A    
C34   C37   A    
O11   C7    A    
C38   H14   S    
C11   C23   A    
C35   C36   A    
O12   C8    A    
O17   V1    S    
C17   C74   S    
C47   C67   A    
O10   V2    S    
O5    V1    S    
C57   H21   S    
C39   C43   A    
O7    V3    S    
C38   C42   A    
O19   V3    S    
C26   C34   A    
C33   C38   A    
C46   H18   S    
C60   C64   A    
C45   H17   S    
O18   V4    S    
C2    C56   S    
C76   O24   D    
C14   H10   S    
C32   C44   A    
C13   H9    S    
C39   H15   S    
C21   H6    S    
O8    V4    S    
C37   H13   S    
C19   C76   S    
C45   C65   A    
O5    C1    A    
C1    C55   S    
C63   H27   S    
C31   C43   A    
C14   C30   A    
O20   V4    S    
O8    C4    A    
C7    C10   S    
O9    C5    A    
C46   C66   A    
C24   H7    S    
C69   C70   T    
O14   V2    S    
C63   C67   A    
O6    V2    S    
O18   V2    S    
C67   C71   S    
C73   H29   S    
C50   Br2   S    
C58   C62   A    
C27   C35   A    
C75   H31   S    
C49   C53   A    
C64   H28   S    
C29   C41   A    
C64   C68   A    
O16   V4    S    
C3    O13   A    
C75   O23   D    
C74   O22   D    
C52   Br4   S    
C25   C33   A    
C23   C27   A    
O11   V3    S    
C76   H32   S    
C30   C42   A    
C61   H25   S    
O12   V4    S    
C22   C26   A    
C51   Br3   S    
C8    C9    S    
C3    C53   S    
C9    C17   A    
O10   C6    A    
O20   V2    S    
C54   C58   A    
C33   C34   A    
C42   H2    S    
C41   H1    S    
C52   C56   A    
C12   C24   A    
C27   C31   A    
C13   C17   A    
C68   C72   S    
O4    V2    S    
C25   C29   A    
C49   Br1   S    
O6    C2    A    
C37   C41   A    
C24   C28   A    
C15   C19   A    
C28   C36   A    
C4    O14   A    
C73   O21   D    
C59   H23   S    
C22   H5    S    
C53   C57   A    
C28   C32   A    
C15   H11   S    
