data_mof_unit_6664.cif
_audit_creation_date              2012-12-10T20:49:44-0500
_audit_creation_method            fapswitch 2.2
_symmetry_space_group_name_H-M    P1
_symmetry_Int_Tables_number       1
_space_group_crystal_system       triclinic
_cell_length_a                    8.097774
_cell_length_b                    8.917388
_cell_length_c                    17.126288
_cell_angle_alpha                 90.009722
_cell_angle_beta                  83.918807
_cell_angle_gamma                 89.978422
_cell_volume                      1229.74691395

loop_
_atom_site_label
_atom_site_type_symbol
_atom_type_description
_atom_site_fract_x
_atom_site_fract_y
_atom_site_fract_z
_atom_type_partial_charge
C1    C     C_R   0.500027 0.781999 0.499781 1.010197
C2    C     C_R   0.500040 0.218007 0.499907 1.006355
C3    C     C_1   0.500031 0.934838 0.499714 -0.052582
C4    C     C_1   0.500080 0.065238 0.499763 -0.106750
C5    C     C_R   0.475272 0.501078 0.652867 1.011069
C6    C     C_R   0.524718 0.501218 0.347129 1.011366
C7    C     C_R   0.454803 0.510823 0.737914 -0.290951
C8    C     C_R   0.545204 0.511233 0.262084 -0.318070
C9    C     C_R   0.540490 0.623683 0.775771 0.344650
C10   C     C_R   0.457818 0.623063 0.224261 0.395595
C11   C     C_R   0.526230 0.627294 0.856939 -0.212046
C12   C     C_R   0.473012 0.627310 0.143089 -0.180524
C13   C     C_R   0.426404 0.523821 0.900639 0.034266
C14   C     C_R   0.574963 0.525327 0.099367 0.007884
C15   C     C_R   0.332933 0.419400 0.864313 -0.203188
C16   C     C_R   0.669774 0.421949 0.135674 -0.195224
C17   C     C_R   0.347829 0.409340 0.782769 0.394487
C18   C     C_R   0.654285 0.411321 0.217197 0.406884
C19   C     C_2   0.428253 0.519454 0.984848 -0.154896
C20   C     C_2   0.573445 0.520921 0.015144 -0.147966
H1    H     H_    0.255434 0.341118 0.899973 0.197346
H2    H     H_    0.748846 0.344799 0.099987 0.199623
H3    H     H_    0.404324 0.709694 0.113104 0.213229
H4    H     H_    0.593906 0.710429 0.886907 0.197041
H5    H     H_    0.690619 0.513662 0.977888 0.180795
H6    H     H_    0.311324 0.509939 0.022127 0.178499
N1    N     N_1   0.926360 0.500000 0.499990 0.032156
N2    N     N_1   0.073640 0.500000 0.500010 0.032612
O1    O     O_R   0.363150 0.714660 0.500000 -0.608041
O2    O     O_R   0.636850 0.285340 0.500000 -0.608241
O3    O     O_R   0.636850 0.714660 0.500000 -0.607745
O4    O     O_R   0.363150 0.285340 0.500000 -0.611103
O5    O     O_R   0.346950 0.500000 0.615800 -0.585979
O6    O     O_R   0.653050 0.500000 0.384200 -0.585051
O7    O     O_R   0.620700 0.500000 0.615800 -0.576591
O8    O     O_R   0.379300 0.500000 0.384200 -0.576530
Zn1   Zn    Zn3+2 0.317220 0.500000 0.500010 1.139490
Zn2   Zn    Zn3+2 0.682780 0.500000 0.499990 1.141348
S1    S     S_3+6 0.660518 0.766724 0.725058 0.073266
O9    O     O_2   0.816970 0.700745 0.683917 -0.214734
O10   O     O_2   0.562094 0.837896 0.665506 -0.343727
O11   O     O_3   0.713053 0.899912 0.787515 -0.486738
H7    H     H_    0.609914 0.958128 0.801523 0.376996
S2    S     S_3+6 0.334689 0.764297 0.274964 0.056873
O12   O     O_2   0.180039 0.695821 0.316500 -0.257189
O13   O     O_2   0.433207 0.837938 0.333722 -0.337329
O14   O     O_3   0.279706 0.895438 0.211970 -0.521207
H8    H     H_    0.216190 0.970941 0.245322 0.412990
S3    S     S_3+6 0.763826 0.265291 0.259800 0.056158
O15   O     O_2   0.839085 0.159423 0.197530 -0.275173
O16   O     O_2   0.900067 0.331356 0.302116 -0.261906
O17   O     O_3   0.632078 0.169422 0.323737 -0.559854
H9    H     H_    0.698351 0.084619 0.341047 0.392585
S4    S     S_3+6 0.240446 0.262140 0.740036 0.059076
O18   O     O_2   0.166087 0.155800 0.802238 -0.265586
O19   O     O_2   0.103787 0.326691 0.697433 -0.245964
O20   O     O_3   0.373853 0.167329 0.676347 -0.568173
H10   H     H_    0.308892 0.081629 0.659097 0.396221

loop_
_geom_bond_atom_site_label_1
_geom_bond_atom_site_label_2
_ccdc_geom_bond_type
C1    C3    S    
C2    C4    S    
O3    Zn2   S    
C15   C17   A    
C14   C20   S    
C8    C18   A    
C9    C11   A    
C19   C20   D    
S2    O14   S    
C15   H1    S    
C2    O2    A    
S3    O17   S    
C16   H2    S    
N1    N2    T    
C1    O1    A    
S1    O10   D    
O4    Zn1   S    
O17   H9    S    
C11   C13   A    
C12   H3    S    
C9    S1    S    
O20   H10   S    
C10   C12   A    
N2    Zn1   S    
C5    O7    A    
C16   C18   A    
O8    Zn1   S    
C6    O8    A    
S1    O11   S    
S4    O19   D    
C13   C15   A    
C14   C16   A    
O11   H7    S    
C13   C19   S    
N1    Zn2   S    
C10   S2    S    
C3    C4    T    
O14   H8    S    
C7    C9    A    
C11   H4    S    
C1    O3    A    
O7    Zn2   S    
S2    O12   D    
O2    Zn2   S    
C2    O4    A    
S3    O15   D    
C20   H5    S    
O1    Zn1   S    
S1    O9    D    
C5    C7    S    
C19   H6    S    
S4    O18   D    
C6    C8    S    
S2    O13   D    
C7    C17   A    
O6    Zn2   S    
C17   S4    S    
C8    C10   A    
O5    Zn1   S    
C6    O6    A    
C18   S3    S    
C12   C14   A    
S3    O16   D    
S4    O20   S    
C5    O5    A    
