data_mof_unit_40340.cif
_audit_creation_date              2012-12-10T17:59:16-0500
_audit_creation_method            fapswitch 2.2
_symmetry_space_group_name_H-M    P1
_symmetry_Int_Tables_number       1
_space_group_crystal_system       triclinic
_cell_length_a                    10.978905
_cell_length_b                    9.563329
_cell_length_c                    10.898916
_cell_angle_alpha                 89.162887
_cell_angle_beta                  93.620586
_cell_angle_gamma                 89.738588
_cell_volume                      1141.90727825

loop_
_atom_site_label
_atom_site_type_symbol
_atom_type_description
_atom_site_fract_x
_atom_site_fract_y
_atom_site_fract_z
_atom_type_partial_charge
C1    C     C_R   0.262522 0.500635 0.502752 0.840165
C2    C     C_3   0.642771 0.513321 0.930277 -0.041687
C3    C     C_R   0.068135 0.383791 0.549114 0.079821
C4    C     C_R   0.061917 0.624884 0.472298 0.097163
C5    C     C_R   0.940578 0.380124 0.541176 -0.033964
C6    C     C_R   0.934435 0.625491 0.471798 -0.064422
C7    C     C_R   0.872273 0.500912 0.502214 -0.191934
C8    C     C_R   0.128973 0.502980 0.507803 -0.038140
C9    C     C_R   0.412931 0.075354 0.430194 0.106300
C10   C     C_R   0.419886 0.927144 0.421732 0.067393
C11   C     C_R   0.580984 0.924174 0.575310 -0.000744
C12   C     C_R   0.582860 0.072453 0.573083 0.029879
C13   C     C_R   0.505816 0.500219 0.260044 0.768113
C14   C     C_R   0.737850 0.499931 0.500371 0.803567
C15   C     C_R   0.499666 0.498925 0.739296 0.809433
C16   C     C_3   0.440862 0.632773 0.063934 -0.223224
C17   C     C_3   0.438217 0.367091 0.067404 -0.194768
C18   C     C_3   0.424391 0.621733 0.921071 -0.289147
C19   C     C_3   0.449409 0.357071 0.927278 -0.223607
C20   C     C_3   0.648872 0.494649 0.077971 0.169953
C21   C     C_3   0.512495 0.499029 0.121510 0.015528
C22   C     C_3   0.503475 0.496712 0.876681 -0.078851
Cu1   Cu    Cu3+1 0.500020 0.640660 0.500000 0.982404
Cu2   Cu    Cu3+1 0.500020 0.359340 0.500000 1.033079
H1    H     H_    0.645934 0.867341 0.636042 0.191126
H2    H     H_    0.648742 0.126512 0.632602 0.179754
H3    H     H_    0.350147 0.630617 0.103560 0.174761
H4    H     H_    0.342077 0.391264 0.086288 0.200756
H5    H     H_    0.458084 0.719530 0.878736 0.107937
H6    H     H_    0.515571 0.272407 0.911322 0.196169
N1    N     N_R   0.500030 0.852070 0.500030 -0.216349
N2    N     N_R   0.500030 0.147930 0.500030 -0.198634
O1    O     O_R   0.319660 0.618740 0.499990 -0.619127
O2    O     O_R   0.319660 0.381260 0.499990 -0.553043
O3    O     O_R   0.499990 0.618790 0.317690 -0.581830
O4    O     O_R   0.499990 0.381210 0.317690 -0.513542
O5    O     O_R   0.680370 0.618830 0.500010 -0.571874
O6    O     O_R   0.680370 0.381170 0.500010 -0.547982
O7    O     O_R   0.500030 0.618780 0.682310 -0.596819
O8    O     O_R   0.500030 0.381220 0.682310 -0.582998
C23   C     C_2   0.486039 0.780040 0.094259 0.419680
H7    H     H_    0.437407 0.868021 0.049808 0.102524
O9    O     O_2   0.572231 0.805155 0.166330 -0.484294
C24   C     C_2   0.455551 0.218191 0.119193 0.501206
H8    H     H_    0.381575 0.144822 0.101704 0.127537
O10   O     O_2   0.548875 0.175082 0.173584 -0.482328
C25   C     C_2   0.291725 0.618087 0.870486 0.453718
H9    H     H_    0.271807 0.615603 0.771767 0.064504
O11   O     O_2   0.206267 0.619733 0.936952 -0.506741
C26   C     C_2   0.331175 0.307186 0.860587 0.272673
H10   H     H_    0.333521 0.263254 0.769818 0.130546
O12   O     O_2   0.233457 0.309227 0.908306 -0.520916
N3    N     N_3   0.723376 0.605550 0.137091 -0.552330
H11   H     H_    0.811893 0.601372 0.106845 0.214831
H12   H     H_    0.732466 0.586574 0.231797 0.200006
N4    N     N_3   0.706587 0.359914 0.116779 -0.508455
H13   H     H_    0.798974 0.359862 0.098614 0.210130
H14   H     H_    0.708362 0.350473 0.212602 0.260291
C27   C     C_2   0.687954 0.659028 0.892265 0.288385
H15   H     H_    0.663607 0.750965 0.942157 0.143086
O13   O     O_2   0.750224 0.676063 0.804093 -0.543400
C28   C     C_2   0.732288 0.409810 0.876084 0.413280
H16   H     H_    0.829722 0.427157 0.892085 0.105881
O14   O     O_2   0.699666 0.307784 0.817180 -0.594089
N5    N     N_3   0.136432 0.267563 0.603515 -0.597199
H17   H     H_    0.112506 0.177116 0.555460 0.226455
H18   H     H_    0.111084 0.253773 0.693686 0.243501
N6    N     N_3   0.123612 0.747874 0.432696 -0.594244
H19   H     H_    0.087680 0.778546 0.345213 0.240799
H20   H     H_    0.111989 0.828238 0.494889 0.260234
C29   C     C_2   0.882462 0.247545 0.576022 0.416912
H21   H     H_    0.874220 0.220833 0.672128 0.098647
O15   O     O_2   0.848357 0.165258 0.496668 -0.479229
C30   C     C_2   0.868976 0.757520 0.434628 0.437730
H22   H     H_    0.801861 0.759879 0.357484 0.116254
O16   O     O_2   0.887796 0.864251 0.492655 -0.497083
C31   C     C_2   0.298874 0.142917 0.377884 0.507375
H23   H     H_    0.212329 0.094791 0.395345 0.046020
O17   O     O_2   0.298532 0.241909 0.306597 -0.543387
C32   C     C_2   0.342938 0.856092 0.323430 0.346816
H24   H     H_    0.325578 0.746582 0.325158 0.166618
O18   O     O_2   0.298130 0.920241 0.233824 -0.602565

loop_
_geom_bond_atom_site_label_1
_geom_bond_atom_site_label_2
_ccdc_geom_bond_type
C16   C21   S    
C1    C8    S    
C23   H7    S    
C4    C8    A    
C18   C25   S    
C1    O1    A    
C25   O11   D    
C31   H23   S    
Cu2   O4    S    
C30   O16   D    
C13   O3    A    
C11   H1    S    
N4    H13   S    
C28   O14   D    
C9    N2    A    
Cu2   O8    S    
C10   N1    A    
C15   C22   S    
N6    H19   S    
N5    H18   S    
C2    C22   S    
Cu2   O6    S    
Cu1   Cu2   S    
C7    C14   S    
C9    C10   A    
C20   N4    S    
C16   H3    S    
C31   O17   D    
C11   N1    A    
C27   H15   S    
C12   N2    A    
C23   O9    D    
C3    N5    S    
C24   O10   D    
C1    O2    A    
C6    C30   S    
N3    H12   S    
C27   O13   D    
C30   H22   S    
C2    C20   S    
C19   C22   S    
C13   O4    A    
C4    C6    A    
C3    C8    A    
C5    C7    A    
C10   C32   S    
C2    C27   S    
C32   H24   S    
Cu1   O1    S    
N3    H11   S    
Cu2   O2    S    
C12   H2    S    
Cu1   N1    S    
Cu2   N2    S    
C28   H16   S    
C14   O6    A    
C26   O12   D    
C25   H9    S    
C26   H10   S    
C13   C21   S    
C18   H5    S    
C9    C31   S    
C15   O7    A    
C32   O18   D    
Cu1   O3    S    
C24   H8    S    
C4    N6    S    
C18   C22   S    
C17   H4    S    
C20   N3    S    
C3    C5    A    
C11   C12   A    
C6    C7    A    
C17   C24   S    
C29   H21   S    
C5    C29   S    
Cu1   O5    S    
C14   O5    A    
C19   C26   S    
Cu1   O7    S    
C17   C19   S    
N4    H14   S    
C17   C21   S    
C15   O8    A    
C20   C21   S    
C16   C18   S    
N5    H17   S    
C29   O15   D    
N6    H20   S    
C19   H6    S    
C16   C23   S    
C2    C28   S    
