data_mof_unit_33686.cif
_audit_creation_date              2012-12-10T19:43:18-0500
_audit_creation_method            fapswitch 2.2
_symmetry_space_group_name_H-M    P1
_symmetry_Int_Tables_number       1
_space_group_crystal_system       triclinic
_cell_length_a                    18.305016
_cell_length_b                    18.311477
_cell_length_c                    18.600444
_cell_angle_alpha                 119.218147
_cell_angle_beta                  89.59706
_cell_angle_gamma                 59.655162
_cell_volume                      4421.70692793

loop_
_atom_site_label
_atom_site_type_symbol
_atom_type_description
_atom_site_fract_x
_atom_site_fract_y
_atom_site_fract_z
_atom_type_partial_charge
C1    C     C_R   0.859719 0.779813 0.639135 0.593765
C2    C     C_R   0.307001 0.268611 0.742361 0.423901
C3    C     C_R   0.220449 0.306452 0.737285 0.164870
C4    C     C_R   0.139658 0.220297 0.361038 0.599403
C5    C     C_R   0.175560 0.392359 0.733039 0.356060
C6    C     C_R   0.262778 0.050203 0.325524 -0.081057
C7    C     C_R   0.188958 0.108611 0.308090 -0.014425
C8    C     C_R   0.160383 0.056706 0.243253 0.232933
C9    C     C_R   0.215791 0.947744 0.188911 0.413489
C10   C     C_R   0.299806 0.891616 0.196096 0.023941
C11   C     C_R   0.318275 0.944473 0.268639 -0.063508
C12   C     C_R   0.262607 0.661967 0.817761 0.129970
C13   C     C_3   0.401688 0.937134 0.281134 0.588514
C14   C     C_3   0.340072 0.054974 0.346142 0.559876
C15   C     C_R   0.221746 0.565214 0.337694 -0.049984
C16   C     C_R   0.859717 0.501331 0.641087 0.586941
C17   C     C_R   0.191025 0.503732 0.302972 0.000121
C18   C     C_R   0.208457 0.447175 0.211889 0.404083
C19   C     C_R   0.252754 0.455866 0.157976 0.195432
C20   C     C_R   0.294721 0.506968 0.193245 -0.040254
C21   C     C_R   0.277497 0.562380 0.283762 -0.065196
C22   C     C_3   0.232601 0.676374 0.345027 0.553080
C23   C     C_R   0.271368 0.567659 0.776110 -0.090344
C24   C     C_3   0.168122 0.679872 0.400965 0.601564
C25   C     C_R   0.842855 0.944024 0.717277 -0.033667
C26   C     C_R   0.803336 0.891184 0.693316 0.020497
C27   C     C_R   0.709981 0.945924 0.729252 0.395492
C28   C     C_R   0.138497 0.501459 0.360300 0.563999
C29   C     C_R   0.657497 0.051465 0.794465 0.237147
C30   C     C_R   0.696326 0.106464 0.812714 -0.029676
C31   C     C_R   0.790217 0.050584 0.776643 -0.067919
C32   C     C_3   0.858200 0.041526 0.824027 0.332682
C33   C     C_3   0.918090 0.924294 0.754084 0.464689
C34   C     C_R   0.245841 0.539642 0.701908 -0.106442
C35   C     C_R   0.708777 0.585778 0.340053 -0.080637
C36   C     C_R   0.802672 0.520182 0.307414 -0.019009
C37   C     C_R   0.843823 0.465658 0.217548 0.386758
C38   C     C_R   0.796075 0.446944 0.160856 0.164417
C39   C     C_R   0.699995 0.506189 0.194037 -0.060445
C40   C     C_R   0.859024 0.504853 0.361337 0.555712
C41   C     C_R   0.658760 0.581429 0.284350 -0.051123
C42   C     C_3   0.584955 0.608581 0.349001 0.806810
C43   C     C_3   0.640072 0.613049 0.409533 0.811318
C44   C     C_R   0.713960 0.545678 0.708243 -0.079256
C45   C     C_R   0.307364 0.495814 0.799537 0.071651
C46   C     C_R   0.804171 0.504242 0.699752 0.013515
C47   C     C_R   0.841072 0.465393 0.749168 0.405638
C48   C     C_R   0.787219 0.472549 0.809530 0.177330
C49   C     C_R   0.696467 0.510400 0.814598 -0.083576
C50   C     C_R   0.661154 0.549221 0.765152 -0.061176
C51   C     C_3   0.580671 0.653011 0.792427 0.571033
C52   C     C_R   0.140178 0.499274 0.640107 0.610426
C53   C     C_3   0.639942 0.649922 0.731366 0.525477
C54   C     C_R   0.356686 0.502779 0.138932 0.555599
C55   C     C_R   0.640344 0.503916 0.864042 0.538382
C56   C     C_R   0.291743 0.418039 0.762147 -0.085097
C57   C     C_R   0.359372 0.779610 0.139357 0.607668
C58   C     C_R   0.640433 0.219360 0.863023 0.578154
C59   C     C_R   0.641769 0.498911 0.139222 0.576827
C60   C     C_R   0.361212 0.498701 0.858371 0.584987
C61   C     C_R   0.266087 0.561437 0.644506 0.237648
C62   C     C_R   0.276872 0.641195 0.677754 0.420121
C63   C     C_R   0.267705 0.698005 0.766490 0.178706
C64   C     C_R   0.219737 0.436449 0.729855 -0.056873
C65   C     C_R   0.201473 0.492032 0.691197 0.086259
C66   C     C_R   0.342586 0.324157 0.755428 0.430899
F1    F     F_    0.186666 0.896653 0.131876 -0.495326
F2    F     F_    0.505793 0.703197 0.379643 -0.467558
F3    F     F_    0.295492 0.663171 0.623160 -0.443176
F4    F     F_    0.573873 0.530549 0.320598 -0.529622
F5    F     F_    0.600382 0.711260 0.483948 -0.484189
F6    F     F_    0.670358 0.537669 0.425077 -0.517351
F7    F     F_    0.928670 0.425620 0.742220 -0.479917
F8    F     F_    0.513301 0.645564 0.764824 -0.536892
F9    F     F_    0.660250 0.720578 0.773278 -0.554604
F10   F     F_    0.430199 0.279083 0.750043 -0.530979
F11   F     F_    0.356067 0.179823 0.737544 -0.466029
F12   F     F_    0.441564 0.883339 0.318148 -0.509392
F13   F     F_    0.087100 0.438257 0.741774 -0.511403
F14   F     F_    0.353366 0.108461 0.321069 -0.571685
F15   F     F_    0.177675 0.388230 0.175661 -0.495465
F16   F     F_    0.193144 0.728150 0.306224 -0.558949
F17   F     F_    0.173997 0.708107 0.483302 -0.469996
F18   F     F_    0.670518 0.895580 0.705506 -0.524235
F19   F     F_    0.930304 0.865780 0.785802 -0.613577
F20   F     F_    0.932922 0.420280 0.183954 -0.495571
H1    H     H_    0.151312 0.294057 0.868282 0.382173
H2    H     H_    0.946961 0.989424 0.936782 0.374285
H3    H     H_    0.094651 0.880820 0.767516 0.360244
H4    H     H_    0.806353 0.268044 0.094261 0.367226
H5    H     H_    0.739827 0.585267 0.005082 0.346421
H6    H     H_    0.633184 0.706215 0.968211 0.344385
H7    H     H_    0.646488 0.738202 0.635804 0.418246
H8    H     H_    0.291899 0.883213 0.760487 0.401547
H9    H     H_    0.078655 0.825602 0.926654 0.339476
H10   H     H_    0.928246 0.272805 0.312689 0.372060
H11   H     H_    0.469394 0.945273 0.102908 0.419443
H12   H     H_    0.205875 0.241356 0.550925 0.375344
H13   H     H_    0.173518 0.568223 0.078890 0.366668
H14   H     H_    0.284170 0.833124 0.520608 0.412206
H15   H     H_    0.317999 0.335060 0.433537 0.386155
H16   H     H_    0.987139 0.734494 0.306158 0.394622
H17   H     H_    0.483116 0.198493 0.000500 0.386687
H18   H     H_    0.978994 0.107762 0.735346 0.415915
O1    O     O_3   0.000000 0.500000 0.500000 -0.548007
O2    O     O_R   0.676550 0.268320 0.884150 -0.486533
O3    O     O_R   0.555150 0.560600 0.176460 -0.463589
O4    O     O_R   0.944950 0.731580 0.615800 -0.471245
O5    O     O_R   0.384220 0.439220 0.884170 -0.457385
O6    O     O_R   0.676580 0.439170 0.055020 -0.451798
O7    O     O_R   0.384230 0.560650 0.884170 -0.508083
O8    O     O_R   0.384260 0.731500 0.055040 -0.442099
O9    O     O_R   0.555100 0.268330 0.884160 -0.457183
O10   O     O_R   0.384250 0.560620 0.176470 -0.483264
O11   O     O_R   0.676570 0.439190 0.884150 -0.467600
O12   O     O_R   0.944910 0.439280 0.615800 -0.451103
O13   O     O_R   0.115780 0.268410 0.444920 -0.530821
O14   O     O_R   0.823470 0.560720 0.615800 -0.491896
O15   O     O_R   0.115800 0.439290 0.323490 -0.455965
O16   O     O_R   0.823460 0.560740 0.444930 -0.487436
O17   O     O_R   0.115830 0.560690 0.615790 -0.505341
O18   O     O_R   0.944900 0.439310 0.323490 -0.450157
O19   O     O_R   0.115810 0.439260 0.615790 -0.467354
O20   O     O_2   0.108868 0.254602 0.679961 -0.120677
O21   O     O_2   0.239221 0.132816 0.694694 -0.130928
O22   O     O_3   0.107932 0.302238 0.836259 -0.370189
O23   O     O_R   0.115820 0.560710 0.444920 -0.463270
O24   O     O_2   0.545651 0.916771 0.212194 -0.160388
O25   O     O_2   0.530555 0.776125 0.123740 -0.300745
O26   O     O_3   0.424893 0.947163 0.135695 -0.458357
O27   O     O_2   0.304423 0.051843 0.485946 -0.190393
O28   O     O_2   0.425073 0.069936 0.464866 -0.110449
O29   O     O_3   0.261012 0.228173 0.522401 -0.491229
O30   O     O_2   0.324072 0.311837 0.984824 -0.165160
O31   O     O_2   0.161500 0.411541 0.048719 -0.141541
O32   O     O_3   0.225968 0.500218 0.029318 -0.488510
O33   O     O_2   0.369775 0.626266 0.409061 -0.138508
O34   O     O_R   0.823500 0.731590 0.615800 -0.473564
O35   O     O_2   0.354477 0.717028 0.340981 -0.140821
O36   O     O_3   0.240669 0.821889 0.494801 -0.373761
O37   O     O_2   0.265342 0.523344 0.486518 -0.177162
O38   O     O_2   0.409473 0.425029 0.500329 -0.152395
O39   O     O_3   0.301511 0.372934 0.497992 -0.505662
O40   O     O_2   0.996065 0.744465 0.455909 -0.267231
O41   O     O_2   0.018272 0.858816 0.441880 -0.127562
O42   O     O_3   0.051607 0.695076 0.299706 -0.525252
O43   O     O_2   0.479180 0.161498 0.829606 -0.089672
O44   O     O_2   0.543100 0.025447 0.854503 -0.120708
O45   O     O_R   0.115770 0.268420 0.323490 -0.467875
O46   O     O_3   0.530564 0.191204 0.965752 -0.490460
O47   O     O_2   0.828083 0.225301 0.882204 -0.135226
O48   O     O_2   0.973972 0.093355 0.868565 -0.168631
O49   O     O_3   0.941800 0.081570 0.728429 -0.439727
O50   O     O_2   0.731343 0.182363 0.987176 -0.221077
O51   O     O_2   0.788466 0.004539 0.922686 -0.184094
O52   O     O_3   0.892561 0.059864 0.980041 -0.396388
O53   O     O_2   0.077471 0.749261 0.629626 -0.153389
O54   O     O_2   0.005956 0.889441 0.610288 -0.115514
O55   O     O_3   0.085903 0.901045 0.726046 -0.382499
O56   O     O_3   0.500040 0.499910 0.999960 -0.551605
O57   O     O_2   0.865671 0.350049 0.990774 -0.087484
O58   O     O_2   0.956236 0.260883 0.053526 -0.095652
O59   O     O_3   0.812811 0.269250 0.041984 -0.411346
O60   O     O_2   0.873582 0.329519 0.839682 -0.143383
O61   O     O_2   0.908882 0.454934 0.893513 -0.101747
O62   O     O_3   0.756689 0.514946 0.979936 -0.485400
O63   O     O_2   0.490990 0.857306 0.911367 -0.113174
O64   O     O_2   0.474697 0.763042 0.959961 -0.191516
O65   O     O_3   0.625495 0.745435 0.943138 -0.473442
O66   O     O_2   0.619579 0.548362 0.577457 -0.138237
O67   O     O_R   0.384230 0.439200 0.055040 -0.472441
O68   O     O_2   0.507216 0.735409 0.674274 -0.124232
O69   O     O_3   0.666305 0.666635 0.592832 -0.374358
O70   O     O_2   0.179546 0.903978 0.876359 -0.197183
O71   O     O_2   0.339787 0.797901 0.852056 -0.115687
O72   O     O_3   0.292161 0.821059 0.730165 -0.351128
O73   O     O_2   0.199493 0.703761 0.975927 -0.243964
O74   O     O_2   0.271243 0.783299 0.967945 -0.090145
O75   O     O_3   0.110868 0.853760 0.958727 -0.386794
O76   O     O_2   0.071426 0.158073 0.173201 -0.164339
O77   O     O_2   0.024420 0.059484 0.184752 -0.103828
O78   O     O_R   0.555130 0.560630 0.884160 -0.493113
O79   O     O_3   0.978102 0.230697 0.326599 -0.536566
O80   O     O_R   0.384270 0.731490 0.176470 -0.483172
S1    S     S_3+6 0.169463 0.245079 0.733863 0.219982
S2    S     S_3+6 0.814276 0.073632 0.930978 0.139543
S3    S     S_3+6 0.023330 0.864038 0.676503 0.199817
S4    S     S_3+6 0.861834 0.329267 0.058440 0.202405
S5    S     S_3+6 0.834748 0.440894 0.881063 0.174477
S6    S     S_3+6 0.539662 0.758178 0.905037 0.175434
S7    S     S_3+6 0.605059 0.649313 0.641780 0.250446
S8    S     S_3+6 0.269254 0.808092 0.809266 0.192011
S9    S     S_3+6 0.212299 0.749982 0.933154 0.160090
S10   S     S_3+6 0.057024 0.125506 0.228962 0.156524
S11   S     S_3+6 0.480175 0.890919 0.185437 0.141896
S12   S     S_3+6 0.333994 0.099504 0.457351 0.188810
S13   S     S_3+6 0.240908 0.416695 0.052704 0.143033
S14   S     S_3+6 0.304152 0.708169 0.396813 0.248591
S15   S     S_3+6 0.311318 0.469769 0.529446 0.139223
S16   S     S_3+6 0.054085 0.748455 0.402421 0.148027
S17   S     S_3+6 0.549369 0.106935 0.860509 0.202027
S18   S     S_3+6 0.901461 0.112700 0.827942 0.157473
Zn1   Zn    Zn3+2 0.043370 0.413240 0.543370 1.087095
Zn2   Zn    Zn3+2 0.869870 0.586760 0.543380 1.087364
Zn3   Zn    Zn3+2 0.043360 0.413260 0.369880 1.115678
Zn4   Zn    Zn3+2 0.043390 0.586740 0.543370 1.109604
Zn5   Zn    Zn3+2 0.456670 0.586670 0.956580 1.112463
Zn6   Zn    Zn3+2 0.456680 0.586650 0.130080 1.129619
Zn7   Zn    Zn3+2 0.630180 0.413150 0.956570 1.118256
Zn8   Zn    Zn3+2 0.456650 0.413170 0.956580 1.120611

loop_
_geom_bond_atom_site_label_1
_geom_bond_atom_site_label_2
_ccdc_geom_bond_type
C25   C31   A    
O30   S13   D    
O58   S4    D    
O19   Zn1   S    
C45   C60   S    
C43   F6    S    
C23   C45   A    
C27   C29   A    
C11   C13   S    
C12   S9    S    
H5    O62   S    
C35   C36   A    
O24   S11   D    
O54   S3    D    
C61   S15   S    
O35   S14   D    
C7    C8    A    
C39   C41   A    
C4    O45   A    
O50   S2    D    
H12   O29   S    
C26   C27   A    
C37   C38   A    
O73   S9    D    
C22   F16   S    
H2    O52   S    
C36   C37   A    
C24   F17   S    
H11   O26   S    
C18   C19   A    
O57   S4    D    
C30   C31   A    
C52   O19   A    
C56   C66   A    
O1    Zn1   S    
C57   O8    A    
O56   Zn6   S    
O65   S6    S    
C63   S8    S    
C3    S1    S    
C42   F4    S    
C59   O6    A    
O64   S6    D    
O21   S1    D    
O78   Zn5   S    
C41   C42   S    
O55   S3    S    
O42   S16   S    
O36   S14   S    
C36   C40   S    
C33   F19   S    
C60   O5    A    
H14   O36   S    
H17   O46   S    
C46   C47   A    
O34   Zn2   S    
C44   C53   S    
O27   S12   D    
C45   C56   A    
C8    C9    A    
O40   S16   D    
C58   O9    A    
O61   S5    D    
C51   F8    S    
C8    S10   S    
O5    Zn8   S    
O15   Zn3   S    
C14   F14   S    
H18   O49   S    
C5    F13   S    
C29   C30   A    
C35   C43   S    
C9    C10   A    
C28   O23   A    
C3    C5    A    
C66   F10   S    
C21   C22   S    
C42   F2    S    
O18   Zn3   S    
O48   S18   D    
C53   F9    S    
O17   Zn4   S    
C4    C7    S    
C16   O12   A    
C34   C65   A    
O25   S11   D    
C44   C46   A    
O44   S17   D    
H3    O55   S    
O22   S1    S    
O68   S7    D    
O74   S9    D    
C19   S13   S    
C29   S17   S    
O11   Zn7   S    
C37   F20   S    
O1    Zn4   S    
C10   C57   S    
C47   F7    S    
O41   S16   D    
C20   C54   S    
O26   S11   S    
O45   Zn3   S    
C6    C11   A    
O67   Zn8   S    
O1    Zn2   S    
C30   C58   S    
C50   C51   S    
C25   C26   A    
C49   C55   S    
O2    Zn7   S    
O66   S7    D    
O51   S2    D    
O38   S15   D    
C59   O3    A    
C5    C64   A    
O59   S4    S    
C58   O2    A    
H8    O72   S    
C9    F1    S    
O31   S13   D    
C62   C63   A    
O56   Zn7   S    
C16   O14   A    
C6    C14   S    
O3    Zn6   S    
C52   O17   A    
C47   C48   A    
C12   C23   A    
O43   S17   D    
H6    O65   S    
C23   C34   A    
C39   C59   S    
C56   C64   A    
C17   C18   A    
O32   S13   S    
C33   S3    S    
O33   S14   D    
O1    Zn3   S    
O77   S10   D    
C53   S7    S    
O69   S7    S    
C24   S16   S    
C48   S5    S    
C51   S6    S    
O56   Zn8   S    
O4    Zn4   S    
C15   C24   S    
C40   O16   A    
C18   F15   S    
C1    C26   S    
O16   Zn2   S    
C22   C24   S    
C4    O13   A    
O6    Zn7   S    
C42   C43   S    
O47   S18   D    
C16   C46   S    
O60   S5    D    
O7    Zn5   S    
O71   S8    D    
O12   Zn1   S    
O76   S10   D    
O28   S12   D    
O49   S18   S    
O75   S9    S    
H9    O75   S    
C12   C63   A    
O63   S6    D    
C14   S12   S    
C13   F12   S    
C48   C49   A    
C43   F5    S    
C17   C28   S    
C54   O67   A    
O23   Zn4   S    
C31   C32   S    
O14   Zn2   S    
O53   S3    D    
O8    Zn5   S    
C2    C66   A    
C28   O15   A    
O9    Zn8   S    
C15   C17   A    
C6    C7    A    
O52   S2    S    
O39   S15   S    
O80   Zn6   S    
C32   S2    S    
H4    O59   S    
O62   S5    S    
C64   C65   A    
C19   C20   A    
C2    C3    A    
C60   O7    A    
O13   Zn1   S    
C32   C33   S    
O56   Zn5   S    
C27   F18   S    
H15   O39   S    
C40   O18   A    
C38   C39   A    
C55   O11   A    
O29   S12   S    
C38   S4    S    
C54   O10   A    
H7    O69   S    
C55   O78   A    
O10   Zn6   S    
H13   O32   S    
C34   C61   A    
C32   S18   S    
C61   C62   A    
C35   C41   A    
O72   S8    S    
C10   C11   A    
C1    O34   A    
C1    O4    A    
C15   C21   A    
C20   C21   A    
C62   F3    S    
C44   C50   A    
C49   C50   A    
C13   S11   S    
C25   C33   S    
O79   S10   S    
C2    F11   S    
C22   S14   S    
O20   S1    D    
O37   S15   D    
O46   S17   S    
C51   C53   S    
C13   C14   S    
C57   O80   A    
H16   O42   S    
C52   C65   S    
H1    O22   S    
O70   S8    D    
H10   O79   S    
