data_mof_unit_47122.cif
_audit_creation_date              2012-12-10T17:06:13-0500
_audit_creation_method            fapswitch 2.2
_symmetry_space_group_name_H-M    P1
_symmetry_Int_Tables_number       1
_space_group_crystal_system       triclinic
_cell_length_a                    10.640829
_cell_length_b                    11.081173
_cell_length_c                    9.902417
_cell_angle_alpha                 112.498804
_cell_angle_beta                  98.547852
_cell_angle_gamma                 90.512133
_cell_volume                      1063.99746297

loop_
_atom_site_label
_atom_site_type_symbol
_atom_type_description
_atom_site_fract_x
_atom_site_fract_y
_atom_site_fract_z
_atom_type_partial_charge
C1    C     C_R   0.490759 0.253217 0.438560 0.800103
C2    C     C_R   0.509251 0.746785 0.561439 0.800087
C3    C     C_R   0.259584 0.499327 0.500673 0.857670
C4    C     C_R   0.740416 0.500674 0.499327 0.857655
C5    C     C_3   0.059924 0.525382 0.639183 -0.189499
C6    C     C_3   0.940075 0.474621 0.360818 -0.189506
C7    C     C_3   0.961481 0.407928 0.545783 -0.231274
C8    C     C_3   0.038518 0.592075 0.454218 -0.231272
C9    C     C_3   0.876877 0.501334 0.498445 -0.017730
C10   C     C_3   0.123122 0.498668 0.501556 -0.017726
C11   C     C_3   0.973515 0.617252 0.590600 0.039023
C12   C     C_3   0.026484 0.382751 0.409401 0.039067
C13   C     C_2   0.484034 0.111402 0.399371 -0.169883
C14   C     C_2   0.515998 0.888602 0.600614 -0.169898
C15   C     C_2   0.511504 0.068324 0.509607 -0.124375
C16   C     C_2   0.488706 0.931657 0.490333 -0.124481
C17   C     C_2   0.506778 0.512459 0.081991 0.006442
C18   C     C_2   0.493246 0.487516 0.918000 0.006532
Cu1   Cu    Cu3+1 0.522260 0.521810 0.644920 0.983749
Cu2   Cu    Cu3+1 0.477740 0.478190 0.355080 0.983702
H1    H     H_    0.927564 0.332047 0.582228 0.159463
H2    H     H_    0.072435 0.667956 0.417773 0.159467
H3    H     H_    0.110614 0.546612 0.753128 0.182794
H4    H     H_    0.889385 0.453391 0.246873 0.182787
H5    H     H_    0.450702 0.861346 0.380338 0.212820
H6    H     H_    0.549646 0.138613 0.619564 0.212767
H7    H     H_    0.425212 0.410499 0.839745 0.196300
H8    H     H_    0.574836 0.589456 0.160238 0.196196
N1    N     N_2   0.444270 0.445410 0.137360 -0.266208
N2    N     N_2   0.555730 0.554590 0.862640 -0.266199
O1    O     O_R   0.511880 0.332340 0.577400 -0.586722
O2    O     O_R   0.488120 0.667660 0.422600 -0.586763
O3    O     O_R   0.474280 0.295500 0.332650 -0.596461
O4    O     O_R   0.525720 0.704500 0.667350 -0.596469
O5    O     O_R   0.335640 0.518390 0.622350 -0.593302
O6    O     O_R   0.664360 0.481610 0.377650 -0.593315
O7    O     O_R   0.298050 0.481550 0.377590 -0.563025
O8    O     O_R   0.701950 0.518450 0.622410 -0.562986
C19   C     C_2   0.947768 0.751193 0.692987 0.352398
H9    H     H_    0.026831 0.823224 0.753545 0.079966
O9    O     O_2   0.839051 0.780256 0.708683 -0.570812
C20   C     C_2   0.052227 0.248809 0.307014 0.352356
H10   H     H_    0.973162 0.176760 0.246490 0.079972
O10   O     O_2   0.160942 0.219765 0.291281 -0.570907
C21   C     C_2   0.553675 0.976081 0.759785 0.382968
H11   H     H_    0.620140 0.944182 0.831592 0.117446
O11   O     O_2   0.505102 0.079456 0.814228 -0.577215
C22   C     C_2   0.446150 0.023952 0.240233 0.382895
H12   H     H_    0.379473 0.055824 0.168589 0.117544
O12   O     O_2   0.494777 0.920645 0.185630 -0.577321
C23   C     C_2   0.657461 0.649260 0.950845 0.623238
H13   H     H_    0.668938 0.738647 0.932145 0.086337
O13   O     O_2   0.738759 0.626661 0.037344 -0.594032
C24   C     C_2   0.342518 0.350758 0.049172 0.623314
H14   H     H_    0.330968 0.261427 0.067968 0.086375
O14   O     O_2   0.261282 0.373317 0.962575 -0.594051

loop_
_geom_bond_atom_site_label_1
_geom_bond_atom_site_label_2
_ccdc_geom_bond_type
C13   C22   S    
C8    H2    S    
N2    C23   S    
C4    O6    A    
C6    H4    S    
C18   N2    D    
Cu1   O8    S    
C17   N1    D    
Cu1   Cu2   S    
C5    H3    S    
C3    O5    A    
N1    C24   S    
Cu1   O1    S    
C2    O4    A    
C6    C9    S    
C22   O12   D    
C17   C18   S    
C1    O3    A    
C5    C10   S    
C19   O9    D    
C3    C10   S    
Cu1   O5    S    
C21   H11   S    
C11   C19   S    
Cu2   O7    S    
C9    C11   S    
Cu1   N2    S    
C20   O10   D    
C8    C11   S    
Cu2   O3    S    
C10   C12   S    
C8    C10   S    
C22   H12   S    
C4    O8    A    
C5    C11   S    
C14   C21   S    
C24   O14   D    
Cu2   N1    S    
C13   C15   D    
C6    C12   S    
C7    C12   S    
C2    C14   S    
C14   C16   D    
C1    C13   S    
C20   H10   S    
C19   H9    S    
C12   C20   S    
C23   H13   S    
Cu2   O6    S    
C1    O1    A    
C3    O7    A    
C2    O2    A    
Cu2   O2    S    
C21   O11   D    
C7    H1    S    
C16   H5    S    
C7    C9    S    
C5    C7    S    
C15   H6    S    
C6    C8    S    
C4    C9    S    
C24   H14   S    
C17   H8    S    
C18   H7    S    
C15   C16   S    
C23   O13   D    
Cu1   O4    S    
