data_mof_unit_25915.cif
_audit_creation_date              2012-10-26T19:15:02-0400
_audit_creation_method            fapswitch 2.2
_symmetry_space_group_name_H-M    P1
_symmetry_Int_Tables_number       1
_space_group_crystal_system       triclinic
_cell_length_a                    10.776666
_cell_length_b                    10.84064
_cell_length_c                    9.600252
_cell_angle_alpha                 90.136039
_cell_angle_beta                  90.247512
_cell_angle_gamma                 91.063507
_cell_volume                      1121.35157685

loop_
_atom_site_label
_atom_site_type_symbol
_atom_type_description
_atom_site_fract_x
_atom_site_fract_y
_atom_site_fract_z
_atom_type_partial_charge
C1    C     C_R   0.502827 0.262589 0.499976 0.545458
C2    C     C_R   0.468945 0.935712 0.618790 0.033630
C3    C     C_3   0.525263 0.928714 0.760968 0.022055
C4    C     C_R   0.262670 0.499647 0.499765 0.548830
C5    C     C_3   0.530061 0.068909 0.760925 -0.244330
C6    C     C_R   0.572388 0.581973 0.073918 0.109870
C7    C     C_R   0.418217 0.427411 0.074517 0.245594
C8    C     C_R   0.415349 0.430366 0.924397 0.242056
C9    C     C_R   0.572226 0.582091 0.927562 0.146837
C10   C     C_3   0.709489 0.598490 0.922325 -0.281907
C11   C     C_3   0.710044 0.596508 0.080481 -0.278079
C12   C     C_R   0.938223 0.565168 0.600479 0.016192
C13   C     C_R   0.501838 0.737364 0.500038 0.532200
C14   C     C_R   0.737301 0.500497 0.500220 0.526838
C15   C     C_R   0.066028 0.564060 0.599903 -0.023124
C16   C     C_R   0.129278 0.496070 0.500622 0.008877
C17   C     C_R   0.062323 0.418689 0.408967 -0.162147
C18   C     C_R   0.932879 0.419840 0.408738 -0.160972
C19   C     C_R   0.870539 0.497347 0.501334 0.023463
C20   C     C_3   0.341767 0.219579 0.133707 -0.304233
C21   C     C_3   0.197617 0.394232 0.860726 -0.284862
C22   C     C_3   0.892071 0.906883 0.549792 -0.319145
C23   C     C_3   0.937413 0.700573 0.635279 0.003665
C24   C     C_3   0.480008 0.879571 0.004058 -0.315058
C25   C     C_3   0.078676 0.698052 0.633690 -0.218852
C26   C     C_R   0.471219 0.063242 0.619454 -0.013579
C27   C     C_R   0.502838 0.129027 0.499459 -0.002265
C28   C     C_R   0.527983 0.064039 0.376390 -0.180572
C29   C     C_R   0.526277 0.935671 0.376155 -0.175721
C30   C     C_R   0.500156 0.870584 0.499048 -0.007912
Cu1   Cu    Cu3+1 0.499990 0.499980 0.640670 0.969605
Cu2   Cu    Cu3+1 0.500010 0.500020 0.359330 0.947949
H1    H     H_    0.109577 0.358749 0.337301 0.114550
H2    H     H_    0.122856 0.751660 0.547883 0.153853
H3    H     H_    0.553693 0.112009 0.281852 0.126730
H4    H     H_    0.551043 0.887616 0.281824 0.128558
H5    H     H_    0.617518 0.884159 0.762665 0.134177
H6    H     H_    0.244283 0.384762 0.153866 0.232800
H7    H     H_    0.267977 0.183949 0.062570 0.105699
H8    H     H_    0.327222 0.175227 0.236407 0.162696
H9    H     H_    0.434025 0.193584 0.092950 0.125218
H10   H     H_    0.338353 0.265139 0.851756 0.227490
H11   H     H_    0.152162 0.347079 0.949576 0.099537
H12   H     H_    0.469531 0.111022 0.840024 0.125343
H13   H     H_    0.146553 0.364404 0.765595 0.152333
H14   H     H_    0.189861 0.495879 0.872235 0.153223
H15   H     H_    0.798253 0.746977 0.493647 0.257777
H16   H     H_    0.856834 0.956372 0.456943 0.145529
H17   H     H_    0.989365 0.938014 0.569392 0.152935
H18   H     H_    0.833680 0.930765 0.640777 0.121564
H19   H     H_    0.120984 0.713740 0.738181 0.102313
H20   H     H_    0.347273 0.904341 0.849296 0.250214
H21   H     H_    0.477462 0.975012 0.045754 0.119482
H22   H     H_    0.576165 0.845236 0.012429 0.142539
H23   H     H_    0.626328 0.107609 0.758505 0.110985
H24   H     H_    0.418077 0.819595 0.067854 0.155330
H25   H     H_    0.757203 0.518572 0.875345 0.149095
H26   H     H_    0.735478 0.690291 0.879675 0.109634
H27   H     H_    0.756251 0.514081 0.123793 0.153509
H28   H     H_    0.739634 0.686016 0.127921 0.125739
H29   H     H_    0.881728 0.361801 0.335626 0.114745
H30   H     H_    0.898256 0.720393 0.739324 0.114690
N1    N     N_R   0.500790 0.500930 0.147930 -0.231841
N2    N     N_R   0.500790 0.500890 0.852020 -0.227757
N3    N     N_2   0.333093 0.351913 0.149811 -0.455095
N4    N     N_2   0.326111 0.358741 0.848449 -0.452472
N5    N     N_2   0.886033 0.775339 0.524349 -0.505980
N6    N     N_2   0.438023 0.877051 0.861005 -0.494975
O1    O     O_R   0.500000 0.319640 0.618810 -0.488596
O2    O     O_R   0.500010 0.319680 0.381230 -0.483542
O3    O     O_R   0.319650 0.499970 0.618810 -0.468980
O4    O     O_R   0.319660 0.500010 0.381230 -0.487823
O5    O     O_R   0.499990 0.680320 0.618770 -0.481252
O6    O     O_R   0.500000 0.680360 0.381190 -0.512136
O7    O     O_R   0.680340 0.499990 0.618770 -0.515148
O8    O     O_R   0.680350 0.500030 0.381190 -0.513049

loop_
_geom_bond_atom_site_label_1
_geom_bond_atom_site_label_2
_ccdc_geom_bond_type
C22   H16   S    
C8    N4    S    
C21   N4    S    
C9    N2    A    
C3    N6    S    
C6    C9    A    
C20   H9    S    
C7    C8    A    
Cu2   O4    S    
C29   H4    S    
C26   C27   A    
C28   C29   A    
C10   H26   S    
Cu2   O6    S    
C20   H8    S    
C15   C25   S    
C24   H22   S    
C15   C16   A    
C18   C19   A    
C23   N5    S    
C21   H11   S    
C23   H30   S    
C28   H3    S    
C16   C17   A    
H6    N3    S    
C9    C10   S    
H20   N6    S    
C25   H2    S    
C22   H18   S    
Cu1   O3    S    
C17   H1    S    
C11   H27   S    
C14   C19   S    
H15   N5    S    
C21   H13   S    
C13   C30   S    
C10   H25   S    
C6    C11   S    
C20   H7    S    
Cu2   O2    S    
C24   H21   S    
C1    O1    A    
C14   O8    A    
C6    N1    A    
C4    C16   S    
C25   H19   S    
C29   C30   A    
C7    N3    S    
C20   N3    S    
Cu1   O7    S    
Cu1   Cu2   S    
C12   C23   S    
C12   C15   A    
C17   C18   A    
C2    C26   A    
C7    N1    A    
C8    N2    A    
C22   H17   S    
C5    H12   S    
C13   O5    A    
C11   H28   S    
C4    O4    A    
C1    C27   S    
C21   H14   S    
Cu1   N2    S    
C5    H23   S    
Cu2   N1    S    
C3    C5    S    
Cu2   O8    S    
C18   H29   S    
C24   H24   S    
C1    O2    A    
C2    C30   A    
C14   O7    A    
C2    C3    S    
C12   C19   A    
C23   C25   S    
C22   N5    S    
Cu1   O5    S    
C10   C11   S    
C24   N6    S    
C5    C26   S    
Cu1   O1    S    
C13   O6    A    
C3    H5    S    
C27   C28   A    
H10   N4    S    
C4    O3    A    
