data_mof_unit_60460.cif
_audit_creation_date              2012-10-26T19:44:41-0400
_audit_creation_method            fapswitch 2.2
_symmetry_space_group_name_H-M    P1
_symmetry_Int_Tables_number       1
_space_group_crystal_system       triclinic
_cell_length_a                    19.51709
_cell_length_b                    11.732079
_cell_length_c                    10.437737
_cell_angle_alpha                 89.991743
_cell_angle_beta                  89.999606
_cell_angle_gamma                 89.999768
_cell_volume                      2389.99167799

loop_
_atom_site_label
_atom_site_type_symbol
_atom_type_description
_atom_site_fract_x
_atom_site_fract_y
_atom_site_fract_z
_atom_type_partial_charge
C1    C     C_R   0.500000 0.283245 0.500006 0.553486
C2    C     C_1   0.500000 0.940285 0.499993 0.000411
C3    C     C_1   0.500000 0.500000 0.071974 0.150431
C4    C     C_1   0.500000 0.500000 0.928026 0.150453
C5    C     C_R   0.252541 0.502528 0.617306 0.037341
C6    C     C_R   0.747457 0.497454 0.382691 0.037400
C7    C     C_R   0.747462 0.502567 0.617309 0.037305
C8    C     C_R   0.252545 0.497411 0.382689 0.037385
C9    C     C_R   0.181042 0.500389 0.615473 -0.104099
C10   C     C_R   0.818956 0.499447 0.384515 -0.104097
C11   C     C_R   0.818960 0.500404 0.615470 -0.104092
C12   C     C_R   0.500000 0.716755 0.499994 0.553533
C13   C     C_R   0.181046 0.499422 0.384515 -0.104102
C14   C     C_R   0.144915 0.499872 0.499992 -0.013329
C15   C     C_R   0.855087 0.499880 0.499990 -0.013342
C16   C     C_R   0.290142 0.499990 0.499999 -0.040177
C17   C     C_R   0.709859 0.500027 0.500002 -0.040189
C18   C     C_2   0.284693 0.507859 0.745294 0.599473
C19   C     C_2   0.715294 0.492294 0.254707 0.599477
C20   C     C_2   0.715316 0.507940 0.745306 0.599450
C21   C     C_2   0.284708 0.492195 0.254705 0.599482
C22   C     C_R   0.930548 0.499834 0.499989 0.358217
C23   C     C_R   0.069455 0.499833 0.499990 0.358220
C24   C     C_R   0.366691 0.500005 0.500000 0.546815
C25   C     C_R   0.633309 0.500022 0.500001 0.546817
C26   C     C_1   0.500000 0.161906 0.500014 0.020715
C27   C     C_1   0.500000 0.838094 0.499986 0.020749
C28   C     C_1   0.500000 0.059715 0.500007 0.000400
Cu1   Cu    Cu3+1 0.500000 0.500000 0.625300 1.105814
Cu2   Cu    Cu3+1 0.500000 0.500000 0.374700 1.105782
H1    H     H_    0.153463 0.501337 0.705658 0.171399
H2    H     H_    0.846531 0.498477 0.294326 0.171321
H3    H     H_    0.846540 0.501350 0.705653 0.171466
H4    H     H_    0.153471 0.498446 0.294327 0.171335
H5    H     H_    0.301788 0.428776 0.913804 0.349050
H6    H     H_    0.698106 0.571669 0.086403 0.348961
H7    H     H_    0.698332 0.428989 0.913934 0.349089
H8    H     H_    0.301877 0.571477 0.086341 0.348996
N1    N     N_1   0.500000 0.500000 0.186410 -0.160810
N2    N     N_1   0.500000 0.500000 0.813590 -0.160788
N3    N     N_R   0.034050 0.499934 0.388123 -0.203885
N4    N     N_R   0.965953 0.499723 0.611855 -0.203894
N5    N     N_R   0.965954 0.499935 0.388122 -0.203880
N6    N     N_R   0.034049 0.499722 0.611856 -0.203890
O1    O     O_R   0.500000 0.337200 0.605810 -0.496233
O2    O     O_R   0.277256 0.416052 0.829445 -0.666776
O3    O     O_2   0.684541 0.406521 0.221162 -0.487715
O4    O     O_R   0.722650 0.584275 0.170772 -0.666779
O5    O     O_2   0.684435 0.593668 0.778585 -0.487645
O6    O     O_R   0.722865 0.416247 0.829579 -0.666805
O7    O     O_2   0.315477 0.406419 0.221217 -0.487702
O8    O     O_R   0.277334 0.584123 0.170704 -0.666764
O9    O     O_R   0.500000 0.662800 0.394190 -0.496211
O10   O     O_R   0.500000 0.662800 0.605810 -0.474836
O11   O     O_R   0.500000 0.337200 0.394190 -0.474875
O12   O     O_R   0.400140 0.500000 0.605850 -0.470047
O13   O     O_R   0.599860 0.500000 0.394150 -0.470068
O14   O     O_R   0.599860 0.500000 0.605850 -0.470009
O15   O     O_R   0.400140 0.500000 0.394150 -0.470068
O16   O     O_2   0.315495 0.593637 0.778665 -0.487671

loop_
_geom_bond_atom_site_label_1
_geom_bond_atom_site_label_2
_ccdc_geom_bond_type
C14   C23   S    
C6    C10   A    
C20   O6    S    
C9    C14   A    
C5    C9    A    
C8    C13   A    
C6    C19   S    
Cu1   O12   S    
C24   O12   A    
C20   O5    D    
Cu2   O11   S    
C26   C28   T    
C22   N5    A    
C23   N3    A    
C21   O7    D    
C2    C27   T    
C17   C25   S    
Cu2   O15   S    
C8    C21   S    
C1    O11   A    
C3    N1    T    
C13   H4    S    
C16   C24   S    
C22   N4    A    
C13   C14   A    
C7    C11   A    
H7    O6    S    
N3    N5    A    
C1    O1    A    
Cu1   Cu2   S    
C12   O9    A    
N4    N6    A    
C24   O15   A    
C18   O2    S    
Cu1   N2    S    
C18   O16   D    
Cu2   N1    S    
H6    O4    S    
C10   C15   A    
C15   C22   S    
C1    C26   S    
Cu2   O9    S    
C19   O3    D    
H8    O8    S    
C25   O14   A    
C9    H1    S    
C12   C27   S    
C3    C4    S    
C25   O13   A    
Cu2   O13   S    
C10   H2    S    
C11   H3    S    
Cu1   O14   S    
C8    C16   A    
C7    C20   S    
Cu1   O10   S    
C6    C17   A    
C19   O4    S    
C5    C16   A    
C2    C28   S    
C5    C18   S    
H5    O2    S    
C11   C15   A    
C21   O8    S    
C12   O10   A    
C23   N6    A    
C4    N2    T    
Cu1   O1    S    
C7    C17   A    
