data_mof_unit_20215.cif
_audit_creation_date              2013-03-05T16:01:27-0500
_audit_creation_method            fapswitch 2.2
_symmetry_space_group_name_H-M    P1
_symmetry_Int_Tables_number       1
_space_group_crystal_system       triclinic
_cell_length_a                    14.7586
_cell_length_b                    14.731393
_cell_length_c                    19.289283
_cell_angle_alpha                 75.568185
_cell_angle_beta                  103.152477
_cell_angle_gamma                 114.945295
_cell_volume                      3646.58151015

loop_
_atom_site_label
_atom_site_type_symbol
_atom_site_description
_atom_site_fract_x
_atom_site_fract_y
_atom_site_fract_z
_atom_type_partial_charge
O1    O     O_R   0.977910 0.338110 0.524620 -0.527405
O2    O     O_R   0.022090 0.661890 0.475380 -0.527407
O3    O     O_R   0.839850 0.379180 0.493080 -0.600834
O4    O     O_R   0.160150 0.620820 0.506920 -0.600764
C1    C     C_R   0.880670 0.312398 0.508429 0.848369
C2    C     C_R   0.119331 0.687603 0.491559 0.848467
O5    O     O_R   0.069040 0.479450 0.615630 -0.506032
O6    O     O_R   0.930960 0.520550 0.384370 -0.505990
O7    O     O_R   0.930990 0.520520 0.584090 -0.592444
O8    O     O_R   0.069010 0.479480 0.415910 -0.592474
C3    C     C_R   0.003997 0.506106 0.632124 0.863750
C4    C     C_R   0.996003 0.493897 0.367874 0.863637
Cu1   Cu    Cu3+1 0.081740 0.475680 0.518680 1.066156
Cu2   Cu    Cu3+1 0.918260 0.524320 0.481320 1.066148
C5    C     C_R   0.094031 0.514555 0.761049 0.362408
C6    C     C_R   0.905998 0.485554 0.238935 0.362430
C7    C     C_R   0.090384 0.515374 0.832655 -0.232366
C8    C     C_R   0.909626 0.484705 0.167332 -0.232412
H1    H     H_    0.150434 0.505683 0.874198 0.213612
H2    H     H_    0.849627 0.494496 0.125779 0.213610
C9    C     C_R   0.010952 0.528575 0.851319 -0.119842
C10   C     C_R   0.988970 0.471341 0.148684 -0.119918
C11   C     C_R   0.936414 0.547796 0.796415 0.343971
C12   C     C_R   0.063431 0.451983 0.203597 0.344084
C13   C     C_R   0.936641 0.540612 0.725372 -0.274006
C14   C     C_R   0.063253 0.459233 0.274636 -0.273820
H3    H     H_    0.877492 0.552272 0.683841 0.216025
H4    H     H_    0.122354 0.447487 0.316176 0.216170
C15   C     C_R   0.012234 0.519943 0.707202 -0.190666
C16   C     C_R   0.987746 0.480049 0.292794 -0.190916
N1    N     N_R   0.914605 0.468549 0.953458 -0.170260
N2    N     N_R   0.085318 0.531341 0.046552 -0.170508
N3    N     N_R   0.909515 0.453351 0.023634 -0.198722
N4    N     N_R   0.090408 0.546542 0.976375 -0.198844
C17   C     C_R   0.994841 0.483777 0.071534 0.489043
C18   C     C_R   0.005081 0.516119 0.928474 0.488954
C19   C     C_R   0.813301 0.205408 0.505155 -0.144162
C20   C     C_R   0.186704 0.794604 0.494778 -0.144136
C21   C     C_R   0.775334 0.035198 0.487278 -0.207602
C22   C     C_R   0.224678 0.964862 0.512552 -0.207605
C23   C     C_R   0.844555 0.135302 0.489075 0.362342
C24   C     C_R   0.155470 0.864734 0.510845 0.362344
C25   C     C_R   0.712308 0.175405 0.513746 -0.264618
C26   C     C_R   0.287673 0.824605 0.486123 -0.264556
C27   C     C_R   0.639635 0.078445 0.503774 0.100167
C28   C     C_R   0.360345 0.921602 0.496003 0.100168
C29   C     C_R   0.673863 0.006801 0.493772 0.083135
C30   C     C_R   0.326126 0.993264 0.505991 0.083131
C31   C     C_R   0.534368 0.050723 0.503334 0.086590
C32   C     C_R   0.465604 0.949339 0.496390 0.086614
C33   C     C_R   0.504694 0.878579 0.491770 -0.194388
C34   C     C_R   0.495275 0.121506 0.507899 -0.194430
C35   C     C_R   0.606416 0.907512 0.489247 -0.171112
C36   C     C_R   0.393561 0.092578 0.510438 -0.171143
H5    H     H_    0.632673 0.851356 0.484025 0.156149
H6    H     H_    0.367304 0.148752 0.515623 0.156183
H7    H     H_    0.307495 0.770060 0.471614 0.147840
H8    H     H_    0.692466 0.229912 0.528291 0.147785
H9    H     H_    0.799502 0.980598 0.476513 0.194185
H10   H     H_    0.200526 0.019481 0.523305 0.194178
H11   H     H_    0.459034 0.799458 0.490535 0.138992
H12   H     H_    0.540932 0.200647 0.509061 0.139063
N5    N     N_R   0.795420 0.560800 0.453240 -0.226951
N6    N     N_R   0.204580 0.439200 0.546760 -0.226985
C37   C     C_R   0.733204 0.693381 0.405488 -0.295540
C38   C     C_R   0.266717 0.306559 0.594508 -0.295389
C39   C     C_R   0.806799 0.654987 0.412933 0.581510
C40   C     C_R   0.193176 0.345019 0.587086 0.581545
C41   C     C_R   0.708474 0.501265 0.482673 -0.041120
C42   C     C_R   0.291523 0.498690 0.517315 -0.041071
C43   C     C_R   0.632247 0.538692 0.478924 -0.010887
C44   C     C_R   0.367697 0.461197 0.521055 -0.010878
C45   C     C_R   0.645489 0.635194 0.436590 0.065902
C46   C     C_R   0.354418 0.364690 0.563379 0.065791
C47   C     C_R   0.541828 0.483423 0.512262 0.043890
C48   C     C_R   0.458094 0.516410 0.487700 0.044096
C49   C     C_R   0.470012 0.603851 0.432058 0.079674
C50   C     C_R   0.529866 0.395919 0.567867 0.079718
C51   C     C_R   0.567305 0.669435 0.418380 -0.192906
C52   C     C_R   0.432549 0.330376 0.581536 -0.192660
H13   H     H_    0.579381 0.743223 0.384579 0.143729
H14   H     H_    0.420385 0.256526 0.615251 0.143617
H15   H     H_    0.301294 0.575595 0.492740 0.138241
H16   H     H_    0.698742 0.424370 0.507225 0.138260
H17   H     H_    0.742543 0.766929 0.371897 0.180747
H18   H     H_    0.257350 0.233009 0.628104 0.180758
N7    N     N_R   0.183118 0.512817 0.744221 0.159609
O9    O     O_R   0.233433 0.584907 0.696221 -0.327492
O10   O     O_R   0.226170 0.454747 0.787503 -0.290249
N8    N     N_R   0.816972 0.487446 0.255742 0.159625
O11   O     O_R   0.766535 0.415359 0.303687 -0.327501
O12   O     O_R   0.774069 0.545652 0.212471 -0.290300
N9    N     N_R   0.108842 0.285611 0.625653 0.129578
O13   O     O_R   0.101410 0.316149 0.680960 -0.303782
O14   O     O_R   0.059958 0.190034 0.620578 -0.317902
N10   N     N_R   0.891170 0.714475 0.374414 0.129596
O15   O     O_R   0.898773 0.683958 0.319156 -0.303742
O16   O     O_R   0.939937 0.810066 0.379477 -0.317883
C53   C     C_3   0.383334 0.625923 0.380711 -0.456281
C54   C     C_3   0.395317 0.646774 0.300142 -0.294773
C55   C     C_3   0.313615 0.680565 0.252006 -0.733792
H19   H     H_    0.237693 0.624819 0.263336 0.252094
H20   H     H_    0.323476 0.755638 0.261691 0.247378
H21   H     H_    0.319041 0.687447 0.194304 0.267661
H22   H     H_    0.468902 0.707795 0.288233 0.220644
H23   H     H_    0.390789 0.576630 0.285335 0.274176
H24   H     H_    0.310915 0.559520 0.385797 0.214852
H25   H     H_    0.377934 0.692668 0.393750 0.188503
C56   C     C_3   0.616534 0.373705 0.619133 -0.455831
C57   C     C_3   0.604437 0.352185 0.699737 -0.294955
C58   C     C_3   0.686424 0.318687 0.747698 -0.733570
H26   H     H_    0.677448 0.244215 0.737381 0.247264
H27   H     H_    0.762258 0.375235 0.736802 0.252401
H28   H     H_    0.680432 0.310637 0.805465 0.267391
H29   H     H_    0.608512 0.421970 0.714831 0.274112
H30   H     H_    0.531013 0.290733 0.711524 0.220448
H31   H     H_    0.622073 0.307205 0.605814 0.188164
H32   H     H_    0.688899 0.440236 0.614214 0.214996
N11   N     N_R   0.863173 0.578667 0.811154 0.148764
O17   O     O_R   0.888564 0.638095 0.858173 -0.291853
O18   O     O_R   0.777121 0.562340 0.769417 -0.353684
N12   N     N_R   0.136512 0.420878 0.188874 0.148753
O19   O     O_R   0.111030 0.361570 0.141758 -0.291933
O20   O     O_R   0.222441 0.436823 0.230718 -0.353764
N13   N     N_R   0.057347 0.834729 0.530648 0.147709
O21   O     O_R   0.023455 0.754620 0.579495 -0.355021
O22   O     O_R   0.012270 0.898156 0.512319 -0.270717
N14   N     N_R   0.942725 0.165313 0.469352 0.147704
O23   O     O_R   0.976673 0.245427 0.420521 -0.355056
O24   O     O_R   0.987802 0.101884 0.487731 -0.270755

loop_
_geom_bond_atom_site_label_1
_geom_bond_atom_site_label_2
_geom_bond_distance
_ccdc_geom_bond_type
C38   C40   1.388172 A    
N7    O9    1.301565 A    
C47   C48   1.453671 A    
C6    N8    1.435776 S    
C55   H19   1.106118 S    
C22   H10   1.084546 S    
C1    C19   1.475092 S    
C58   H26   1.111285 S    
C33   H11   1.075749 S    
C44   C48   1.438708 A    
N14   O23   1.301149 A    
C56   H31   1.111268 S    
C21   C23   1.399343 A    
C9    C18   1.471482 S    
C30   C36   1.390624 A    
C10   C17   1.471432 S    
C54   H22   1.107869 S    
N9    O13   1.298712 A    
O1    C1    1.302715 A    
N6    C40   1.372223 A    
C5    N7    1.435787 S    
C12   C14   1.401396 A    
C20   C24   1.414982 A    
C11   N11   1.440488 S    
C50   C52   1.392964 A    
C6    C16   1.418318 A    
C38   C46   1.389837 A    
C37   C45   1.389832 A    
C5    C7    1.397691 A    
C27   C29   1.414879 A    
O4    Cu1   1.937215 S    
C41   C43   1.428698 A    
C57   C58   1.526511 S    
C24   N13   1.437400 S    
C7    H1    1.083740 S    
N5    C41   1.368272 A    
C26   C28   1.406558 A    
C37   C39   1.388162 A    
N10   O16   1.300851 A    
C2    C20   1.475068 S    
N6    C42   1.368261 A    
C58   H28   1.110705 S    
N4    C18   1.356937 A    
C25   H8    1.075739 S    
C29   C35   1.390629 A    
N11   O18   1.300952 A    
N9    O14   1.300853 A    
C46   C52   1.388332 A    
Cu1   Cu2   2.695115 S    
C23   N14   1.437381 S    
O2    C2    1.302714 A    
C34   C36   1.385983 A    
C56   H32   1.107721 S    
C5    C15   1.418294 A    
N5    C39   1.372229 A    
C35   H5    1.083686 S    
C13   C15   1.406386 A    
C36   H6    1.083684 S    
N1    N3    1.330102 A    
N2    C17   1.357034 A    
C48   C49   1.431025 A    
C52   H14   1.083723 S    
C43   C45   1.409118 A    
C7    C9    1.400352 A    
C33   C35   1.386012 A    
N2    N4    1.330107 A    
C19   C25   1.401663 A    
O5    C3    1.302359 A    
O7    Cu2   1.937070 S    
C20   C26   1.401675 A    
C53   H25   1.111253 S    
O7    C3    1.305810 A    
N8    O12   1.301377 A    
C53   C54   1.543436 S    
C27   C31   1.428643 A    
C26   H7    1.075730 S    
O6    C4    1.302341 A    
C31   C34   1.415725 A    
C21   H9    1.084547 S    
N10   O15   1.298695 A    
C12   N12   1.440517 S    
C32   C33   1.415752 A    
C45   C51   1.388338 A    
C49   C51   1.392861 A    
C58   H27   1.106375 S    
C42   H15   1.074529 S    
C25   C27   1.406549 A    
O3    Cu2   1.937214 S    
O8    C4    1.305846 A    
C44   C46   1.409028 A    
C14   C16   1.406409 A    
C55   H21   1.110403 S    
C9    C11   1.412447 A    
N13   O21   1.301150 A    
C10   C12   1.412438 A    
O4    C2    1.300762 A    
O1    Cu1   1.952706 S    
N12   O20   1.300910 A    
C57   H30   1.107940 S    
C21   C29   1.401511 A    
C55   H20   1.110870 S    
C22   C30   1.401504 A    
O6    Cu2   1.937922 S    
C4    C16   1.483185 S    
C8    C10   1.400306 A    
C14   H4    1.083023 S    
O3    C1    1.300770 A    
O8    Cu1   1.937070 S    
N14   O24   1.301243 A    
C38   H18   1.085107 S    
N11   O17   1.301482 A    
C37   H17   1.085108 S    
C54   H23   1.110839 S    
C13   H3    1.083031 S    
C53   H24   1.107624 S    
C28   C32   1.428676 A    
C51   H13   1.083795 S    
C40   N9    1.430579 S    
N7    O10   1.301383 A    
C41   H16   1.074422 S    
C34   H12   1.075762 S    
C56   C57   1.543587 S    
C43   C47   1.438852 A    
N8    O11   1.301561 A    
C39   N10   1.430591 S    
Cu1   N6    2.024547 S    
Cu2   N5    2.024549 S    
C22   C24   1.399334 A    
C54   C55   1.526521 S    
N3    C17   1.356925 A    
C49   C53   1.528692 S    
C50   C56   1.528787 S    
C8    H2    1.083742 S    
C11   C13   1.401345 A    
C19   C23   1.414993 A    
O2    Cu2   1.952707 S    
C47   C50   1.431187 A    
C28   C30   1.414909 A    
O5    Cu1   1.937922 S    
C3    C15   1.483150 S    
C6    C8    1.397663 A    
C31   C32   1.427527 A    
N13   O22   1.301245 A    
N1    C18   1.357040 A    
C42   C44   1.428689 A    
N12   O19   1.301477 A    
C57   H29   1.110989 S    
