data_mof_unit_41237.cif
_audit_creation_date              2012-12-10T17:19:20-0500
_audit_creation_method            fapswitch 2.2
_symmetry_space_group_name_H-M    P1
_symmetry_Int_Tables_number       1
_space_group_crystal_system       triclinic
_cell_length_a                    18.295504
_cell_length_b                    18.295167
_cell_length_c                    34.698571
_cell_angle_alpha                 90.243802
_cell_angle_beta                  90.373434
_cell_angle_gamma                 89.788296
_cell_volume                      11613.8515045

loop_
_atom_site_label
_atom_site_type_symbol
_atom_type_description
_atom_site_fract_x
_atom_site_fract_y
_atom_site_fract_z
_atom_type_partial_charge
C1    C     C_R   0.578402 0.106878 0.520801 -0.222358
C2    C     C_R   0.921682 0.393068 0.979197 -0.222385
C3    C     C_R   0.553537 0.959502 0.959310 0.069203
C4    C     C_R   0.962500 0.444303 0.040317 0.068496
C5    C     C_R   0.037532 0.555684 0.959681 0.068488
C6    C     C_R   0.553263 0.959190 0.040843 0.068756
C7    C     C_R   0.446755 0.040858 0.959151 0.068765
C8    C     C_R   0.999844 0.499854 0.644209 0.827695
C9    C     C_R   0.000156 0.500144 0.355791 0.827664
C10   C     C_R   0.499924 0.999543 0.644201 0.822875
C11   C     C_R   0.500073 0.000456 0.355799 0.822791
C12   C     C_R   0.499843 0.999859 0.144208 0.827682
C13   C     C_R   0.393804 0.080300 0.019768 -0.218924
C14   C     C_R   0.500157 0.000146 0.855791 0.827732
C15   C     C_R   0.999923 0.499543 0.144200 0.822860
C16   C     C_R   0.000075 0.500459 0.855800 0.822809
C17   C     C_R   0.860518 0.640111 0.749852 0.796039
C18   C     C_R   0.139483 0.359890 0.250148 0.796041
C19   C     C_R   0.360073 0.860355 0.749827 0.791179
C20   C     C_R   0.639929 0.139642 0.250175 0.791167
C21   C     C_R   0.139812 0.360419 0.750105 0.789627
C22   C     C_R   0.860189 0.639582 0.249895 0.789623
C23   C     C_R   0.639903 0.139771 0.750073 0.791660
C24   C     C_R   0.606205 0.919731 0.980227 -0.218908
C25   C     C_R   0.360092 0.860233 0.249929 0.791643
C26   C     C_R   0.860073 0.360355 0.249827 0.791178
C27   C     C_R   0.139929 0.639642 0.750176 0.791161
C28   C     C_R   0.360517 0.140111 0.249852 0.796026
C29   C     C_R   0.639483 0.859889 0.750147 0.796051
C30   C     C_R   0.139909 0.639765 0.250070 0.791660
C31   C     C_R   0.860094 0.360231 0.749929 0.791644
C32   C     C_R   0.639812 0.860419 0.250105 0.789624
C33   C     C_R   0.360189 0.139582 0.749895 0.789635
C34   C     C_R   0.270486 0.623601 0.795792 -0.138536
C35   C     C_R   0.923748 0.391319 0.019023 -0.218627
C36   C     C_R   0.729492 0.376416 0.204231 -0.138291
C37   C     C_R   0.386347 0.277812 0.786322 -0.146868
C38   C     C_R   0.613706 0.722244 0.213613 -0.146795
C39   C     C_R   0.708154 0.398948 0.758805 -0.157814
C40   C     C_R   0.291841 0.601067 0.241125 -0.157888
C41   C     C_R   0.612784 0.719382 0.783712 -0.141381
C42   C     C_R   0.387157 0.280557 0.216208 -0.141333
C43   C     C_R   0.276249 0.385172 0.213046 -0.156386
C44   C     C_R   0.723703 0.614783 0.786895 -0.156388
C45   C     C_R   0.398669 0.708272 0.240617 -0.145124
C46   C     C_R   0.076300 0.608653 0.980976 -0.218663
C47   C     C_R   0.601311 0.291762 0.759284 -0.145167
C48   C     C_R   0.721501 0.614278 0.213256 -0.145845
C49   C     C_R   0.278570 0.385796 0.786656 -0.145853
C50   C     C_R   0.623730 0.267075 0.203101 -0.149198
C51   C     C_R   0.376254 0.732938 0.796919 -0.149245
C52   C     C_R   0.770497 0.123588 0.295780 -0.138652
C53   C     C_R   0.229507 0.876403 0.704221 -0.138273
C54   C     C_R   0.886293 0.777757 0.286389 -0.146908
C55   C     C_R   0.113658 0.222193 0.713674 -0.146972
C56   C     C_R   0.208163 0.898930 0.258875 -0.157941
C57   C     C_R   0.606102 0.919614 0.020087 -0.218982
C58   C     C_R   0.791838 0.101054 0.741190 -0.157913
C59   C     C_R   0.112845 0.219448 0.283795 -0.141423
C60   C     C_R   0.887200 0.780598 0.716263 -0.141479
C61   C     C_R   0.776294 0.885214 0.713100 -0.156382
C62   C     C_R   0.223751 0.114830 0.286953 -0.156382
C63   C     C_R   0.898677 0.208244 0.740700 -0.145155
C64   C     C_R   0.101335 0.791724 0.259387 -0.145121
C65   C     C_R   0.221438 0.114213 0.713337 -0.145848
C66   C     C_R   0.778498 0.885724 0.286745 -0.145834
C67   C     C_R   0.123755 0.767052 0.703081 -0.149216
C68   C     C_R   0.393918 0.080434 0.979906 -0.218983
C69   C     C_R   0.876259 0.232931 0.296913 -0.149227
C70   C     C_R   0.332378 0.616549 0.819123 -0.170367
C71   C     C_R   0.667586 0.383479 0.180913 -0.170254
C72   C     C_R   0.399154 0.344330 0.804746 -0.195079
C73   C     C_R   0.600934 0.655762 0.195146 -0.195075
C74   C     C_R   0.634824 0.418545 0.761145 -0.166249
C75   C     C_R   0.365167 0.581485 0.238720 -0.166249
C76   C     C_R   0.600882 0.652702 0.801848 -0.163259
C77   C     C_R   0.399033 0.347211 0.198041 -0.163201
C78   C     C_R   0.343293 0.398737 0.195797 -0.175385
C79   C     C_R   0.313785 0.741531 0.773037 0.065274
C80   C     C_R   0.656628 0.601186 0.804107 -0.175394
C81   C     C_R   0.418425 0.634925 0.238475 -0.161635
C82   C     C_R   0.581558 0.365115 0.761373 -0.161721
C83   C     C_R   0.654575 0.601934 0.195045 -0.141508
C84   C     C_R   0.345526 0.398171 0.804829 -0.141537
C85   C     C_R   0.615288 0.328679 0.180049 -0.157512
C86   C     C_R   0.384683 0.671346 0.819982 -0.157523
C87   C     C_R   0.832390 0.116535 0.319110 -0.170339
C88   C     C_R   0.167612 0.883457 0.680893 -0.170342
C89   C     C_R   0.899063 0.844238 0.304858 -0.195108
C90   C     C_R   0.686208 0.258474 0.226975 0.065209
C91   C     C_R   0.100857 0.155682 0.695244 -0.195126
C92   C     C_R   0.134837 0.918512 0.261282 -0.166231
C93   C     C_R   0.865166 0.081459 0.738841 -0.166260
C94   C     C_R   0.100970 0.152797 0.301965 -0.163247
C95   C     C_R   0.899094 0.847267 0.698115 -0.163264
C96   C     C_R   0.843357 0.898797 0.695871 -0.175351
C97   C     C_R   0.156709 0.101268 0.304206 -0.175334
C98   C     C_R   0.918429 0.134890 0.738605 -0.161674
C99   C     C_R   0.081580 0.865073 0.261531 -0.161611
C100  C     C_R   0.154486 0.101843 0.695158 -0.141490
C101  C     C_R   0.264044 0.318399 0.767946 0.056836
C102  C     C_R   0.845422 0.898067 0.304957 -0.141464
C103  C     C_R   0.115321 0.828648 0.680024 -0.157539
C104  C     C_R   0.884690 0.171335 0.319972 -0.157421
C105  C     C_R   0.500590 0.999468 0.520451 0.048855
C106  C     C_R   0.499508 0.000469 0.479550 0.048882
C107  C     C_R   0.999918 0.499900 0.520442 0.047267
C108  C     C_R   0.000083 0.500096 0.479560 0.047267
C109  C     C_R   0.000568 0.499482 0.020449 0.048854
C110  C     C_R   0.999487 0.500487 0.979548 0.048873
C111  C     C_R   0.499925 0.999925 0.020441 0.047238
C112  C     C_R   0.421721 0.893039 0.479200 -0.222394
C113  C     C_R   0.735990 0.681637 0.232013 0.056852
C114  C     C_R   0.500092 0.000119 0.979553 0.047233
C115  C     C_R   0.424132 0.883780 0.601273 0.148087
C116  C     C_R   0.461939 0.820534 0.612924 -0.080777
C117  C     C_R   0.424279 0.762843 0.629971 -0.125772
C118  C     C_R   0.348467 0.766818 0.634180 -0.094516
C119  C     C_R   0.310372 0.828608 0.621481 -0.146775
C120  C     C_R   0.348046 0.887572 0.605722 -0.201024
C121  C     C_R   0.575649 0.116369 0.398728 0.148354
C122  C     C_R   0.651714 0.112736 0.394153 -0.200843
C123  C     C_R   0.689172 0.171801 0.378350 -0.146746
C124  C     C_R   0.675341 0.270263 0.754215 0.060644
C125  C     C_R   0.650876 0.233536 0.365743 -0.094365
C126  C     C_R   0.575085 0.237352 0.370081 -0.125712
C127  C     C_R   0.537644 0.179554 0.387161 -0.080951
C128  C     C_R   0.106404 0.411843 0.602474 0.140181
C129  C     C_R   0.174305 0.440269 0.614133 -0.088029
C130  C     C_R   0.225623 0.395234 0.632467 -0.122747
C131  C     C_R   0.210269 0.321318 0.638245 -0.094952
C132  C     C_R   0.143485 0.292462 0.625804 -0.151553
C133  C     C_R   0.091286 0.337647 0.608371 -0.194640
C134  C     C_R   0.893558 0.588111 0.397531 0.140198
C135  C     C_R   0.324649 0.729752 0.245740 0.060639
C136  C     C_R   0.908615 0.662326 0.391655 -0.194705
C137  C     C_R   0.856377 0.707489 0.374238 -0.151502
C138  C     C_R   0.789618 0.678591 0.361787 -0.094963
C139  C     C_R   0.774324 0.604655 0.367544 -0.122784
C140  C     C_R   0.825678 0.559644 0.385865 -0.087953
C141  C     C_R   0.588883 0.104050 0.603767 0.150351
C142  C     C_R   0.566566 0.176936 0.609079 -0.123960
C143  C     C_R   0.609702 0.224931 0.630869 -0.118809
C144  C     C_R   0.675168 0.200515 0.647454 -0.077135
C145  C     C_R   0.697519 0.127978 0.642405 -0.155425
C146  C     C_R   0.736741 0.681593 0.767692 0.065886
C147  C     C_R   0.654573 0.079795 0.620646 -0.165657
C148  C     C_R   0.411212 0.895872 0.396239 0.150397
C149  C     C_R   0.345494 0.920093 0.379377 -0.165674
C150  C     C_R   0.302561 0.871891 0.357621 -0.155397
C151  C     C_R   0.324955 0.799372 0.352558 -0.077111
C152  C     C_R   0.390448 0.774989 0.369128 -0.118826
C153  C     C_R   0.433570 0.823002 0.390916 -0.123938
C154  C     C_R   0.893797 0.588151 0.602274 0.141114
C155  C     C_R   0.825368 0.560709 0.613115 -0.090851
C156  C     C_R   0.775045 0.606120 0.631808 -0.123197
C157  C     C_R   0.263234 0.318382 0.232275 0.065902
C158  C     C_R   0.792041 0.679413 0.638880 -0.094673
C159  C     C_R   0.859487 0.707266 0.627382 -0.154046
C160  C     C_R   0.910594 0.661703 0.609489 -0.193640
C161  C     C_R   0.106238 0.411876 0.397729 0.141129
C162  C     C_R   0.089489 0.338308 0.390536 -0.193708
C163  C     C_R   0.140629 0.292759 0.372656 -0.154011
C164  C     C_R   0.208053 0.320644 0.361150 -0.094690
C165  C     C_R   0.225001 0.393953 0.368200 -0.123247
C166  C     C_R   0.174647 0.439351 0.386882 -0.090786
C167  C     C_R   0.924123 0.383778 0.101273 0.148085
C168  C     C_R   0.318787 0.264722 0.233103 0.063092
C169  C     C_R   0.961936 0.320530 0.112919 -0.080790
C170  C     C_R   0.924283 0.262836 0.129969 -0.125757
C171  C     C_R   0.848473 0.266810 0.134188 -0.094502
C172  C     C_R   0.810371 0.328600 0.121495 -0.146783
C173  C     C_R   0.848038 0.387566 0.105731 -0.201026
C174  C     C_R   0.075700 0.616359 0.898728 0.148256
C175  C     C_R   0.151782 0.612721 0.894199 -0.200921
C176  C     C_R   0.189287 0.671779 0.878412 -0.146693
C177  C     C_R   0.151028 0.733517 0.865774 -0.094432
C178  C     C_R   0.075222 0.737343 0.870064 -0.125734
C179  C     C_R   0.681186 0.735250 0.766857 0.063068
C180  C     C_R   0.037733 0.679552 0.887131 -0.080885
C181  C     C_R   0.606393 0.911817 0.102467 0.140087
C182  C     C_R   0.674288 0.940224 0.114158 -0.087897
C183  C     C_R   0.725612 0.895150 0.132465 -0.122822
C184  C     C_R   0.710276 0.821211 0.138183 -0.095045
C185  C     C_R   0.643507 0.792371 0.125707 -0.151461
C186  C     C_R   0.591300 0.837595 0.108303 -0.194731
C187  C     C_R   0.393640 0.088244 0.897523 0.140047
C188  C     C_R   0.408771 0.162453 0.891669 -0.194693
C189  C     C_R   0.356591 0.207686 0.874247 -0.151500
C190  C     C_R   0.270310 0.675211 0.246015 0.062296
C191  C     C_R   0.289809 0.178868 0.861776 -0.095043
C192  C     C_R   0.274434 0.104943 0.867514 -0.122776
C193  C     C_R   0.325734 0.059859 0.885836 -0.087938
C194  C     C_R   0.088884 0.604048 0.103766 0.150350
C195  C     C_R   0.066570 0.676933 0.109085 -0.123923
C196  C     C_R   0.109719 0.724924 0.130871 -0.118797
C197  C     C_R   0.175195 0.700505 0.147445 -0.077161
C198  C     C_R   0.197544 0.627970 0.142388 -0.155461
C199  C     C_R   0.154584 0.579789 0.120633 -0.165698
C200  C     C_R   0.911179 0.395901 0.896235 0.150386
C201  C     C_R   0.729686 0.324798 0.753948 0.062310
C202  C     C_R   0.845472 0.420138 0.879365 -0.165647
C203  C     C_R   0.802530 0.371944 0.857610 -0.155400
C204  C     C_R   0.824900 0.299414 0.852556 -0.077117
C205  C     C_R   0.890379 0.275015 0.869134 -0.118820
C206  C     C_R   0.933512 0.323020 0.890920 -0.123954
C207  C     C_R   0.393773 0.088181 0.102269 0.141015
C208  C     C_R   0.325369 0.060714 0.113139 -0.090693
C209  C     C_R   0.275011 0.106137 0.131811 -0.123262
C210  C     C_R   0.291949 0.179462 0.138827 -0.094744
C211  C     C_R   0.359362 0.207341 0.127297 -0.153955
C212  C     C_R   0.681376 0.736316 0.232179 0.072259
C213  C     C_R   0.410505 0.161768 0.109427 -0.193770
C214  C     C_R   0.606143 0.911742 0.897727 0.141013
C215  C     C_R   0.589273 0.838192 0.890541 -0.193654
C216  C     C_R   0.640336 0.792541 0.872665 -0.153988
C217  C     C_R   0.707817 0.820300 0.861156 -0.094760
C218  C     C_R   0.724892 0.893587 0.868198 -0.123307
C219  C     C_R   0.674608 0.939089 0.886872 -0.090844
C220  C     C_R   0.893794 0.580268 0.519773 -0.218953
C221  C     C_R   0.318652 0.263714 0.767785 0.072259
C222  C     C_R   0.740281 0.313453 0.227169 0.068901
C223  C     C_R   0.259711 0.686552 0.772844 0.068991
C224  C     C_R   0.813788 0.241527 0.273033 0.065272
C225  C     C_R   0.186220 0.758463 0.726967 0.065228
C226  C     C_R   0.764010 0.818365 0.267988 0.056880
C227  C     C_R   0.235960 0.181605 0.732052 0.056863
C228  C     C_R   0.175354 0.770246 0.254260 0.060679
C229  C     C_R   0.824651 0.229740 0.745782 0.060648
C230  C     C_R   0.236767 0.181619 0.267724 0.065917
C231  C     C_R   0.106210 0.419732 0.480229 -0.218961
C232  C     C_R   0.763257 0.818406 0.732303 0.065927
C233  C     C_R   0.818809 0.764744 0.733133 0.063094
C234  C     C_R   0.181214 0.235280 0.266897 0.063106
C235  C     C_R   0.770306 0.175204 0.746050 0.062316
C236  C     C_R   0.229693 0.824787 0.253985 0.062313
C237  C     C_R   0.181351 0.236290 0.732214 0.072292
C238  C     C_R   0.818624 0.763685 0.267822 0.072292
C239  C     C_R   0.240290 0.813445 0.727162 0.068921
C240  C     C_R   0.759715 0.186547 0.272838 0.068989
C241  C     C_R   0.303963 0.804191 0.749915 -0.156785
C242  C     C_R   0.423785 0.891295 0.519026 -0.218637
C243  C     C_R   0.696039 0.195805 0.250090 -0.156742
C244  C     C_R   0.195916 0.304195 0.750109 -0.158114
C245  C     C_R   0.804087 0.695808 0.249889 -0.158073
C246  C     C_R   0.696047 0.195872 0.750254 -0.178937
C247  C     C_R   0.303946 0.804133 0.249743 -0.178895
C248  C     C_R   0.804551 0.696361 0.750244 -0.161902
C249  C     C_R   0.195450 0.303640 0.249757 -0.161873
C250  C     C_R   0.304550 0.196361 0.250243 -0.161867
C251  C     C_R   0.695449 0.803638 0.749754 -0.161900
C252  C     C_R   0.196056 0.695865 0.250256 -0.178887
C253  C     C_R   0.576315 0.108640 0.480975 -0.218658
C254  C     C_R   0.803947 0.304132 0.749747 -0.178943
C255  C     C_R   0.695913 0.804193 0.250112 -0.158075
C256  C     C_R   0.304086 0.195807 0.749891 -0.158116
C257  C     C_R   0.803962 0.304191 0.249914 -0.156775
C258  C     C_R   0.196041 0.695805 0.750089 -0.156749
C259  C     C_R   0.463533 0.943026 0.580940 -0.094183
C260  C     C_R   0.536457 0.056984 0.419061 -0.094283
C261  C     C_R   0.052900 0.458513 0.581465 -0.090644
C262  C     C_R   0.947089 0.541469 0.418537 -0.090647
C263  C     C_R   0.541914 0.051877 0.581855 -0.087987
C264  C     C_R   0.106099 0.419600 0.520092 -0.219027
C265  C     C_R   0.458167 0.948067 0.418147 -0.087963
C266  C     C_R   0.946664 0.540963 0.581314 -0.091386
C267  C     C_R   0.053347 0.459046 0.418688 -0.091385
C268  C     C_R   0.963517 0.443032 0.080939 -0.094183
C269  C     C_R   0.036461 0.556992 0.919060 -0.094237
C270  C     C_R   0.552899 0.958520 0.081465 -0.090615
C271  C     C_R   0.447119 0.041524 0.918530 -0.090622
C272  C     C_R   0.041904 0.551880 0.081854 -0.087987
C273  C     C_R   0.958145 0.448088 0.918144 -0.087974
C274  C     C_R   0.446661 0.040986 0.081314 -0.091364
C275  C     C_R   0.893896 0.580390 0.479911 -0.219025
C276  C     C_R   0.553323 0.959015 0.918682 -0.091343
C277  C     C_R   0.501761 0.998049 0.601710 -0.138901
C278  C     C_R   0.498258 0.001940 0.398292 -0.138923
C279  C     C_R   0.999684 0.499652 0.601723 -0.137169
C280  C     C_R   0.000316 0.500344 0.398278 -0.137179
C281  C     C_R   0.001753 0.498050 0.101709 -0.138901
C282  C     C_R   0.998257 0.501952 0.898291 -0.138917
C283  C     C_R   0.499682 0.999664 0.101723 -0.137166
C284  C     C_R   0.500318 0.000351 0.898273 -0.137138
C285  C     C_R   0.540408 0.053132 0.541225 0.068821
C286  C     C_R   0.078384 0.606888 0.020801 -0.222365
C287  C     C_R   0.459694 0.946800 0.458776 0.068813
C288  C     C_R   0.946463 0.540498 0.540688 0.069196
C289  C     C_R   0.053542 0.459504 0.459314 0.069198
C290  C     C_R   0.462526 0.944289 0.540319 0.068496
C291  C     C_R   0.537542 0.055670 0.459682 0.068477
C292  C     C_R   0.053262 0.459173 0.540846 0.068757
C293  C     C_R   0.946734 0.540817 0.459157 0.068752
C294  C     C_R   0.040392 0.553140 0.041224 0.068824
C295  C     C_R   0.959667 0.446823 0.958773 0.068815
C296  C     C_R   0.446469 0.040526 0.040685 0.069204
H1    H     H_    0.230666 0.580042 0.796585 0.116661
H2    H     H_    0.765338 0.572862 0.789272 0.112799
H3    H     H_    0.812917 0.502706 0.390818 0.123094
H4    H     H_    0.515665 0.196189 0.596587 0.123032
H5    H     H_    0.592274 0.280994 0.635007 0.127860
H6    H     H_    0.708416 0.237715 0.664344 0.132172
H7    H     H_    0.748005 0.109039 0.655445 0.128984
H8    H     H_    0.672113 0.023565 0.617131 0.116294
H9    H     H_    0.327920 0.976310 0.382903 0.116271
H10   H     H_    0.252054 0.890804 0.344594 0.129018
H11   H     H_    0.291719 0.762158 0.335670 0.132166
H12   H     H_    0.407908 0.718938 0.364980 0.127843
H13   H     H_    0.442491 0.747159 0.238028 0.144138
H14   H     H_    0.484491 0.803775 0.403395 0.123023
H15   H     H_    0.811414 0.504246 0.607266 0.123058
H16   H     H_    0.722667 0.584675 0.640525 0.127216
H17   H     H_    0.752816 0.714724 0.653024 0.135932
H18   H     H_    0.872039 0.764300 0.632060 0.145777
H19   H     H_    0.962678 0.683857 0.600691 0.128499
H20   H     H_    0.037422 0.316128 0.399343 0.128525
H21   H     H_    0.128117 0.235711 0.368000 0.145800
H22   H     H_    0.247302 0.285343 0.347015 0.135915
H23   H     H_    0.277365 0.415422 0.359478 0.127212
H24   H     H_    0.557475 0.252894 0.761866 0.144276
H25   H     H_    0.188569 0.495827 0.392718 0.123058
H26   H     H_    0.020462 0.316250 0.108907 0.120254
H27   H     H_    0.953719 0.214631 0.139389 0.125856
H28   H     H_    0.819131 0.221689 0.146839 0.133162
H29   H     H_    0.751510 0.330377 0.123404 0.150124
H30   H     H_    0.817891 0.435087 0.095899 0.130417
H31   H     H_    0.182053 0.565246 0.903983 0.130342
H32   H     H_    0.248143 0.670119 0.876442 0.150231
H33   H     H_    0.180244 0.778708 0.853110 0.133073
H34   H     H_    0.045665 0.785503 0.860687 0.125799
H35   H     H_    0.761790 0.570887 0.212081 0.116509
H36   H     H_    0.979214 0.683718 0.891187 0.120172
H37   H     H_    0.687093 0.997161 0.109235 0.123132
H38   H     H_    0.777530 0.917346 0.141868 0.127996
H39   H     H_    0.750300 0.786150 0.151995 0.137078
H40   H     H_    0.632367 0.734828 0.129226 0.147813
H41   H     H_    0.539810 0.814635 0.098682 0.131055
H42   H     H_    0.460270 0.185396 0.901285 0.131056
H43   H     H_    0.367764 0.265219 0.870708 0.147803
H44   H     H_    0.249806 0.213936 0.847951 0.137073
H45   H     H_    0.222508 0.082764 0.858112 0.127988
H46   H     H_    0.238290 0.429195 0.787821 0.116581
H47   H     H_    0.312900 0.002933 0.890769 0.123137
H48   H     H_    0.015664 0.696191 0.096602 0.123027
H49   H     H_    0.092294 0.780988 0.135015 0.127855
H50   H     H_    0.208453 0.737703 0.164332 0.132165
H51   H     H_    0.248039 0.609028 0.155417 0.129026
H52   H     H_    0.172124 0.523562 0.117112 0.116305
H53   H     H_    0.827916 0.476361 0.882885 0.116270
H54   H     H_    0.752033 0.390870 0.844576 0.128966
H55   H     H_    0.791655 0.262206 0.835668 0.132169
H56   H     H_    0.907820 0.218955 0.864992 0.127860
H57   H     H_    0.581367 0.226006 0.201583 0.112507
H58   H     H_    0.984421 0.303776 0.903407 0.123026
H59   H     H_    0.311441 0.004232 0.107332 0.123087
H60   H     H_    0.222653 0.084675 0.140551 0.127240
H61   H     H_    0.252697 0.214782 0.152953 0.135927
H62   H     H_    0.371860 0.264401 0.131928 0.145768
H63   H     H_    0.462555 0.183952 0.100603 0.128571
H64   H     H_    0.537173 0.816099 0.899348 0.128538
H65   H     H_    0.627723 0.735512 0.868011 0.145697
H66   H     H_    0.747007 0.784921 0.847028 0.135963
H67   H     H_    0.777299 0.914956 0.859475 0.127242
H68   H     H_    0.418617 0.774006 0.798436 0.112498
H69   H     H_    0.688642 0.995539 0.892697 0.123095
H70   H     H_    0.730678 0.080028 0.296572 0.116692
H71   H     H_    0.269322 0.919967 0.703431 0.116668
H72   H     H_    0.929369 0.737166 0.287584 0.120038
H73   H     H_    0.769313 0.419975 0.203438 0.116682
H74   H     H_    0.070587 0.262790 0.712472 0.120069
H75   H     H_    0.246954 0.942998 0.261094 0.148974
H76   H     H_    0.753052 0.056994 0.738954 0.149038
H77   H     H_    0.068361 0.258578 0.283715 0.126188
H78   H     H_    0.931687 0.741469 0.716345 0.126247
H79   H     H_    0.734668 0.927144 0.710731 0.112801
H80   H     H_    0.265380 0.072901 0.289319 0.112785
H81   H     H_    0.942510 0.247114 0.738111 0.144243
H82   H     H_    0.057513 0.752838 0.261979 0.144124
H83   H     H_    0.261718 0.070815 0.712170 0.116575
H84   H     H_    0.429417 0.237216 0.787525 0.120062
H85   H     H_    0.738210 0.929115 0.287919 0.116496
H86   H     H_    0.081398 0.725977 0.701558 0.112499
H87   H     H_    0.918621 0.274001 0.298431 0.112493
H88   H     H_    0.068445 0.833548 0.661059 0.120203
H89   H     H_    0.931570 0.166431 0.338932 0.120208
H90   H     H_    0.144267 0.050592 0.680625 0.126718
H91   H     H_    0.855612 0.949289 0.319527 0.126655
H92   H     H_    0.975273 0.119319 0.736401 0.150300
H93   H     H_    0.024741 0.880630 0.263777 0.150272
H94   H     H_    0.852162 0.949622 0.680768 0.129620
H95   H     H_    0.570628 0.762834 0.212420 0.120037
H96   H     H_    0.147920 0.050458 0.319327 0.129592
H97   H     H_    0.048859 0.141614 0.315085 0.129926
H98   H     H_    0.951223 0.858467 0.685016 0.129975
H99   H     H_    0.119158 0.975373 0.263321 0.151446
H100  H     H_    0.880845 0.024592 0.736834 0.151476
H101  H     H_    0.950455 0.853615 0.319661 0.131288
H102  H     H_    0.049445 0.146284 0.680465 0.131328
H103  H     H_    0.838712 0.069494 0.337567 0.120200
H104  H     H_    0.161290 0.930500 0.662436 0.120145
H105  H     H_    0.568404 0.333589 0.161094 0.120199
H106  H     H_    0.746943 0.443013 0.761056 0.148980
H107  H     H_    0.431565 0.666442 0.838942 0.120215
H108  H     H_    0.644384 0.550713 0.180476 0.126646
H109  H     H_    0.355751 0.449428 0.819354 0.126736
H110  H     H_    0.475264 0.619368 0.236233 0.150268
H111  H     H_    0.524714 0.380686 0.763564 0.150310
H112  H     H_    0.352083 0.449549 0.180678 0.129588
H113  H     H_    0.647819 0.550357 0.819205 0.129624
H114  H     H_    0.548739 0.641483 0.814927 0.129986
H115  H     H_    0.451149 0.358402 0.184926 0.129911
H116  H     H_    0.619144 0.475413 0.763147 0.151468
H117  H     H_    0.253047 0.556998 0.238897 0.148947
H118  H     H_    0.380848 0.524624 0.236682 0.151443
H119  H     H_    0.450571 0.353734 0.819519 0.131327
H120  H     H_    0.549539 0.646382 0.180346 0.131274
H121  H     H_    0.338698 0.569509 0.837584 0.120190
H122  H     H_    0.661258 0.430525 0.162460 0.120132
H123  H     H_    0.610065 0.148690 0.535288 0.157215
H124  H     H_    0.390076 0.851213 0.464713 0.157219
H125  H     H_    0.851530 0.611778 0.533931 0.161016
H126  H     H_    0.148477 0.388226 0.466073 0.161029
H127  H     H_    0.394116 0.847678 0.532797 0.162394
H128  H     H_    0.568289 0.758501 0.783619 0.126268
H129  H     H_    0.605992 0.152250 0.467202 0.162347
H130  H     H_    0.148336 0.388016 0.534370 0.161563
H131  H     H_    0.851655 0.611969 0.465634 0.161579
H132  H     H_    0.110047 0.648699 0.035288 0.157222
H133  H     H_    0.890027 0.351248 0.964711 0.157218
H134  H     H_    0.351529 0.111809 0.033926 0.161025
H135  H     H_    0.648472 0.888214 0.966067 0.160998
H136  H     H_    0.894071 0.347705 0.032795 0.162385
H137  H     H_    0.105975 0.652266 0.967204 0.162366
H138  H     H_    0.648347 0.888030 0.034365 0.161570
H139  H     H_    0.431645 0.241430 0.216292 0.126181
H140  H     H_    0.351675 0.112021 0.965627 0.161560
H141  H     H_    0.520468 0.816254 0.608918 0.120262
H142  H     H_    0.453710 0.714639 0.639395 0.125855
H143  H     H_    0.319119 0.721699 0.646827 0.133168
H144  H     H_    0.251510 0.830385 0.623380 0.150132
H145  H     H_    0.317907 0.935094 0.595885 0.130429
H146  H     H_    0.682007 0.065255 0.403913 0.130288
H147  H     H_    0.748022 0.170145 0.376342 0.150276
H148  H     H_    0.680054 0.278734 0.353064 0.133049
H149  H     H_    0.545498 0.285511 0.360725 0.125771
H150  H     H_    0.234617 0.427099 0.210679 0.112789
H151  H     H_    0.479130 0.183701 0.391257 0.120122
H152  H     H_    0.187109 0.497193 0.609167 0.123092
H153  H     H_    0.277548 0.417445 0.641845 0.127962
H154  H     H_    0.250287 0.286287 0.652079 0.137048
H155  H     H_    0.132324 0.234936 0.629373 0.147859
H156  H     H_    0.039777 0.314684 0.598778 0.131002
H157  H     H_    0.960104 0.685323 0.401257 0.131015
H158  H     H_    0.867487 0.765029 0.370690 0.147880
H159  H     H_    0.749571 0.713603 0.347963 0.137042
H160  H     H_    0.722416 0.582412 0.358160 0.127954
O1    O     O_3   0.000000 0.500000 0.750000 -0.489082
O2    O     O_R   0.060740 0.500000 0.337440 -0.637610
O3    O     O_R   0.500000 0.939260 0.662560 -0.642032
O4    O     O_R   0.500000 0.060740 0.337440 -0.641920
O5    O     O_R   0.560740 0.000000 0.162560 -0.638291
O6    O     O_R   0.439260 1.000000 0.837440 -0.638299
O7    O     O_R   0.000000 0.560740 0.162560 -0.627758
O8    O     O_R   1.000000 0.439260 0.837440 -0.627744
O9    O     O_R   0.439260 0.000000 0.162560 -0.637637
O10   O     O_R   0.560740 1.000000 0.837440 -0.637609
O11   O     O_R   1.000000 0.439260 0.162560 -0.642027
O12   O     O_3   1.000000 0.500000 0.250000 -0.489080
O13   O     O_R   1.000000 0.560740 0.837440 -0.641970
O14   O     O_R   0.853850 0.585450 0.727070 -0.633509
O15   O     O_R   0.146150 0.414550 0.272930 -0.633505
O16   O     O_R   0.414550 0.853850 0.727070 -0.630796
O17   O     O_R   0.585450 0.146150 0.272930 -0.630744
O18   O     O_R   0.146150 0.414550 0.727070 -0.630397
O19   O     O_R   0.853850 0.585450 0.272930 -0.630381
O20   O     O_R   0.585450 0.146150 0.727070 -0.633596
O21   O     O_R   0.414550 0.853850 0.272930 -0.633548
O22   O     O_R   0.853850 0.414550 0.272930 -0.644444
O23   O     O_3   0.500000 0.000000 0.750000 -0.489063
O24   O     O_R   0.146150 0.585450 0.727070 -0.644452
O25   O     O_R   0.414550 0.146150 0.272930 -0.646796
O26   O     O_R   0.585450 0.853850 0.727070 -0.646846
O27   O     O_R   0.146150 0.585450 0.272930 -0.650975
O28   O     O_R   0.853850 0.414550 0.727070 -0.650974
O29   O     O_R   0.585450 0.853850 0.272930 -0.647441
O30   O     O_R   0.414550 0.146150 0.727070 -0.647455
O31   O     O_R   0.353850 0.085450 0.227070 -0.633521
O32   O     O_R   0.646150 0.914550 0.772930 -0.633516
O33   O     O_R   0.914550 0.353850 0.227070 -0.630784
O34   O     O_3   0.500000 0.000000 0.250000 -0.489084
O35   O     O_R   0.085450 0.646150 0.772930 -0.630756
O36   O     O_R   0.646150 0.914550 0.227070 -0.630394
O37   O     O_R   0.353850 0.085450 0.772930 -0.630415
O38   O     O_R   0.085450 0.646150 0.227070 -0.633546
O39   O     O_R   0.914550 0.353850 0.772930 -0.633583
O40   O     O_R   0.353850 0.914550 0.772930 -0.644453
O41   O     O_R   0.646150 0.085450 0.227070 -0.644448
O42   O     O_R   0.914550 0.646150 0.772930 -0.646814
O43   O     O_R   0.085450 0.353850 0.227070 -0.646819
O44   O     O_R   0.646150 0.085450 0.772930 -0.650982
O45   O     O_R   0.060740 0.500000 0.662560 -0.638258
O46   O     O_R   0.353850 0.914550 0.227070 -0.650978
O47   O     O_R   0.085450 0.353850 0.772930 -0.647447
O48   O     O_R   0.914550 0.646150 0.227070 -0.647436
O49   O     O_R   0.939260 0.500000 0.337440 -0.638270
O50   O     O_R   0.500000 0.060740 0.662560 -0.627747
O51   O     O_R   0.500000 0.939260 0.337440 -0.627760
O52   O     O_R   0.939260 0.500000 0.662560 -0.637596
Zn1   Zn    Zn3+2 0.000000 0.586740 0.782740 0.958873
Zn2   Zn    Zn3+2 0.500000 0.913260 0.717260 0.958816
Zn3   Zn    Zn3+2 0.913260 0.500000 0.282740 0.959648
Zn4   Zn    Zn3+2 0.086740 0.500000 0.717260 0.959641
Zn5   Zn    Zn3+2 0.500000 0.913260 0.282740 0.961198
Zn6   Zn    Zn3+2 0.500000 0.086740 0.717260 0.961198
Zn7   Zn    Zn3+2 0.086740 0.500000 0.282740 0.957288
Zn8   Zn    Zn3+2 0.913260 0.500000 0.717260 0.957291
Zn9   Zn    Zn3+2 1.000000 0.413260 0.217260 0.958826
Zn10  Zn    Zn3+2 0.413260 1.000000 0.782740 0.959624
Zn11  Zn    Zn3+2 0.586740 1.000000 0.217260 0.959627
Zn12  Zn    Zn3+2 0.000000 0.413260 0.782740 0.961187
Zn13  Zn    Zn3+2 0.000000 0.586740 0.217260 0.961215
Zn14  Zn    Zn3+2 0.586740 1.000000 0.782740 0.957298
Zn15  Zn    Zn3+2 0.413260 1.000000 0.217260 0.957265
Zn16  Zn    Zn3+2 0.500000 0.086740 0.282740 0.958909

loop_
_geom_bond_atom_site_label_1
_geom_bond_atom_site_label_2
_ccdc_geom_bond_type
C231  C264  A    
C126  C127  A    
C6    C270  A    
C42   H139  S    
C219  H69   S    
C3    C276  A    
O22   Zn3   S    
O6    Zn10  S    
O52   Zn8   S    
C75   H118  S    
C210  H61   S    
C17   O42   A    
C63   C98   A    
C101  C221  A    
C143  C144  A    
C70   H121  S    
C264  C292  A    
C39   C74   A    
C167  C268  S    
C7    C68   A    
C31   O28   A    
C49   H46   S    
C50   C90   A    
C25   O46   A    
C214  C276  S    
O34   Zn15  S    
C55   H74   S    
C91   C100  A    
C191  H44   S    
O47   Zn12  S    
C31   C254  S    
C36   C71   A    
O3    Zn2   S    
C112  C242  A    
C156  H16   S    
C221  C256  A    
O10   Zn14  S    
C93   H100  S    
C187  C193  A    
C253  C291  A    
C184  H39   S    
C157  C168  A    
C264  H130  S    
C218  H67   S    
C229  C254  A    
C174  C269  S    
O45   Zn4   S    
C33   O37   A    
C202  C203  A    
C83   H108  S    
C46   C286  A    
C54   C238  A    
C58   C235  A    
C98   H92   S    
C196  C197  A    
O48   Zn13  S    
C94   C97   A    
C181  C182  A    
C24   H135  S    
C15   O7    A    
C199  H52   S    
C171  H28   S    
C148  C265  S    
C215  C216  A    
C61   H79   S    
C18   O15   A    
C108  C293  A    
C182  H37   S    
C262  C293  A    
C78   H112  S    
C128  C261  S    
C55   C237  A    
C162  H20   S    
C202  H53   S    
C27   O24   A    
C72   C84   A    
C72   H119  S    
C35   H136  S    
C193  H47   S    
C158  C159  A    
C225  C239  A    
C44   H2    S    
C148  C153  A    
C41   H128  S    
C19   O16   A    
C183  H38   S    
C13   C296  A    
C237  C244  A    
C2    C295  A    
C45   C81   A    
C60   C233  A    
C113  C212  A    
C51   H68   S    
C157  C249  A    
C8    O45   A    
C139  C140  A    
C25   O21   A    
C265  C287  A    
C276  C284  A    
C5    C46   A    
C124  C201  A    
O12   Zn7   S    
C62   H80   S    
C166  H25   S    
C27   O35   A    
C268  C281  A    
C144  C145  A    
C23   C246  S    
C156  C158  A    
C130  C131  A    
C23   O44   A    
O1    Zn8   S    
C37   C221  A    
C163  H21   S    
C115  C259  S    
C138  H159  S    
C41   C76   A    
O23   Zn2   S    
C175  H31   S    
C26   C257  S    
C113  C245  A    
C36   H73   S    
C238  C245  A    
C230  C234  A    
C79   C241  A    
C208  H59   S    
C124  C246  A    
C13   H134  S    
C177  H33   S    
C123  C125  A    
C19   C241  S    
C121  C260  S    
C195  C196  A    
C60   C95   A    
C192  H45   S    
O26   Zn2   S    
C200  C202  A    
C155  C156  A    
C38   C212  A    
C149  C150  A    
C73   C83   A    
C11   O51   A    
C224  C257  A    
C180  H36   S    
O29   Zn5   S    
C126  H149  S    
C9    O49   A    
C4    C109  A    
C263  C285  A    
C95   C96   A    
C6    C111  A    
C205  H56   S    
C128  C129  A    
C47   C124  A    
C61   C96   A    
C67   C103  A    
C167  C169  A    
C38   H95   S    
C216  H65   S    
C28   O31   A    
C136  H157  S    
C69   H87   S    
C273  C282  A    
C26   O33   A    
C110  C295  A    
C275  H131  S    
C265  C278  A    
C131  H154  S    
C170  C171  A    
C201  C254  A    
C261  C292  A    
C267  C280  A    
C61   C232  A    
C184  C185  A    
C65   C227  A    
C20   O17   A    
C189  C191  A    
C31   O39   A    
C174  C175  A    
C95   H98   S    
C160  H19   S    
C182  C183  A    
C30   O27   A    
C64   C99   A    
C30   C252  S    
C24   C57   A    
C16   O8    A    
C107  C108  A    
C9    C280  S    
C11   C278  S    
O27   Zn7   S    
C19   O40   A    
C220  C275  A    
C141  C263  S    
C3    C24   A    
C39   H106  S    
C56   H75   S    
C207  C274  S    
C119  H144  S    
C65   H83   S    
C16   O13   A    
O12   Zn9   S    
O11   Zn9   S    
C158  H17   S    
C135  C247  A    
C137  H158  S    
C141  C147  A    
O5    Zn11  S    
C217  C218  A    
C105  C285  A    
C87   C104  A    
C18   O43   A    
C135  C190  A    
C71   H122  S    
C62   C97   A    
O34   Zn16  S    
C86   H107  S    
C209  C210  A    
C239  C241  A    
C224  C240  A    
C185  H40   S    
C176  H32   S    
C125  H148  S    
C226  C255  A    
C211  H62   S    
C100  H90   S    
C259  C277  A    
C194  C272  S    
C117  H142  S    
C81   H110  S    
C174  C180  A    
C8    C279  S    
C107  C292  A    
C99   H93   S    
C231  H126  S    
O33   Zn9   S    
C129  C130  A    
C189  H43   S    
O9    Zn15  S    
C15   O11   A    
C165  H23   S    
C142  C143  A    
C41   C179  A    
O38   Zn13  S    
C274  C283  A    
C198  H51   S    
O40   Zn10  S    
C136  C137  A    
C43   C157  A    
C3    C114  A    
C181  C186  A    
O28   Zn8   S    
C79   C223  A    
C227  C256  A    
C266  C279  A    
C168  C250  A    
C48   C83   A    
C63   C229  A    
C220  C288  A    
C212  C255  A    
C172  H29   S    
C117  C118  A    
C48   H35   S    
C161  C267  S    
C149  H9    S    
C63   H81   S    
C68   H140  S    
C10   C277  S    
C170  H27   S    
C28   C250  S    
C222  C257  A    
C15   C281  S    
C52   C240  A    
C112  C287  A    
C266  C288  A    
C152  C153  A    
C42   C77   A    
O18   Zn4   S    
C150  C151  A    
C56   C236  A    
C10   O50   A    
C173  H30   S    
C145  H7    S    
C92   C99   A    
C272  C294  A    
C13   C68   A    
C2    C35   A    
O34   Zn5   S    
C169  H26   S    
C209  H60   S    
C20   C243  S    
C37   H84   S    
C253  H129  S    
O13   Zn1   S    
O1    Zn12  S    
C52   H70   S    
C203  C204  A    
C116  H141  S    
C53   C239  A    
C1    C285  A    
C161  C162  A    
C77   C78   A    
C34   C223  A    
C43   C78   A    
O19   Zn3   S    
C29   C251  S    
C7    C114  A    
C164  C165  A    
C58   C93   A    
C225  C258  A    
C121  C127  A    
C21   O18   A    
C49   C101  A    
C89   H101  S    
C242  C290  A    
C67   C225  A    
C18   C249  S    
C215  H64   S    
C146  C248  A    
C234  C249  A    
C273  C295  A    
O15   Zn7   S    
C101  C244  A    
C274  C296  A    
C59   H77   S    
C55   C91   A    
C275  C293  A    
C50   C85   A    
O30   Zn6   S    
C1    C253  A    
C208  C209  A    
C152  H12   S    
O16   Zn2   S    
C151  C152  A    
C59   C94   A    
C34   C70   A    
C235  C246  A    
C66   H85   S    
C167  C173  A    
C194  C195  A    
C4    C35   A    
C187  C271  S    
C6    C57   A    
O14   Zn8   S    
C195  H48   S    
C74   C82   A    
C133  H156  S    
C64   H82   S    
C51   C86   A    
C145  C147  A    
C42   C168  A    
C140  H3    S    
C11   O4    A    
O4    Zn16  S    
C123  H147  S    
C9    O2    A    
C74   H116  S    
C207  C208  A    
C76   C80   A    
C44   C80   A    
C94   H97   S    
C97   H96   S    
C87   H103  S    
C92   H99   S    
C188  H42   S    
C88   H104  S    
C240  C243  A    
C191  C192  A    
C206  H58   S    
C103  H88   S    
C132  H155  S    
C179  C251  A    
C159  C160  A    
C261  C279  A    
C150  H10   S    
O17   Zn16  S    
C262  C280  A    
C66   C226  A    
C21   O47   A    
C232  C251  A    
C73   H120  S    
C1    H123  S    
C121  C122  A    
O34   Zn11  S    
C85   H105  S    
O12   Zn13  S    
O49   Zn3   S    
C39   C201  A    
C125  C126  A    
C211  C213  A    
O39   Zn12  S    
C131  C132  A    
C129  H152  S    
C153  H14   S    
O24   Zn4   S    
C162  C163  A    
C10   O3    A    
C186  H41   S    
C144  H6    S    
C272  C281  A    
C27   C258  S    
C147  H8    S    
C178  H34   S    
C33   C256  S    
C65   C100  A    
C26   O22   A    
O23   Zn6   S    
C178  C180  A    
C119  C120  A    
C32   O29   A    
C4    C268  A    
O1    Zn4   S    
C105  C106  A    
C5    C269  A    
C17   C248  S    
C40   C75   A    
C32   C255  S    
C214  C219  A    
C91   H102  S    
C14   C284  S    
C84   H109  S    
C53   H71   S    
O12   Zn3   S    
C7    C271  A    
C196  H49   S    
C45   H13   S    
C187  C188  A    
O2    Zn7   S    
O51   Zn5   S    
C58   H76   S    
C185  C186  A    
C232  C233  A    
O32   Zn14  S    
C146  C179  A    
C111  C114  A    
O44   Zn14  S    
C20   O41   A    
C112  H124  S    
C231  C289  A    
C138  C139  A    
C12   C283  S    
C197  H50   S    
C40   H117  S    
C242  H127  S    
O36   Zn11  S    
C142  H4    S    
C177  C178  A    
C5    C110  A    
C37   C72   A    
C47   H24   S    
C139  H160  S    
C105  C290  A    
C128  C133  A    
O50   Zn6   S    
C127  H151  S    
C200  C273  S    
C48   C113  A    
C228  C252  A    
C171  C172  A    
C229  C235  A    
C165  C166  A    
C226  C238  A    
O31   Zn15  S    
C89   C102  A    
C169  C170  A    
C66   C102  A    
C163  C164  A    
C183  C184  A    
C271  C284  A    
C54   H72   S    
C205  C206  A    
C286  C294  A    
C90   C222  A    
C104  H89   S    
C14   O6    A    
C134  C140  A    
C33   O30   A    
C109  C294  A    
C259  C290  A    
C17   O14   A    
C227  C237  A    
C207  C213  A    
C260  C278  A    
C116  C117  A    
C32   O36   A    
C47   C82   A    
C118  C119  A    
C8    O52   A    
C23   O20   A    
C141  C142  A    
C175  C176  A    
C203  H54   S    
C132  C133  A    
O23   Zn14  S    
C223  C258  A    
C28   O25   A    
C44   C146  A    
C216  C217  A    
C50   H57   S    
C198  C199  A    
C270  C283  A    
O25   Zn16  S    
C161  C166  A    
C12   O5    A    
C130  H153  S    
C45   C135  A    
C134  C262  S    
C71   C85   A    
C90   C243  A    
C77   H115  S    
C22   O48   A    
C236  C247  A    
C197  C198  A    
O21   Zn5   S    
C159  H18   S    
C76   H114  S    
C51   C79   A    
C204  H55   S    
C155  H15   S    
C228  C236  A    
C267  C289  A    
C148  C149  A    
O35   Zn1   S    
C54   C89   A    
C14   O10   A    
C214  C215  A    
C75   C81   A    
C134  C136  A    
C62   C230  A    
C263  C277  A    
C188  C189  A    
C217  H66   S    
O20   Zn6   S    
C22   O19   A    
C29   O32   A    
C154  C160  A    
C108  C289  A    
C194  C199  A    
C213  H63   S    
C115  C116  A    
C286  H132  S    
C120  H145  S    
C190  C252  A    
C154  C155  A    
C80   H113  S    
C118  H143  S    
C204  C205  A    
C21   C244  S    
C164  H22   S    
C25   C247  S    
C176  C177  A    
O7    Zn13  S    
C12   O9    A    
C115  C120  A    
C2    H133  S    
C122  H146  S    
C59   C234  A    
O46   Zn15  S    
C70   C86   A    
C36   C222  A    
C64   C228  A    
C88   C103  A    
C172  C173  A    
C181  C270  S    
C69   C104  A    
C49   C84   A    
C200  C206  A    
C111  C296  A    
O37   Zn10  S    
C52   C87   A    
C43   H150  S    
C154  C266  S    
C22   C245  S    
C233  C248  A    
C60   H78   S    
C137  C138  A    
C151  H11   S    
C82   H111  S    
O8    Zn12  S    
C69   C224  A    
C192  C193  A    
C107  C288  A    
C106  C287  A    
C106  C291  A    
C46   H137  S    
C218  C219  A    
C57   H138  S    
C34   H1    S    
C29   O26   A    
C30   O38   A    
O1    Zn1   S    
C220  H125  S    
C53   C88   A    
C16   C282  S    
C269  C282  A    
C260  C291  A    
C143  H5    S    
C56   C92   A    
C40   C190  A    
C102  H91   S    
C210  C211  A    
O41   Zn11  S    
C67   H86   S    
C109  C110  A    
O42   Zn1   S    
C96   H94   S    
O43   Zn9   S    
C122  C123  A    
C230  C250  A    
C93   C98   A    
O23   Zn10  S    
C38   C73   A    
