data_mof_unit_60164.cif
_audit_creation_date              2012-10-26T21:12:10-0400
_audit_creation_method            fapswitch 2.2
_symmetry_space_group_name_H-M    P1
_symmetry_Int_Tables_number       1
_space_group_crystal_system       triclinic
_cell_length_a                    19.456879
_cell_length_b                    18.148573
_cell_length_c                    10.954961
_cell_angle_alpha                 90.017643
_cell_angle_beta                  90.20392
_cell_angle_gamma                 89.997907
_cell_volume                      3868.33186368

loop_
_atom_site_label
_atom_site_type_symbol
_atom_type_description
_atom_site_fract_x
_atom_site_fract_y
_atom_site_fract_z
_atom_type_partial_charge
Br1   Br    Br    0.441982 0.353559 0.872810 -0.441389
Br2   Br    Br    0.550170 0.350256 0.125315 -0.443767
C1    C     C_R   0.367533 0.500021 0.499911 0.547681
C2    C     C_R   0.964033 0.451182 0.424536 -0.112106
C3    C     C_R   0.456254 0.720941 0.424820 0.048149
C4    C     C_R   0.543743 0.720966 0.575186 0.048120
C5    C     C_R   0.455404 0.798289 0.423407 -0.142551
C6    C     C_R   0.544589 0.798314 0.576605 -0.142548
C7    C     C_R   0.499995 0.838466 0.500008 0.019453
C8    C     C_R   0.561444 0.961366 0.515586 -0.107693
C9    C     C_R   0.438539 0.961362 0.484438 -0.107639
C10   C     C_R   0.561435 0.038765 0.515643 -0.103981
C11   C     C_R   0.438544 0.038761 0.484386 -0.103855
C12   C     C_R   0.632467 0.500019 0.500112 0.546832
C13   C     C_R   0.499989 0.078771 0.500016 0.037242
C14   C     C_R   0.500498 0.499704 0.264906 0.577118
C15   C     C_R   0.499178 0.499740 0.735042 0.577959
C16   C     C_R   0.499993 0.921328 0.500011 0.033534
C17   C     C_R   0.455978 0.201717 0.422347 -0.122528
C18   C     C_R   0.543995 0.201742 0.577696 -0.123274
C19   C     C_R   0.456826 0.279055 0.423767 0.084842
C20   C     C_R   0.543152 0.279079 0.576271 0.083540
C21   C     C_R   0.499987 0.161597 0.500019 0.018415
C22   C     C_2   0.489368 0.439517 0.934851 0.164268
C23   C     C_R   0.707959 0.499990 0.500296 0.017804
C24   C     C_2   0.506684 0.438869 0.064646 0.164169
C25   C     C_2   0.505259 0.498882 0.866850 -0.118385
C26   C     C_2   0.493676 0.498909 0.133123 -0.119066
C27   C     C_R   0.744313 0.433159 0.500314 -0.118312
C28   C     C_R   0.255690 0.433167 0.500086 -0.117325
C29   C     C_R   0.815880 0.433148 0.500346 -0.115649
C30   C     C_R   0.184123 0.433161 0.500075 -0.115114
C31   C     C_R   0.852230 0.499920 0.500459 0.031265
C32   C     C_R   0.147778 0.499936 0.499891 0.031252
C33   C     C_R   0.815930 0.566727 0.500579 -0.119320
C34   C     C_R   0.292043 0.499997 0.499815 0.018255
C35   C     C_R   0.184071 0.566740 0.499577 -0.119341
C36   C     C_R   0.744362 0.566785 0.500474 -0.129007
C37   C     C_R   0.255638 0.566794 0.499470 -0.128702
C38   C     C_R   0.964423 0.548591 0.576087 -0.113183
C39   C     C_R   0.035988 0.548607 0.575921 -0.112220
C40   C     C_R   0.072115 0.499909 0.500067 0.030436
C41   C     C_R   0.927900 0.499887 0.500380 0.030240
C42   C     C_R   0.035599 0.451187 0.424392 -0.112885
Cu1   Cu    Cu3+1 0.500000 0.573360 0.500000 0.940883
Cu2   Cu    Cu3+1 0.500000 0.426640 0.500000 1.017732
H1    H     H_    0.420744 0.826280 0.361384 0.092068
H2    H     H_    0.576994 0.309362 0.636676 0.137378
H3    H     H_    0.528643 0.547114 0.908624 0.062103
H4    H     H_    0.472165 0.548218 0.091671 0.062937
H5    H     H_    0.717540 0.380836 0.500571 0.133451
H6    H     H_    0.282465 0.380843 0.500617 0.134343
H7    H     H_    0.842839 0.380941 0.501763 0.109358
H8    H     H_    0.157165 0.380962 0.501755 0.109988
H9    H     H_    0.842922 0.618909 0.499210 0.106120
H10   H     H_    0.157063 0.618916 0.497929 0.105973
H11   H     H_    0.717627 0.619132 0.500226 0.125572
H12   H     H_    0.579246 0.826326 0.638632 0.091898
H13   H     H_    0.282371 0.619138 0.498852 0.125508
H14   H     H_    0.937613 0.585902 0.636649 0.105231
H15   H     H_    0.063119 0.585929 0.636352 0.106552
H16   H     H_    0.062418 0.413875 0.363843 0.107778
H17   H     H_    0.936910 0.413873 0.364073 0.109443
H18   H     H_    0.421917 0.690671 0.365287 0.120072
H19   H     H_    0.578079 0.690715 0.634718 0.119861
H20   H     H_    0.610011 0.932887 0.525679 0.103078
H21   H     H_    0.389974 0.932880 0.474343 0.103170
H22   H     H_    0.609976 0.067292 0.525841 0.105705
H23   H     H_    0.390002 0.067285 0.474190 0.105899
H24   H     H_    0.421789 0.173670 0.359543 0.103525
H25   H     H_    0.578178 0.173713 0.640507 0.103032
H26   H     H_    0.422979 0.309318 0.363372 0.139023
N1    N     N_R   0.500000 0.683620 0.500000 -0.221414
N2    N     N_R   0.500000 0.316380 0.500000 -0.216590
O1    O     O_R   0.400190 0.561980 0.499980 -0.514079
O2    O     O_R   0.599810 0.561980 0.500020 -0.513936
O3    O     O_R   0.400190 0.438070 0.500040 -0.505683
O4    O     O_R   0.599810 0.438070 0.499960 -0.506639
O5    O     O_R   0.500000 0.561940 0.321950 -0.512311
O6    O     O_R   0.500000 0.561940 0.678050 -0.512207
O7    O     O_R   0.500010 0.438030 0.322010 -0.452568
O8    O     O_R   0.499990 0.438030 0.677990 -0.452996

loop_
_geom_bond_atom_site_label_1
_geom_bond_atom_site_label_2
_ccdc_geom_bond_type
C14   C26   S    
C20   H2    S    
C9    C16   A    
C38   H14   S    
C32   C35   A    
C39   C40   A    
C32   C40   S    
C22   C25   D    
C39   H15   S    
Cu1   Cu2   S    
C10   H22   S    
C2    H17   S    
Cu1   O2    S    
C17   C19   A    
C22   C24   S    
C36   H11   S    
Cu1   N1    S    
C15   O8    A    
C6    H12   S    
Cu2   O8    S    
C35   H10   S    
C26   H4    S    
C38   C41   A    
C6    C7    A    
C29   C31   A    
C18   H25   S    
C1    O1    A    
C13   C21   S    
C40   C42   A    
C30   H8    S    
C4    H19   S    
C9    H21   S    
C8    H20   S    
C23   C27   A    
C19   H26   S    
C33   H9    S    
C15   C25   S    
C33   C36   A    
Cu1   O5    S    
Cu2   O4    S    
C4    C6    A    
C2    C42   A    
C42   H16   S    
C30   C32   A    
C18   C21   A    
C19   N2    A    
C15   O6    A    
C3    H18   S    
C12   O2    A    
C17   C21   A    
C23   C36   A    
Cu2   O7    S    
C10   C13   A    
C37   H13   S    
Br2   C24   S    
C29   H7    S    
C8    C10   A    
C38   C39   A    
C18   C20   A    
C11   C13   A    
C20   N2    A    
C1    O3    A    
Cu2   N2    S    
C4    N1    A    
C3    C5    A    
C27   H5    S    
C5    C7    A    
C28   H6    S    
C34   C37   A    
Cu2   O3    S    
C2    C41   A    
C24   C26   D    
C28   C34   A    
Cu1   O1    S    
C14   O5    A    
C27   C29   A    
C28   C30   A    
C9    C11   A    
C11   H23   S    
C1    C34   S    
C8    C16   A    
C14   O7    A    
C31   C33   A    
Cu1   O6    S    
C12   O4    A    
C12   C23   S    
C3    N1    A    
C7    C16   S    
Br1   C22   S    
C35   C37   A    
C17   H24   S    
C31   C41   S    
C25   H3    S    
C5    H1    S    
