data_mof_unit_33598.cif
_audit_creation_date              2012-12-10T16:57:04-0500
_audit_creation_method            fapswitch 2.2
_symmetry_space_group_name_H-M    P1
_symmetry_Int_Tables_number       1
_space_group_crystal_system       triclinic
_cell_length_a                    7.756302
_cell_length_b                    8.63243
_cell_length_c                    16.69183
_cell_angle_alpha                 91.755261
_cell_angle_beta                  81.262297
_cell_angle_gamma                 93.598015
_cell_volume                      1102.21333979

loop_
_atom_site_label
_atom_site_type_symbol
_atom_type_description
_atom_site_fract_x
_atom_site_fract_y
_atom_site_fract_z
_atom_type_partial_charge
C1    C     C_R   0.545742 0.794379 0.497876 0.887990
C2    C     C_R   0.359510 0.365854 0.241882 -0.228703
C3    C     C_R   0.603304 0.441087 0.857579 0.643616
C4    C     C_R   0.354698 0.303929 0.164867 0.639127
C5    C     C_R   0.444341 0.461293 0.908271 -0.042627
C6    C     C_R   0.506947 0.308838 0.108016 -0.044297
C7    C     C_R   0.298515 0.508170 0.876431 0.088968
C8    C     C_R   0.668494 0.362978 0.130203 0.057107
C9    C     C_R   0.311116 0.523855 0.792638 -0.199109
C10   C     C_R   0.672496 0.423181 0.208680 -0.172133
C11   C     C_2   0.433969 0.438249 0.994800 0.492600
C12   C     C_R   0.454267 0.205615 0.502019 0.878149
C13   C     C_2   0.486932 0.308370 0.023127 0.603224
C14   C     C_2   0.570247 0.956712 0.496798 0.279782
C15   C     C_2   0.429782 0.043285 0.502916 0.281126
C16   C     C_R   0.478611 0.502772 0.654404 0.902771
C17   C     C_R   0.519410 0.487249 0.346096 0.898800
C18   C     C_R   0.468245 0.496933 0.741924 -0.149524
C19   C     C_R   0.517040 0.430511 0.263345 -0.142078
C20   C     C_R   0.614887 0.458779 0.774993 -0.255124
F1    F     F_    0.539042 0.186365 0.973683 -0.621824
F2    F     F_    0.381914 0.557495 0.046507 -0.666185
F3    F     F_    0.198811 0.252620 0.143189 -0.667615
F4    F     F_    0.747821 0.404793 0.888127 -0.652118
F5    F     F_    0.738764 0.016804 0.489644 -0.616835
F6    F     F_    0.261277 0.983195 0.509984 -0.617404
H1    H     H_    0.738175 0.439677 0.736949 0.193772
H2    H     H_    0.929792 0.419792 0.095832 0.244966
H3    H     H_    0.239095 0.364421 0.284398 0.181262
H4    H     H_    0.795204 0.468222 0.226239 0.184456
H5    H     H_    0.198285 0.555844 0.767142 0.180789
H6    H     H_    0.022975 0.381065 0.439711 0.213188
H7    H     H_    0.977017 0.618902 0.560303 0.216031
H8    H     H_    0.157622 0.636913 0.962242 0.252766
H9    H     H_    0.039856 0.556118 0.894650 0.243686
H10   H     H_    0.853817 0.253383 0.055801 0.266233
N1    N     N_2   0.953500 0.457650 0.478520 -0.144671
N2    N     N_2   0.046500 0.542350 0.521480 -0.146286
N3    N     N_3   0.137660 0.534684 0.928868 -0.368419
N4    N     N_3   0.823883 0.368018 0.070939 -0.352822
O1    O     O_R   0.388470 0.738640 0.505270 -0.569663
O2    O     O_R   0.611530 0.261360 0.494730 -0.571674
O3    O     O_R   0.679650 0.711510 0.491500 -0.579540
O4    O     O_R   0.320350 0.288490 0.508500 -0.584593
O5    O     O_R   0.337210 0.515200 0.623500 -0.619293
O6    O     O_R   0.662790 0.484800 0.376500 -0.616351
O7    O     O_R   0.628380 0.488060 0.609730 -0.633398
O8    O     O_R   0.371620 0.511940 0.390270 -0.628162
Zn1   Zn    Zn3+2 0.305580 0.518120 0.509190 1.028954
Zn2   Zn    Zn3+2 0.694420 0.481880 0.490810 1.031085

loop_
_geom_bond_atom_site_label_1
_geom_bond_atom_site_label_2
_ccdc_geom_bond_type
C16   O5    A    
O4    Zn1   S    
C2    C4    A    
C17   O8    A    
O3    Zn2   S    
N1    N2    D    
C20   H1    S    
C7    N3    S    
C10   H4    S    
C11   F2    S    
H9    N3    S    
H7    N2    S    
C12   C15   S    
O5    Zn1   S    
C10   C19   A    
C13   F1    S    
C3    C20   A    
C12   O4    A    
N2    Zn1   S    
H6    N1    S    
C6    C13   S    
N1    Zn2   S    
C11   C13   D    
C3    F4    S    
O2    Zn2   S    
C2    H3    S    
C6    C8    A    
C16   O7    A    
O1    Zn1   S    
O8    Zn1   S    
C17   C19   S    
C5    C11   S    
O7    Zn2   S    
C18   C20   A    
C14   F5    S    
C4    C6    A    
H2    N4    S    
H8    N3    S    
C7    C9    A    
C9    C18   A    
H10   N4    S    
C17   O6    A    
C16   C18   S    
C1    O1    A    
C5    C7    A    
C4    F3    S    
O6    Zn2   S    
C14   C15   D    
C15   F6    S    
C12   O2    A    
C1    C14   S    
C8    N4    S    
C2    C19   A    
C1    O3    A    
C8    C10   A    
C9    H5    S    
C3    C5    A    
