data_mof_unit_33547.cif
_audit_creation_date              2012-12-10T20:31:51-0500
_audit_creation_method            fapswitch 2.2
_symmetry_space_group_name_H-M    P1
_symmetry_Int_Tables_number       1
_space_group_crystal_system       triclinic
_cell_length_a                    9.929445
_cell_length_b                    10.655192
_cell_length_c                    15.429952
_cell_angle_alpha                 91.200663
_cell_angle_beta                  68.77238
_cell_angle_gamma                 89.271965
_cell_volume                      1521.03073474

loop_
_atom_site_label
_atom_site_type_symbol
_atom_type_description
_atom_site_fract_x
_atom_site_fract_y
_atom_site_fract_z
_atom_type_partial_charge
C1    C     C_R   0.504344 0.740080 0.492986 0.879433
C2    C     C_R   0.417967 0.424581 0.908487 0.103202
C3    C     C_R   0.290818 0.358518 0.951585 0.120914
C4    C     C_R   0.525563 0.424011 0.947176 0.040945
C5    C     C_R   0.485386 0.405652 0.043117 0.035011
C6    C     C_R   0.347700 0.354551 0.091420 -0.215252
C7    C     C_R   0.255427 0.323890 0.044010 -0.235015
C8    C     C_R   0.673583 0.428226 0.890845 0.186732
C9    C     C_R   0.774826 0.452133 0.932196 -0.309948
C10   C     C_R   0.731679 0.460732 0.028697 0.124233
C11   C     C_R   0.586807 0.435582 0.085072 0.084990
C12   C     C_R   0.410512 0.489471 0.674890 0.897625
C13   C     C_R   0.832609 0.491731 0.069369 -0.242357
C14   C     C_R   0.790195 0.504231 0.166035 0.093178
C15   C     C_R   0.546012 0.448458 0.181227 -0.298799
C16   C     C_R   0.409843 0.936697 0.454867 0.108295
C17   C     C_R   0.522385 0.870550 0.468143 -0.142685
C18   C     C_R   0.653413 0.933870 0.455265 0.100974
C19   C     C_R   0.650405 0.064841 0.456647 -0.271790
C20   C     C_R   0.521304 0.129361 0.467686 -0.137742
C21   C     C_R   0.410363 0.065223 0.452549 0.133698
C22   C     C_3   0.251110 0.077119 0.502900 -0.478936
C23   C     C_R   0.504842 0.260120 0.492884 0.889948
C24   C     C_3   0.251916 0.936162 0.509190 -0.504612
C25   C     C_R   0.904568 0.598168 0.539549 0.202707
C26   C     C_R   0.956064 0.409635 0.452957 -0.133911
C27   C     C_R   0.099690 0.409909 0.452649 -0.133165
C28   C     C_R   0.046086 0.597371 0.541487 0.158306
C29   C     C_3   0.983280 0.632260 0.643821 -0.151653
C30   C     C_3   0.834611 0.642138 0.637468 -0.491892
C31   C     C_R   0.590199 0.497932 0.324001 0.866059
C32   C     C_R   0.358486 0.449525 0.771649 -0.116926
C33   C     C_R   0.644818 0.484412 0.222278 -0.062103
C34   C     C_R   0.210365 0.320357 0.897956 -0.289577
C35   C     C_R   0.254242 0.355331 0.804276 0.211764
C36   C     C_R   0.437911 0.484725 0.825550 -0.277224
H1    H     H_    0.156458 0.274939 0.079676 0.144253
H2    H     H_    0.944064 0.508386 0.026124 0.149275
H3    H     H_    0.744573 0.115092 0.456697 0.163404
H4    H     H_    0.221316 0.125975 0.571640 0.220023
H5    H     H_    0.194070 0.111729 0.457695 0.191716
H6    H     H_    0.232179 0.908194 0.581227 0.198117
H7    H     H_    0.189873 0.888006 0.471498 0.207713
H8    H     H_    0.924058 0.335099 0.416265 0.136777
H9    H     H_    0.175415 0.336080 0.415246 0.138488
H10   H     H_    0.996174 0.557041 0.688106 0.164325
H11   H     H_    0.434916 0.435524 0.225230 0.167360
H12   H     H_    0.756435 0.574937 0.680219 0.212099
H13   H     H_    0.790014 0.739390 0.642258 0.207448
H14   H     H_    0.887210 0.463292 0.889382 0.154130
H15   H     H_    0.124333 0.254099 0.925472 0.153125
H16   H     H_    0.523955 0.551234 0.799179 0.168603
H17   H     H_    0.314258 0.328118 0.163190 0.139666
N1    N     N_R   0.856900 0.500860 0.500610 -0.099289
N2    N     N_R   0.142540 0.500820 0.500610 -0.107463
O1    O     O_R   0.385310 0.683210 0.499990 -0.619943
O2    O     O_R   0.614650 0.683240 0.500000 -0.590020
O3    O     O_R   0.319830 0.499970 0.632240 -0.595320
O4    O     O_R   0.549170 0.500000 0.632250 -0.610451
O5    O     O_R   0.385350 0.316760 0.500000 -0.610062
O6    O     O_R   0.614690 0.316790 0.500010 -0.627291
O7    O     O_R   0.450830 0.500000 0.367750 -0.625956
O8    O     O_R   0.680170 0.500030 0.367760 -0.590384
Zn1   Zn    Zn3+2 0.346870 0.499980 0.499990 0.940772
Zn2   Zn    Zn3+2 0.653130 0.500020 0.500010 0.952351
N3    N     N_3   0.784277 0.867476 0.448164 -0.427318
H18   H     H_    0.822084 0.819712 0.383683 0.192668
H19   H     H_    0.864892 0.929910 0.447797 0.161499
N4    N     N_3   0.029863 0.752193 0.668656 -0.446794
H20   H     H_    0.017858 0.821088 0.624671 0.197499
H21   H     H_    0.138709 0.741456 0.660048 0.207217
N5    N     N_3   0.894153 0.539538 0.206134 -0.438722
H22   H     H_    0.937064 0.625467 0.178849 0.178699
H23   H     H_    0.978230 0.472366 0.185244 0.184773
N6    N     N_2   0.217403 0.279288 0.739782 -0.294775
H24   H     H_    0.252865 0.187364 0.737089 0.216471
C37   C     C_3   0.067959 0.287993 0.750139 -0.794300
H25   H     H_    0.998294 0.248709 0.817272 0.234044
H26   H     H_    0.050156 0.235914 0.692436 0.238767
H27   H     H_    0.040078 0.387286 0.747158 0.238518
N7    N     N_2   0.721661 0.394187 0.794435 -0.311614
H28   H     H_    0.822375 0.424634 0.756071 0.214233
C38   C     C_3   0.703199 0.263791 0.773413 -0.750257
H29   H     H_    0.744272 0.247633 0.696801 0.238860
H30   H     H_    0.587520 0.238809 0.801181 0.249952
H31   H     H_    0.764178 0.201356 0.803588 0.232692

loop_
_geom_bond_atom_site_label_1
_geom_bond_atom_site_label_2
_ccdc_geom_bond_type
N3    H19   S    
O8    Zn2   S    
C16   C21   A    
C24   H6    S    
C19   C20   A    
C15   H11   S    
C4    C8    A    
C14   C33   A    
N7    H28   S    
C26   H8    S    
N1    Zn2   S    
C37   H25   S    
C25   C28   A    
C35   N6    S    
C34   H15   S    
C32   C36   A    
C30   H12   S    
C28   C29   S    
C1    O1    A    
C5    C11   A    
C3    C7    A    
C5    C6    A    
C27   N2    A    
C22   H5    S    
C34   C35   A    
N4    H21   S    
O7    Zn1   S    
C12   O4    A    
C11   C15   A    
C8    C9    A    
O1    Zn1   S    
C9    C10   A    
C36   H16   S    
C12   O3    A    
C27   H9    S    
N3    H18   S    
C16   C24   S    
C21   C22   S    
C12   C32   S    
C31   O7    A    
C26   N1    A    
N7    C38   S    
C28   N2    A    
C29   N4    S    
C37   H26   S    
O3    Zn1   S    
C23   O5    A    
C8    N7    S    
C32   C35   A    
C31   O8    A    
C25   N1    A    
N5    H23   S    
C18   C19   A    
C3    C34   A    
C2    C4    A    
N6    H24   S    
C29   C30   S    
C1    O2    A    
C38   H29   S    
C20   C23   S    
C23   O6    A    
C22   H4    S    
N2    Zn1   S    
C31   C33   S    
C17   C18   A    
C7    H1    S    
N6    C37   S    
C13   H2    S    
C19   H3    S    
C38   H30   S    
C30   H13   S    
C26   C27   A    
C22   C24   S    
C6    H17   S    
C37   H27   S    
C2    C36   A    
C25   C30   S    
C14   N5    S    
C9    H14   S    
O2    Zn2   S    
N5    H22   S    
C10   C13   A    
C6    C7    A    
C18   N3    S    
C1    C17   S    
C29   H10   S    
O5    Zn1   S    
C2    C3    A    
O4    Zn2   S    
C16   C17   A    
N4    H20   S    
C10   C11   A    
O6    Zn2   S    
C4    C5    A    
C38   H31   S    
C20   C21   A    
C24   H7    S    
C13   C14   A    
C15   C33   A    
