data_mof_unit_60739.cif
_audit_creation_date              2012-10-26T18:09:00-0400
_audit_creation_method            fapswitch 2.2
_symmetry_space_group_name_H-M    P1
_symmetry_Int_Tables_number       1
_space_group_crystal_system       triclinic
_cell_length_a                    21.747097
_cell_length_b                    21.737666
_cell_length_c                    22.300823
_cell_angle_alpha                 60.031938
_cell_angle_beta                  119.539315
_cell_angle_gamma                 90.667001
_cell_volume                      7550.89841204

loop_
_atom_site_label
_atom_site_type_symbol
_atom_type_description
_atom_site_fract_x
_atom_site_fract_y
_atom_site_fract_z
_atom_type_partial_charge
C1    C     C_R   0.621372 0.498059 0.504874 0.536728
C2    C     C_R   0.783017 0.594081 0.614962 0.249859
C3    C     C_R   0.837162 0.608089 0.596887 0.042514
C4    C     C_R   0.419680 0.580425 0.339705 0.545047
C5    C     C_R   0.847204 0.577606 0.558760 -0.133635
C6    C     C_R   0.802033 0.536396 0.534711 -0.049866
C7    C     C_R   0.742308 0.529753 0.544337 -0.034029
C8    C     C_R   0.691164 0.496888 0.509703 -0.041633
C9    C     C_R   0.704467 0.465427 0.473980 -0.106371
C10   C     C_R   0.766181 0.466956 0.470299 0.201676
C11   C     C_R   0.814781 0.502533 0.500153 0.019591
C12   C     C_3   0.290027 0.711033 0.082503 0.037343
C13   C     C_3   0.722326 0.276469 0.027457 -0.095407
C14   C     C_3   0.750895 0.318790 0.971221 -0.106420
C15   C     C_1   0.624709 0.374023 0.750119 -0.019738
C16   C     C_R   0.381519 0.499434 0.500266 0.524808
C17   C     C_1   0.874806 0.124545 0.249904 0.002125
C18   C     C_3   0.678834 0.247547 0.972673 0.058230
C19   C     C_3   0.707614 0.289460 0.917428 0.033151
C20   C     C_3   0.746990 0.178069 0.028522 0.055884
C21   C     C_3   0.790339 0.207065 0.082619 0.034059
C22   C     C_3   0.775693 0.220135 0.972581 -0.101766
C23   C     C_3   0.197643 0.720605 0.972648 -0.115762
C24   C     C_3   0.819456 0.248917 0.027673 -0.108060
C25   C     C_1   0.662172 0.335786 0.825583 -0.054068
C26   C     C_1   0.836727 0.161846 0.174449 -0.045525
C27   C     C_R   0.245216 0.616387 0.356112 -0.074773
C28   C     C_R   0.580048 0.419591 0.660284 0.537213
C29   C     C_R   0.185095 0.681472 0.292521 0.218287
C30   C     C_R   0.130357 0.695932 0.303048 -0.032348
C31   C     C_R   0.132455 0.643128 0.374353 0.213379
C32   C     C_R   0.187856 0.571723 0.434308 0.019346
C33   C     C_R   0.249032 0.562369 0.429244 -0.055541
C34   C     C_3   0.207708 0.793066 0.917310 0.034995
C35   C     C_R   0.313457 0.500121 0.497859 0.020573
C36   C     C_R   0.315123 0.442634 0.567724 -0.006024
C37   C     C_R   0.250177 0.447406 0.565947 -0.127178
C38   C     C_R   0.186643 0.510102 0.500231 0.007091
C39   C     C_R   0.998705 0.882054 0.498263 0.569068
C40   C     C_3   0.292652 0.756052 0.972270 -0.095857
C41   C     C_R   0.080098 0.919822 0.660256 0.550667
C42   C     C_R   0.001077 0.117848 0.501494 0.572884
C43   C     C_R   0.919861 0.080008 0.339734 0.557679
C44   C     C_R   0.996459 0.618994 0.499732 0.562170
C45   C     C_3   0.205019 0.747931 0.027556 -0.088888
C46   C     C_R   0.881160 0.499964 0.499919 0.569971
C47   C     C_R   0.997154 0.380744 0.500428 0.562409
C48   C     C_R   0.119068 0.504944 0.499889 0.595310
C49   C     C_R   0.864013 0.877066 0.374387 -0.110880
C50   C     C_R   0.797038 0.871676 0.322570 -0.103569
C51   C     C_R   0.792712 0.803675 0.331640 0.033223
C52   C     C_3   0.299765 0.783498 0.026794 0.056408
C53   C     C_R   0.857329 0.742090 0.390152 -0.078453
C54   C     C_R   0.926300 0.747073 0.441571 -0.005038
C55   C     C_R   0.928749 0.814148 0.437227 -0.016698
C56   C     C_3   0.214764 0.820741 0.971154 0.055661
C57   C     C_R   0.995931 0.816463 0.495499 0.014303
C58   C     C_R   0.059917 0.753580 0.555050 0.210137
C59   C     C_R   0.057986 0.689713 0.555581 -0.082942
C60   C     C_R   0.992609 0.686191 0.498933 -0.023385
C61   C     C_R   0.003824 0.116038 0.633982 -0.096548
C62   C     C_R   0.995264 0.117575 0.691203 -0.115036
C63   C     C_R   0.981586 0.184544 0.682998 -0.110721
C64   C     C_1   0.374113 0.626079 0.249846 0.001038
C65   C     C_R   0.979433 0.249732 0.619618 -0.059499
C66   C     C_R   0.991715 0.248841 0.563292 0.027934
C67   C     C_1   0.335959 0.664476 0.174370 -0.028621
C68   C     C_R   0.999519 0.181981 0.567486 -0.012130
C69   C     C_R   0.003155 0.182711 0.505403 0.012371
C70   C     C_R   0.003129 0.247835 0.442993 0.210489
C71   C     C_R   0.999884 0.311792 0.442241 -0.103078
C72   C     C_R   0.994928 0.312968 0.501813 -0.024493
C73   C     C_1   0.124869 0.875352 0.750063 -0.004652
C74   C     C_3   0.283084 0.683035 0.028905 -0.116830
C75   C     C_3   0.362298 0.813530 0.062588 -0.273191
C76   C     C_3   0.361671 0.884005 0.994008 -0.439412
C77   C     C_3   0.884461 0.655564 0.616278 -0.256598
C78   C     C_1   0.162288 0.838134 0.825504 -0.048340
C79   C     C_3   0.965585 0.608561 0.686755 -0.417804
C80   C     C_3   0.751201 0.095714 0.066379 -0.274237
C81   C     C_3   0.705953 0.080946 0.999400 -0.434943
C82   C     C_3   0.596643 0.253151 0.935989 -0.275882
C83   C     C_3   0.582021 0.209542 0.003852 -0.438082
C84   C     C_3   0.386479 0.377282 0.642373 -0.257386
C85   C     C_3   0.385377 0.321918 0.718747 -0.455439
C86   C     C_3   0.719603 0.796814 0.278133 -0.283452
C87   C     C_3   0.692235 0.745643 0.330648 -0.424743
C88   C     C_3   0.170252 0.899223 0.932837 -0.286709
C89   C     C_R   0.736972 0.554755 0.589720 -0.066921
C90   C     C_3   0.184244 0.911613 0.999445 -0.413581
Cl1   Cl    Cl    0.781624 0.422414 0.428833 -0.589679
Cl2   Cl    Cl    0.181847 0.747897 0.202623 -0.655441
Cl3   Cl    Cl    0.076562 0.677506 0.393718 -0.584912
Cl4   Cl    Cl    0.143556 0.751121 0.632723 -0.567673
Cl5   Cl    Cl    0.004497 0.252579 0.362344 -0.564982
Cl6   Cl    Cl    0.771053 0.623903 0.669947 -0.610991
Cu1   Cu    Cu3+1 0.500040 0.438210 0.499990 0.956980
Cu2   Cu    Cu3+1 0.499960 0.561790 0.500010 1.005038
Cu3   Cu    Cu3+1 0.061810 0.999860 0.500010 1.079645
Cu4   Cu    Cu3+1 0.938190 0.999990 0.499990 0.968967
Cu5   Cu    Cu3+1 0.958570 0.541460 0.417120 1.053838
Cu6   Cu    Cu3+1 0.041430 0.458560 0.582880 0.938617
H1    H     H_    0.889813 0.587883 0.546443 0.115716
H2    H     H_    0.864199 0.931169 0.364132 0.131862
H3    H     H_    0.748204 0.920619 0.276037 0.103171
H4    H     H_    0.852310 0.690168 0.395978 0.125432
H5    H     H_    0.108345 0.642417 0.600405 0.177167
H6    H     H_    0.014406 0.062650 0.642950 0.125541
H7    H     H_    0.998266 0.066770 0.741429 0.114172
H8    H     H_    0.972895 0.185975 0.726145 0.119012
H9    H     H_    0.966632 0.300566 0.614695 0.159111
H10   H     H_    0.001780 0.361018 0.394865 0.170379
H11   H     H_    0.169677 0.743891 0.051304 0.163351
H12   H     H_    0.752115 0.377220 0.946573 0.140773
H13   H     H_    0.155184 0.695145 0.949285 0.132202
H14   H     H_    0.311600 0.625768 0.053700 0.129370
H15   H     H_    0.666255 0.439794 0.447960 0.175652
H16   H     H_    0.698565 0.542770 0.608251 0.177165
H17   H     H_    0.364378 0.873771 0.951183 0.156367
H18   H     H_    0.310869 0.930669 0.957612 0.152660
H19   H     H_    0.410743 0.900704 0.022917 0.141372
H20   H     H_    0.357368 0.825142 0.103419 0.153997
H21   H     H_    0.416401 0.769743 0.101901 0.146541
H22   H     H_    0.969824 0.564654 0.744471 0.184490
H23   H     H_    0.701161 0.299093 0.051032 0.123664
H24   H     H_    0.989882 0.581827 0.668619 0.159294
H25   H     H_    0.998279 0.644949 0.700104 0.160953
H26   H     H_    0.881224 0.699100 0.559082 0.140242
H27   H     H_    0.864010 0.685729 0.634135 0.213597
H28   H     H_    0.645810 0.109433 0.963701 0.149586
H29   H     H_    0.723725 0.100554 0.955707 0.157213
H30   H     H_    0.714783 0.019985 0.029744 0.146491
H31   H     H_    0.810313 0.061679 0.105218 0.152955
H32   H     H_    0.731406 0.077885 0.108081 0.136877
H33   H     H_    0.609911 0.148835 0.040803 0.149650
H34   H     H_    0.877848 0.249101 0.051362 0.135662
H35   H     H_    0.602134 0.228482 0.046282 0.158693
H36   H     H_    0.521297 0.219034 0.974205 0.142246
H37   H     H_    0.563531 0.312917 0.896292 0.150224
H38   H     H_    0.577990 0.232427 0.895342 0.137083
H39   H     H_    0.371666 0.351255 0.741593 0.160593
H40   H     H_    0.344797 0.291921 0.703352 0.153011
H41   H     H_    0.441249 0.279733 0.769925 0.135388
H42   H     H_    0.399942 0.345588 0.621560 0.171667
H43   H     H_    0.432740 0.400063 0.663795 0.149402
H44   H     H_    0.730865 0.687649 0.375771 0.156888
H45   H     H_    0.797090 0.197749 0.948994 0.115309
H46   H     H_    0.687629 0.766120 0.365473 0.170728
H47   H     H_    0.636603 0.744889 0.289037 0.146986
H48   H     H_    0.676334 0.852505 0.228902 0.138443
H49   H     H_    0.726339 0.774233 0.245940 0.154361
H50   H     H_    0.171481 0.868701 0.042526 0.214442
H51   H     H_    0.242820 0.909463 0.035833 0.158274
H52   H     H_    0.147745 0.967566 0.968734 0.144161
H53   H     H_    0.184406 0.941641 0.891060 0.140368
H54   H     H_    0.110097 0.906775 0.893974 0.146957
H55   H     H_    0.327946 0.759727 0.948542 0.122958
H56   H     H_    0.288681 0.608539 0.347629 0.157738
H57   H     H_    0.087490 0.749748 0.257062 0.181069
H58   H     H_    0.248032 0.401633 0.615600 0.140936
O1    O     O_R   0.590210 0.447820 0.500000 -0.507611
O2    O     O_R   0.034940 0.555150 0.570020 -0.530365
O3    O     O_R   0.874830 0.535020 0.430000 -0.488359
O4    O     O_R   0.590150 0.552170 0.500020 -0.514092
O5    O     O_R   0.944810 0.465010 0.569970 -0.525766
O6    O     O_R   0.965060 0.444870 0.429980 -0.486389
O7    O     O_R   0.035040 0.374860 0.569950 -0.529477
O8    O     O_R   0.055190 0.535000 0.430030 -0.466673
O9    O     O_R   0.125170 0.465000 0.570000 -0.518807
O10   O     O_R   0.439580 0.508290 0.379070 -0.500759
O11   O     O_R   0.439510 0.612640 0.379090 -0.494956
O12   O     O_R   0.947780 0.909820 0.499990 -0.528524
O13   O     O_R   0.409850 0.447830 0.499980 -0.518822
O14   O     O_R   0.409790 0.552180 0.500000 -0.497823
O15   O     O_R   0.560490 0.387360 0.620910 -0.511265
O16   O     O_R   0.560420 0.491710 0.620930 -0.495796
O17   O     O_R   0.052170 0.909710 0.500000 -0.453616
O18   O     O_R   0.112650 0.939420 0.620930 -0.486346
O19   O     O_R   0.008260 0.939530 0.620910 -0.517392
O20   O     O_R   0.052220 0.090030 0.500010 -0.469020
O21   O     O_R   0.947830 0.090140 0.500000 -0.512978
O22   O     O_R   0.991740 0.060320 0.379090 -0.483088
O23   O     O_R   0.887350 0.060430 0.379070 -0.517843
O24   O     O_R   0.964960 0.625150 0.430050 -0.464690

loop_
_geom_bond_atom_site_label_1
_geom_bond_atom_site_label_2
_ccdc_geom_bond_type
C16   O13   A    
C66   C68   A    
C21   C26   S    
C63   C65   A    
C34   C56   S    
Cu6   O7    S    
C23   C45   S    
C46   O5    A    
C12   C74   S    
C27   C29   A    
C1    C8    S    
C9    H15   S    
C82   H37   S    
C35   C36   A    
C52   C75   S    
C85   H41   S    
C49   H2    S    
C5    H1    S    
Cu1   Cu2   S    
C15   C28   S    
C7    C8    A    
C54   C60   A    
C53   C54   A    
C27   C33   A    
C27   H56   S    
C76   H18   S    
C4    O10   A    
C13   C18   S    
C75   H21   S    
C76   H19   S    
C88   H54   S    
C37   H58   S    
C36   C37   A    
C87   H44   S    
C36   C84   S    
Cu3   O17   S    
C69   C70   A    
C86   H48   S    
C16   C35   S    
C30   C31   A    
Cu2   O14   S    
C81   H29   S    
Cu4   O12   S    
C84   H42   S    
Cu5   O8    S    
C39   C57   S    
C80   H32   S    
C18   C19   S    
C22   C24   S    
C14   C24   S    
Cu4   O23   S    
C61   H6    S    
C65   H9    S    
Cu3   O22   S    
C82   H38   S    
C39   O17   A    
C53   H4    S    
C84   H43   S    
Cu3   Cu4   S    
C1    O4    A    
C42   O20   A    
C8    C9    A    
C47   O7    A    
C50   H3    S    
C73   C78   T    
C70   C71   A    
C32   C38   A    
C89   H16   S    
C90   H52   S    
C29   C30   A    
C9    C10   A    
C44   O24   A    
C83   H33   S    
C13   H23   S    
C24   H34   S    
Cu6   O9    S    
C1    O1    A    
C59   C60   A    
C13   C14   S    
C15   C25   T    
C61   C62   A    
C44   O2    A    
C18   C82   S    
C51   C86   S    
C12   C52   S    
Cu5   Cu6   S    
C77   C79   S    
C42   O21   A    
C30   H57   S    
C12   C67   S    
C66   C72   A    
C76   H17   S    
Cu1   O13   S    
C87   H46   S    
C20   C80   S    
C64   C67   T    
C41   O18   A    
Cu5   O3    S    
C19   C22   S    
C84   C85   S    
C45   C56   S    
Cu3   O18   S    
C90   H50   S    
C85   H39   S    
C6    C11   A    
C47   O6    A    
C86   C87   S    
C68   C69   A    
C81   H30   S    
C58   C59   A    
C31   Cl3   S    
C41   C73   S    
C82   C83   S    
C42   C69   S    
C59   H5    S    
Cu1   O10   S    
C51   C53   A    
C2    C89   A    
C75   C76   S    
C17   C43   S    
C37   C38   A    
Cu2   O16   S    
C40   H55   S    
C31   C32   A    
C48   O8    A    
Cu6   O2    S    
C23   C34   S    
C74   H14   S    
C71   H10   S    
C62   C63   A    
C50   C51   A    
C13   C21   S    
C77   H27   S    
C22   H45   S    
C90   H51   S    
Cu4   O21   S    
C77   H26   S    
Cu5   O24   S    
Cu2   O11   S    
C79   H24   S    
C88   C90   S    
C10   Cl1   S    
C65   C66   A    
Cu6   O5    S    
Cu1   O1    S    
C46   O3    A    
C55   C57   A    
C49   C50   A    
C34   C40   S    
C17   C26   T    
C23   C74   S    
C3    C77   S    
C83   H35   S    
C16   O14   A    
C79   H25   S    
C54   C55   A    
C38   C48   S    
C14   C19   S    
C41   O19   A    
C28   O16   A    
C81   H28   S    
C20   C22   S    
C80   C81   S    
C3    C5    A    
C49   C55   A    
C85   H40   S    
Cu2   O4    S    
C28   O15   A    
C6    C7    A    
C12   C45   S    
C14   H12   S    
C79   H22   S    
C4    C64   S    
C43   O22   A    
C32   C33   A    
C63   H8    S    
C2    Cl6   S    
C2    C3    A    
C58   Cl4   S    
C71   C72   A    
C40   C52   S    
C86   H49   S    
C34   C78   S    
C4    O11   A    
C61   C68   A    
C57   C58   A    
C5    C6    A    
C62   H7    S    
C44   C60   S    
C43   O23   A    
C33   C35   A    
C23   H13   S    
C40   C74   S    
C70   Cl5   S    
C18   C20   S    
C29   Cl2   S    
Cu5   O6    S    
C19   C25   S    
C75   H20   S    
C47   C72   S    
C56   C88   S    
C10   C11   A    
C80   H31   S    
Cu1   O15   S    
C48   O9    A    
C45   H11   S    
Cu3   O20   S    
C20   C21   S    
C39   O12   A    
C88   H53   S    
C87   H47   S    
C21   C24   S    
C11   C46   S    
Cu4   O19   S    
C83   H36   S    
C52   C56   S    
C7    C89   A    
