data_mof_unit_22428.cif
_audit_creation_date              2012-12-10T17:52:01-0500
_audit_creation_method            fapswitch 2.2
_symmetry_space_group_name_H-M    P1
_symmetry_Int_Tables_number       1
_space_group_crystal_system       triclinic
_cell_length_a                    14.689912
_cell_length_b                    14.586522
_cell_length_c                    19.343286
_cell_angle_alpha                 77.817532
_cell_angle_beta                  102.041952
_cell_angle_gamma                 114.492559
_cell_volume                      3652.5204491

loop_
_atom_site_label
_atom_site_type_symbol
_atom_type_description
_atom_site_fract_x
_atom_site_fract_y
_atom_site_fract_z
_atom_type_partial_charge
C1    C     C_R   0.880358 0.311986 0.511787 0.842153
C2    C     C_R   0.119739 0.688016 0.488687 0.826775
C3    C     C_R   0.813073 0.203509 0.519820 -0.084405
C4    C     C_R   0.187953 0.795798 0.488419 -0.100290
C5    C     C_R   0.786387 0.023409 0.537365 0.456657
C6    C     C_R   0.220007 0.969676 0.499157 0.435300
C7    C     C_R   0.851168 0.127796 0.529666 -0.292638
C8    C     C_R   0.152199 0.870257 0.490407 -0.272700
C9    C     C_R   0.709772 0.176573 0.517160 -0.247310
C10   C     C_R   0.291909 0.821813 0.493316 -0.246695
C11   C     C_R   0.642172 0.074425 0.524448 0.024705
C12   C     C_R   0.362447 0.919331 0.505988 0.032723
C13   C     C_R   0.681099 0.997843 0.532111 0.075710
C14   C     C_R   0.325051 0.994153 0.507864 0.047563
C15   C     C_R   0.536348 0.046969 0.521684 0.087263
C16   C     C_R   0.468866 0.944401 0.516824 0.092842
C17   C     C_R   0.510128 0.870040 0.525080 -0.225197
C18   C     C_R   0.496091 0.118496 0.525168 -0.216859
C19   C     C_R   0.613709 0.896138 0.533739 -0.136447
C20   C     C_R   0.392931 0.092331 0.518852 -0.151928
C21   C     C_R   0.718618 0.676145 0.389170 -0.279620
C22   C     C_R   0.283942 0.328194 0.615602 -0.279010
C23   C     C_R   0.997746 0.498830 0.632594 0.833033
C24   C     C_R   0.999811 0.497401 0.367590 0.837213
C25   C     C_R   0.796756 0.642335 0.401998 0.326018
C26   C     C_R   0.203185 0.358453 0.598924 0.328162
C27   C     C_R   0.714192 0.508334 0.489111 0.012743
C28   C     C_R   0.288574 0.494602 0.514164 0.008847
C29   C     C_R   0.630261 0.537987 0.476112 -0.071426
C30   C     C_R   0.375074 0.468715 0.531379 -0.069841
C31   C     C_R   0.636166 0.626343 0.426721 0.019495
C32   C     C_R   0.369378 0.381190 0.581496 0.020019
C33   C     C_R   0.543133 0.485710 0.511981 0.029808
C34   C     C_R   0.464779 0.523997 0.498730 0.021782
C35   C     C_R   0.478518 0.616478 0.453498 -0.326036
C36   C     C_R   0.531863 0.396367 0.560552 -0.303196
C37   C     C_R   0.560685 0.665250 0.415724 0.449557
C38   C     C_R   0.448735 0.347113 0.597324 0.424878
C39   C     C_R   0.064775 0.475673 0.761396 -0.220893
C40   C     C_R   0.926862 0.514116 0.239410 -0.219740
C41   C     C_R   0.057398 0.464872 0.833397 -0.175662
C42   C     C_R   0.919464 0.502863 0.168497 -0.185812
C43   C     C_R   0.972587 0.465752 0.855347 -0.050276
C44   C     C_R   0.979887 0.462250 0.148946 -0.047495
C45   C     C_R   0.893982 0.478564 0.803139 0.094406
C46   C     C_R   0.046743 0.430315 0.201278 0.093381
C47   C     C_R   0.905023 0.497011 0.730151 0.400392
C48   C     C_R   0.059506 0.447770 0.272267 0.403495
C49   C     C_R   0.989250 0.491571 0.708815 -0.168108
C50   C     C_R   0.996905 0.487590 0.292216 -0.171352
C51   C     C_R   0.977034 0.459423 0.073315 0.456150
C52   C     C_R   0.973109 0.460892 0.932448 0.452731
Cu1   Cu    Cu3+1 0.081740 0.475680 0.518680 0.977949
Cu2   Cu    Cu3+1 0.918260 0.524320 0.481320 0.974738
H1    H     H_    0.130682 0.472481 0.746977 0.197793
H2    H     H_    0.877795 0.544473 0.252674 0.204020
H3    H     H_    0.285069 0.556587 0.473798 0.124270
H4    H     H_    0.719009 0.446708 0.529394 0.157614
H5    H     H_    0.723220 0.742246 0.349706 0.207040
H6    H     H_    0.279400 0.262826 0.655784 0.210536
H7    H     H_    0.426790 0.653758 0.446462 0.136471
H8    H     H_    0.586265 0.361818 0.571508 0.143332
H9    H     H_    0.118345 0.454690 0.872404 0.180976
H10   H     H_    0.867135 0.527031 0.128554 0.175878
H11   H     H_    0.640475 0.835474 0.540211 0.198686
H12   H     H_    0.366545 0.150368 0.521960 0.207955
H13   H     H_    0.315910 0.763997 0.487002 0.151307
H14   H     H_    0.683211 0.237370 0.506473 0.157196
H15   H     H_    0.072022 0.850912 0.487147 0.176320
H16   H     H_    0.931319 0.151889 0.529847 0.151616
H17   H     H_    0.464502 0.789843 0.527631 0.144258
H18   H     H_    0.542614 0.195108 0.535351 0.149135
N1    N     N_R   0.887053 0.413681 0.963132 -0.180719
N2    N     N_R   0.063326 0.505343 0.043092 -0.204706
N3    N     N_R   0.888698 0.413580 0.032237 -0.207172
N4    N     N_R   0.061400 0.505968 0.973994 -0.229296
N5    N     N_R   0.795420 0.560800 0.453240 -0.197166
N6    N     N_R   0.204580 0.439200 0.546760 -0.186971
O1    O     O_R   0.977910 0.338110 0.524620 -0.559179
O2    O     O_R   0.022090 0.661890 0.475380 -0.564078
O3    O     O_R   0.839850 0.379180 0.493080 -0.599634
O4    O     O_R   0.160150 0.620820 0.506920 -0.601846
O5    O     O_R   0.069040 0.479450 0.615630 -0.563116
O6    O     O_R   0.930960 0.520550 0.384370 -0.563276
O7    O     O_R   0.930990 0.520520 0.584090 -0.549989
O8    O     O_R   0.069010 0.479480 0.415910 -0.546873
O9    O     O_3   0.571884 0.756919 0.372481 -0.574763
C53   C     C_3   0.503413 0.737853 0.308994 0.036526
H19   H     H_    0.423929 0.706828 0.320070 0.133012
H20   H     H_    0.514064 0.683597 0.281675 0.147166
C54   C     C_3   0.522188 0.837227 0.258628 -0.724022
H21   H     H_    0.600657 0.869702 0.245662 0.253355
H22   H     H_    0.468709 0.823325 0.208449 0.202151
H23   H     H_    0.510921 0.892636 0.284010 0.252157
O10   O     O_3   0.440704 0.258934 0.644210 -0.594183
C55   C     C_3   0.506257 0.285178 0.707999 0.063119
H24   H     H_    0.488406 0.337839 0.732026 0.163707
H25   H     H_    0.586640 0.321389 0.698426 0.179945
C56   C     C_3   0.493075 0.189182 0.761309 -0.715542
H26   H     H_    0.511428 0.135525 0.739139 0.250976
H27   H     H_    0.544386 0.208807 0.811728 0.223181
H28   H     H_    0.413878 0.151806 0.773001 0.248627
I1    I     I_    0.085713 0.271346 0.662640 -0.387343
I2    I     I_    0.912780 0.728069 0.336933 -0.391541
I3    I     I_    0.757752 0.475350 0.829305 -0.366330
I4    I     I_    0.121324 0.345715 0.175733 -0.332805
O11   O     O_3   0.831366 0.517849 0.679944 -0.566136
C57   C     C_3   0.852491 0.623106 0.672785 0.082532
H29   H     H_    0.915079 0.667088 0.640187 0.147581
H30   H     H_    0.874882 0.652080 0.725283 0.150597
C58   C     C_3   0.758698 0.643075 0.636195 -0.730430
H31   H     H_    0.762602 0.715446 0.648927 0.218800
H32   H     H_    0.754094 0.650138 0.577647 0.236451
H33   H     H_    0.689448 0.580580 0.654356 0.265662
O12   O     O_3   0.128094 0.418763 0.322636 -0.558959
C59   C     C_3   0.226798 0.493060 0.316198 0.088862
H34   H     H_    0.243562 0.552917 0.349540 0.131112
H35   H     H_    0.238236 0.531166 0.260422 0.139824
C60   C     C_3   0.302457 0.442654 0.341937 -0.763375
H36   H     H_    0.287949 0.383743 0.308406 0.268388
H37   H     H_    0.380320 0.500244 0.338417 0.191525
H38   H     H_    0.295888 0.405762 0.397874 0.247651
O13   O     O_3   0.819699 0.943472 0.548604 -0.602097
C61   C     C_3   0.925785 0.974205 0.560733 0.100423
H39   H     H_    0.960494 0.022733 0.604198 0.170492
H40   H     H_    0.957806 0.014342 0.510390 0.165024
C62   C     C_3   0.952228 0.881209 0.584503 -0.788709
H41   H     H_    0.914890 0.826903 0.544944 0.251285
H42   H     H_    0.035223 0.904526 0.589915 0.235959
H43   H     H_    0.927725 0.843960 0.637401 0.234162
O14   O     O_3   0.183909 0.040463 0.506419 -0.595522
C63   C     C_3   0.156193 0.086261 0.437969 0.019461
H44   H     H_    0.080989 0.034824 0.414417 0.172383
H45   H     H_    0.212498 0.104883 0.401015 0.152185
C64   C     C_3   0.150075 0.185544 0.444873 -0.723844
H46   H     H_    0.224965 0.238010 0.467694 0.240849
H47   H     H_    0.127255 0.222047 0.391518 0.251042
H48   H     H_    0.094091 0.171339 0.480543 0.235495

loop_
_geom_bond_atom_site_label_1
_geom_bond_atom_site_label_2
_ccdc_geom_bond_type
C15   C18   A    
O9    C53   S    
C64   H48   S    
N1    N3    A    
O10   C55   S    
C51   N2    A    
C4    C8    A    
C7    H16   S    
Cu2   O6    S    
O13   C61   S    
C39   C41   A    
C10   H13   S    
C59   H34   S    
C21   C31   A    
C8    H15   S    
C26   N6    A    
C22   C32   A    
C25   N5    A    
C20   H12   S    
Cu1   O1    S    
C51   N3    A    
C21   H5    S    
C3    C7    A    
C22   H6    S    
C43   C52   S    
C23   C49   S    
C27   C29   A    
C1    O3    A    
C15   C16   A    
C55   C56   S    
C29   C33   A    
C33   C36   A    
C57   H29   S    
C34   C35   A    
C23   O5    A    
C11   C15   A    
C39   H1    S    
C12   C16   A    
C45   I3    S    
C63   H44   S    
C40   H2    S    
C55   H25   S    
C38   O10   S    
O11   C57   S    
Cu1   O8    S    
C32   C38   A    
C28   N6    A    
C5    C13   A    
Cu2   N5    S    
C40   C42   A    
C28   H3    S    
C18   H18   S    
C41   C43   A    
C42   C44   A    
C36   H8    S    
C10   C12   A    
C44   C46   A    
Cu2   O2    S    
C45   C47   A    
C24   C50   S    
C46   C48   A    
C30   C34   A    
C14   C20   A    
C64   H46   S    
C58   H32   S    
C52   N1    A    
C54   H21   S    
C5    C7    A    
C13   C19   A    
C16   C17   A    
C6    C8    A    
C27   N5    A    
Cu1   Cu2   S    
C54   H22   S    
C31   C37   A    
Cu1   O4    S    
C1    C3    S    
C2    C4    S    
C62   H42   S    
C3    C9    A    
C26   I1    S    
C6    C14   A    
C43   C45   A    
C56   H26   S    
C53   C54   S    
C55   H24   S    
C33   C34   A    
C35   H7    S    
C9    C11   A    
C60   H37   S    
N2    N4    A    
C59   H35   S    
C61   C62   S    
C44   C51   S    
C39   C49   A    
C12   C14   A    
C17   H17   S    
C47   O11   S    
C48   O12   S    
C23   O7    A    
C1    O1    A    
C2    O4    A    
C41   H9    S    
C4    C10   A    
C62   H41   S    
C42   H10   S    
C36   C38   A    
C61   H40   S    
C60   H38   S    
C64   H47   S    
C21   C25   A    
C58   H31   S    
C35   C37   A    
C37   O9    S    
C53   H20   S    
C6    O14   S    
C52   N4    A    
C27   H4    S    
Cu2   O7    S    
C60   H36   S    
C57   C58   S    
C25   I2    S    
C47   C49   A    
C5    O13   S    
C59   C60   S    
Cu1   O5    S    
C28   C30   A    
Cu1   N6    S    
C24   O6    A    
C9    H14   S    
C29   C31   A    
C54   H23   S    
C30   C32   A    
C11   C13   A    
C63   C64   S    
C40   C50   A    
C46   I4    S    
C48   C50   A    
C17   C19   A    
C57   H30   S    
C19   H11   S    
C58   H33   S    
C18   C20   A    
O14   C63   S    
C62   H43   S    
C2    O2    A    
C56   H28   S    
C53   H19   S    
C63   H45   S    
C22   C26   A    
C24   O8    A    
C56   H27   S    
Cu2   O3    S    
O12   C59   S    
C61   H39   S    
