data_mof_unit_62797.cif
_audit_creation_date              2012-12-10T20:16:40-0500
_audit_creation_method            fapswitch 2.2
_symmetry_space_group_name_H-M    P1
_symmetry_Int_Tables_number       1
_space_group_crystal_system       triclinic
_cell_length_a                    25.632113
_cell_length_b                    25.632152
_cell_length_c                    26.029689
_cell_angle_alpha                 89.997031
_cell_angle_beta                  90.003775
_cell_angle_gamma                 90.001352
_cell_volume                      17101.6674216

loop_
_atom_site_label
_atom_site_type_symbol
_atom_type_description
_atom_site_fract_x
_atom_site_fract_y
_atom_site_fract_z
_atom_type_partial_charge
C1    C     C_1   0.828384 0.671613 0.749997 0.070324
C2    C     C_1   0.171617 0.328399 0.249995 0.085336
C3    C     C_1   0.328425 0.828354 0.750070 0.077304
C4    C     C_1   0.671654 0.171567 0.250080 0.077064
C5    C     C_1   0.171616 0.328394 0.750031 0.085079
C6    C     C_1   0.828388 0.671614 0.250000 0.070413
C7    C     C_1   0.671671 0.171552 0.749911 0.076960
C8    C     C_1   0.328422 0.828355 0.249929 0.077298
C9    C     C_1   0.828352 0.328427 0.249931 0.077061
C10   C     C_1   0.171572 0.671649 0.749927 0.077309
C11   C     C_1   0.328382 0.171599 0.250010 0.085336
C12   C     C_1   0.671616 0.828388 0.750002 0.070324
C13   C     C_1   0.171574 0.671646 0.250066 0.077298
C14   C     C_1   0.828343 0.328434 0.750068 0.076954
C15   C     C_1   0.671613 0.828386 0.250002 0.070413
C16   C     C_1   0.328396 0.171615 0.750002 0.085060
C17   C     C_R   0.788650 0.711349 0.749997 -0.068978
C18   C     C_R   0.211352 0.288663 0.249993 -0.077791
C19   C     C_R   0.288659 0.788650 0.750016 -0.073345
C20   C     C_R   0.711361 0.211331 0.250031 -0.073409
C21   C     C_R   0.211356 0.288661 0.750036 -0.077997
C22   C     C_R   0.788653 0.711348 0.250000 -0.068907
C23   C     C_R   0.711379 0.211316 0.749952 -0.073504
C24   C     C_R   0.288656 0.788650 0.249983 -0.073340
C25   C     C_R   0.788648 0.288661 0.249984 -0.073410
C26   C     C_R   0.211336 0.711355 0.749980 -0.073336
C27   C     C_R   0.288649 0.211336 0.250012 -0.077791
C28   C     C_R   0.711350 0.788652 0.750001 -0.068976
C29   C     C_R   0.211338 0.711352 0.250013 -0.073336
C30   C     C_R   0.788643 0.288663 0.750014 -0.073506
C31   C     C_R   0.711348 0.788652 0.250002 -0.068907
C32   C     C_R   0.288662 0.211353 0.750014 -0.077998
C33   C     C_1   0.638414 0.861590 0.750002 -0.076236
C34   C     C_1   0.361581 0.138404 0.250006 -0.046873
C35   C     C_1   0.138341 0.638480 0.749867 -0.062166
C36   C     C_1   0.861522 0.361657 0.249870 -0.062335
C37   C     C_1   0.361591 0.138413 0.749997 -0.047060
C38   C     C_1   0.638411 0.861588 0.250002 -0.076178
C39   C     C_1   0.861515 0.361663 0.750130 -0.062426
C40   C     C_1   0.138344 0.638477 0.250130 -0.062204
C41   C     C_1   0.638482 0.138340 0.250136 -0.062333
C42   C     C_1   0.361657 0.861521 0.750132 -0.062162
C43   C     C_1   0.138418 0.361595 0.249997 -0.046881
C44   C     C_1   0.861586 0.638411 0.749997 -0.076236
C45   C     C_1   0.361655 0.861522 0.249868 -0.062212
C46   C     C_1   0.638492 0.138331 0.749860 -0.062426
C47   C     C_1   0.861589 0.638413 0.249999 -0.076178
C48   C     C_1   0.138416 0.361592 0.750019 -0.047060
C49   C     C_R   0.593519 0.048675 0.947254 0.099373
C50   C     C_R   0.407368 0.050740 0.052807 0.096248
C51   C     C_R   0.049397 0.593243 0.947216 0.098725
C52   C     C_R   0.050249 0.407137 0.052817 0.096730
C53   C     C_R   0.407316 0.050576 0.947199 0.096371
C54   C     C_R   0.593504 0.048728 0.052775 0.099345
C55   C     C_R   0.050176 0.407090 0.947229 0.096761
C56   C     C_R   0.049346 0.593275 0.052767 0.098748
C57   C     C_R   0.092614 0.449220 0.447190 0.096210
C58   C     C_R   0.906459 0.451345 0.552749 0.099366
C59   C     C_R   0.449680 0.092843 0.447183 0.096661
C60   C     C_R   0.450632 0.906734 0.552784 0.098751
C61   C     C_R   0.906475 0.451302 0.447226 0.099401
C62   C     C_R   0.092650 0.449297 0.552801 0.096209
C63   C     C_R   0.450658 0.906713 0.447234 0.098754
C64   C     C_R   0.449747 0.092891 0.552772 0.096692
C65   C     C_R   0.047049 0.466729 0.527312 -0.071249
C66   C     C_R   0.952468 0.467712 0.472685 -0.072680
C67   C     C_R   0.466945 0.047189 0.527304 -0.071470
C68   C     C_R   0.467393 0.952592 0.472695 -0.072294
C69   C     C_R   0.952466 0.467720 0.527296 -0.072680
C70   C     C_R   0.047042 0.466713 0.472677 -0.071323
C71   C     C_R   0.467384 0.952601 0.527313 -0.072309
C72   C     C_R   0.466930 0.047174 0.472675 -0.071508
C73   C     C_R   0.547520 0.032302 0.027316 -0.072682
C74   C     C_R   0.452940 0.033223 0.972691 -0.071341
C75   C     C_R   0.032605 0.547399 0.027306 -0.072299
C76   C     C_R   0.033004 0.452801 0.972698 -0.071525
C77   C     C_R   0.452949 0.033266 0.027324 -0.071355
C78   C     C_R   0.547522 0.032283 0.972706 -0.072689
C79   C     C_R   0.033024 0.452816 0.027327 -0.071560
C80   C     C_R   0.032619 0.547388 0.972688 -0.072306
C81   C     C_R   0.641331 0.047023 0.973184 0.309030
C82   C     C_R   0.359523 0.050365 0.026868 0.310437
C83   C     C_R   0.048186 0.641084 0.973130 0.309346
C84   C     C_R   0.049603 0.359288 0.026893 0.310159
C85   C     C_R   0.359495 0.050207 0.973171 0.310318
C86   C     C_R   0.641324 0.047066 0.026871 0.309075
C87   C     C_R   0.049541 0.359262 0.973198 0.310154
C88   C     C_R   0.048145 0.641100 0.026821 0.309321
C89   C     C_R   0.140457 0.449528 0.473136 0.310414
C90   C     C_R   0.858643 0.453025 0.526824 0.309064
C91   C     C_R   0.450297 0.140693 0.473106 0.310204
C92   C     C_R   0.451863 0.858896 0.526866 0.309319
C93   C     C_R   0.858653 0.452981 0.473133 0.309015
C94   C     C_R   0.140481 0.449603 0.526835 0.310461
C95   C     C_R   0.451884 0.858884 0.473174 0.309323
C96   C     C_R   0.450354 0.140719 0.526801 0.310183
C97   C     C_R   0.999854 0.476813 0.554208 -0.057057
C98   C     C_R   0.999853 0.476805 0.445782 -0.057035
C99   C     C_R   0.476778 0.999941 0.554210 -0.057105
C100  C     C_R   0.476780 0.999927 0.445787 -0.057101
C101  C     C_R   0.500140 0.023200 0.054220 -0.057010
C102  C     C_R   0.500138 0.023172 0.945793 -0.057043
C103  C     C_R   0.023205 0.500068 0.054214 -0.057074
C104  C     C_R   0.023203 0.500054 0.945792 -0.057084
C105  C     C_R   0.494202 0.999992 0.609564 0.833098
C106  C     C_R   0.494205 0.999988 0.390436 0.833099
C107  C     C_R   0.999978 0.494211 0.609564 0.833041
C108  C     C_R   0.999979 0.494210 0.390432 0.833084
C109  C     C_R   0.005791 0.500011 0.109566 0.833113
C110  C     C_R   0.005791 0.500007 0.890436 0.833099
C111  C     C_R   0.500020 0.005794 0.109569 0.833076
C112  C     C_R   0.500021 0.005783 0.890436 0.833026
C113  C     C_R   0.599068 0.098865 0.749839 0.834146
C114  C     C_R   0.401134 0.900932 0.249836 0.834246
C115  C     C_R   0.901032 0.598966 0.749999 0.815667
C116  C     C_R   0.098971 0.401036 0.249997 0.853993
C117  C     C_R   0.401136 0.900932 0.750163 0.834186
C118  C     C_R   0.599066 0.098866 0.250161 0.834107
C119  C     C_R   0.098970 0.401035 0.750006 0.853937
C120  C     C_R   0.901033 0.598967 0.250000 0.815668
C121  C     C_R   0.598967 0.901033 0.250001 0.815669
C122  C     C_R   0.401031 0.098965 0.749996 0.853925
C123  C     C_R   0.900935 0.401133 0.249841 0.834105
C124  C     C_R   0.098864 0.599068 0.749837 0.834194
C125  C     C_R   0.401030 0.098964 0.250003 0.853995
C126  C     C_R   0.598968 0.901033 0.750001 0.815670
C127  C     C_R   0.098865 0.599068 0.250163 0.834248
C128  C     C_R   0.900932 0.401135 0.750160 0.834140
C129  C     C_R   0.746772 0.707934 0.715150 0.120026
C130  C     C_R   0.257391 0.296223 0.278519 0.121082
C131  C     C_R   0.295790 0.743049 0.720709 0.127519
C132  C     C_R   0.704603 0.256555 0.279984 0.112609
C133  C     C_R   0.257122 0.295970 0.721003 0.120934
C134  C     C_R   0.747125 0.708282 0.285265 0.120080
C135  C     C_R   0.704888 0.256256 0.719512 0.112474
C136  C     C_R   0.295773 0.743066 0.279324 0.127508
C137  C     C_R   0.743434 0.295405 0.279955 0.127297
C138  C     C_R   0.256944 0.704214 0.720688 0.112762
C139  C     C_R   0.296222 0.257375 0.278531 0.120902
C140  C     C_R   0.707930 0.746778 0.715152 0.120012
C141  C     C_R   0.256931 0.704228 0.279340 0.112773
C142  C     C_R   0.743712 0.295117 0.719550 0.127315
C143  C     C_R   0.708284 0.747122 0.285266 0.120067
C144  C     C_R   0.295963 0.257125 0.720989 0.120751
C145  C     C_R   0.242612 0.203777 0.221483 0.121067
C146  C     C_R   0.753229 0.792066 0.784848 0.120032
C147  C     C_R   0.795407 0.243436 0.220031 0.112607
C148  C     C_R   0.204204 0.756956 0.779285 0.127515
C149  C     C_R   0.752876 0.791719 0.214737 0.120084
C150  C     C_R   0.242900 0.204046 0.779053 0.120904
C151  C     C_R   0.204217 0.756938 0.220677 0.127514
C152  C     C_R   0.795137 0.243720 0.780449 0.112477
C153  C     C_R   0.243050 0.795791 0.779307 0.112756
C154  C     C_R   0.756576 0.204585 0.220061 0.127299
C155  C     C_R   0.792071 0.753223 0.784847 0.120020
C156  C     C_R   0.203782 0.242627 0.221469 0.120884
C157  C     C_R   0.756318 0.204854 0.780405 0.127327
C158  C     C_R   0.243062 0.795775 0.220658 0.112774
C159  C     C_R   0.204055 0.242888 0.779064 0.120745
C160  C     C_R   0.791716 0.752879 0.214737 0.120071
O1    O     O_3   0.500000 0.000000 0.750000 -0.514596
O2    O     O_3   0.500000 0.000000 0.250000 -0.514600
O3    O     O_3   0.000000 0.500000 0.750000 -0.514591
O4    O     O_3   0.000000 0.500000 0.250000 -0.514599
O5    O     O_R   0.500000 0.957290 0.634170 -0.620834
O6    O     O_R   0.500000 0.042710 0.365830 -0.622223
O7    O     O_R   0.042710 0.500000 0.634170 -0.622122
O8    O     O_R   0.957290 0.500000 0.365830 -0.620964
O9    O     O_R   0.500000 0.042710 0.634170 -0.622204
O10   O     O_R   0.500000 0.957290 0.365830 -0.620828
O11   O     O_R   0.957290 0.500000 0.634170 -0.620947
O12   O     O_R   0.042710 0.500000 0.365830 -0.622171
O13   O     O_R   0.000000 0.457290 0.134170 -0.622246
O14   O     O_R   0.000000 0.542710 0.865830 -0.620834
O15   O     O_R   0.542710 0.000000 0.134170 -0.620955
O16   O     O_R   0.457290 0.000000 0.865830 -0.622131
O17   O     O_R   0.000000 0.542710 0.134170 -0.620830
O18   O     O_R   0.000000 0.457290 0.865830 -0.622220
O19   O     O_R   0.457290 0.000000 0.134170 -0.622190
O20   O     O_R   0.542710 0.000000 0.865830 -0.620947
O21   O     O_R   0.560130 0.102810 0.719600 -0.621727
O22   O     O_R   0.439870 0.897190 0.280400 -0.606194
O23   O     O_R   0.897190 0.560130 0.719600 -0.620011
O24   O     O_R   0.102810 0.439870 0.280400 -0.607647
O25   O     O_R   0.439870 0.897190 0.719600 -0.606170
O26   O     O_R   0.560130 0.102810 0.280400 -0.621736
O27   O     O_R   0.102810 0.439870 0.719600 -0.607635
O28   O     O_R   0.897190 0.560130 0.280400 -0.619994
O29   O     O_R   0.560130 0.897190 0.280400 -0.620089
O30   O     O_R   0.439870 0.102810 0.719600 -0.607739
O31   O     O_R   0.897190 0.439870 0.280400 -0.606244
O32   O     O_R   0.102810 0.560130 0.719600 -0.621829
O33   O     O_R   0.439870 0.102810 0.280400 -0.607672
O34   O     O_R   0.560130 0.897190 0.719600 -0.620072
O35   O     O_R   0.102810 0.560130 0.280400 -0.621841
O36   O     O_R   0.897190 0.439870 0.719600 -0.606275
O37   O     O_R   0.060130 0.602810 0.219600 -0.606193
O38   O     O_R   0.939870 0.397190 0.780400 -0.621718
O39   O     O_R   0.397190 0.060130 0.219600 -0.607647
O40   O     O_R   0.602810 0.939870 0.780400 -0.620018
O41   O     O_R   0.939870 0.397190 0.219600 -0.621732
O42   O     O_R   0.060130 0.602810 0.780400 -0.606162
O43   O     O_R   0.602810 0.939870 0.219600 -0.619996
O44   O     O_R   0.397190 0.060130 0.780400 -0.607629
O45   O     O_R   0.060130 0.397190 0.780400 -0.607733
O46   O     O_R   0.939870 0.602810 0.219600 -0.620091
O47   O     O_R   0.397190 0.939870 0.780400 -0.621804
O48   O     O_R   0.602810 0.060130 0.219600 -0.606241
O49   O     O_R   0.939870 0.602810 0.780400 -0.620081
O50   O     O_R   0.060130 0.397190 0.219600 -0.607669
O51   O     O_R   0.602810 0.060130 0.780400 -0.606269
O52   O     O_R   0.397190 0.939870 0.219600 -0.621831
Zn1   Zn    Zn3+2 0.561040 0.000000 0.793350 1.040443
Zn2   Zn    Zn3+2 0.438960 0.000000 0.206650 1.047394
Zn3   Zn    Zn3+2 0.000000 0.561040 0.793350 1.040456
Zn4   Zn    Zn3+2 0.000000 0.438960 0.206650 1.047435
Zn5   Zn    Zn3+2 0.438960 0.000000 0.793350 1.047400
Zn6   Zn    Zn3+2 0.561040 0.000000 0.206650 1.040462
Zn7   Zn    Zn3+2 0.000000 0.438960 0.793350 1.047413
Zn8   Zn    Zn3+2 0.000000 0.561040 0.206650 1.040462
Zn9   Zn    Zn3+2 0.061040 0.500000 0.293350 1.047392
Zn10  Zn    Zn3+2 0.938960 0.500000 0.706650 1.040451
Zn11  Zn    Zn3+2 0.500000 0.061040 0.293350 1.047437
Zn12  Zn    Zn3+2 0.500000 0.938960 0.706650 1.040459
Zn13  Zn    Zn3+2 0.938960 0.500000 0.293350 1.040462
Zn14  Zn    Zn3+2 0.061040 0.500000 0.706650 1.047377
Zn15  Zn    Zn3+2 0.500000 0.938960 0.293350 1.040466
Zn16  Zn    Zn3+2 0.500000 0.061040 0.706650 1.047403
I1    I     I_    0.587284 0.108524 0.890593 -0.193449
I2    I     I_    0.414999 0.109781 0.110140 -0.197987
I3    I     I_    0.108986 0.586499 0.890342 -0.194104
I4    I     I_    0.109496 0.414477 0.109980 -0.197351
I5    I     I_    0.414823 0.109664 0.889900 -0.198039
I6    I     I_    0.587234 0.108574 0.109436 -0.193343
I7    I     I_    0.109429 0.414345 0.890071 -0.197307
I8    I     I_    0.108928 0.586588 0.109656 -0.193995
I9    I     I_    0.084940 0.390195 0.389845 -0.198045
I10   I     I_    0.912664 0.391484 0.609398 -0.193407
I11   I     I_    0.390459 0.085472 0.390002 -0.197415
I12   I     I_    0.391035 0.913446 0.609652 -0.194068
I13   I     I_    0.912725 0.391440 0.390579 -0.193303
I14   I     I_    0.085052 0.390258 0.610137 -0.198126
I15   I     I_    0.391068 0.913389 0.390355 -0.193970
I16   I     I_    0.390527 0.085606 0.609957 -0.197353
I17   I     I_    0.643637 0.742973 0.662752 -0.149444
I18   I     I_    0.366772 0.267447 0.321407 -0.064119
I19   I     I_    0.266362 0.634323 0.676593 -0.135904
I20   I     I_    0.734561 0.364741 0.324943 -0.078378
I21   I     I_    0.366092 0.266801 0.677379 -0.063465
I22   I     I_    0.644510 0.743821 0.338302 -0.149838
I23   I     I_    0.735250 0.364019 0.673852 -0.077469
I24   I     I_    0.266326 0.634359 0.323478 -0.135894
I25   I     I_    0.635298 0.265385 0.325082 -0.135664
I26   I     I_    0.365697 0.733610 0.676696 -0.079177
I27   I     I_    0.267500 0.366789 0.321354 -0.063902
I28   I     I_    0.742957 0.643649 0.662747 -0.148911
I29   I     I_    0.365649 0.733661 0.323398 -0.079228
I30   I     I_    0.636019 0.264629 0.673683 -0.135969
I31   I     I_    0.743829 0.644504 0.338302 -0.149282
I32   I     I_    0.266806 0.366128 0.677441 -0.063103
I33   I     I_    0.133242 0.232564 0.178574 -0.064139
I34   I     I_    0.856364 0.757028 0.837246 -0.149486
I35   I     I_    0.765451 0.135249 0.175076 -0.078359
I36   I     I_    0.233633 0.865682 0.823403 -0.135754
I37   I     I_    0.855491 0.756181 0.161700 -0.149864
I38   I     I_    0.133921 0.233208 0.822663 -0.063484
I39   I     I_    0.233665 0.865644 0.176521 -0.135814
I40   I     I_    0.764802 0.135930 0.826065 -0.077494
I41   I     I_    0.134292 0.766400 0.823290 -0.079147
I42   I     I_    0.864711 0.234608 0.174932 -0.135617
I43   I     I_    0.757044 0.856352 0.837251 -0.148962
I44   I     I_    0.232504 0.133213 0.178645 -0.063944
I45   I     I_    0.864006 0.235349 0.826279 -0.135898
I46   I     I_    0.134326 0.766356 0.176629 -0.079228
I47   I     I_    0.233228 0.133894 0.822629 -0.063119
I48   I     I_    0.756172 0.855497 0.161701 -0.149317
Cl1   Cl    Cl    0.300880 0.059551 0.938905 -0.395726
Cl2   Cl    Cl    0.700111 0.055139 0.061153 -0.398627
Cl3   Cl    Cl    0.058728 0.300603 0.938970 -0.395388
Cl4   Cl    Cl    0.056701 0.699840 0.061077 -0.398924
Cl5   Cl    Cl    0.700127 0.054997 0.938913 -0.398663
Cl6   Cl    Cl    0.300952 0.060041 0.061115 -0.395689
Cl7   Cl    Cl    0.056800 0.699801 0.938850 -0.398963
Cl8   Cl    Cl    0.058934 0.300668 0.061165 -0.395359
Cl9   Cl    Cl    0.799862 0.444929 0.438852 -0.398615
Cl10  Cl    Cl    0.199082 0.440113 0.561079 -0.395758
Cl11  Cl    Cl    0.443344 0.800143 0.438917 -0.398916
Cl12  Cl    Cl    0.441136 0.199375 0.561031 -0.395392
Cl13  Cl    Cl    0.199024 0.439839 0.438886 -0.395704
Cl14  Cl    Cl    0.799840 0.445115 0.561098 -0.398651
Cl15  Cl    Cl    0.440959 0.199309 0.438830 -0.395386
Cl16  Cl    Cl    0.443292 0.800170 0.561143 -0.398938

loop_
_geom_bond_atom_site_label_1
_geom_bond_atom_site_label_2
_ccdc_geom_bond_type
O26   Zn11  S    
O1    Zn5   S    
O39   Zn2   S    
C77   C101  A    
C76   C79   A    
C118  O26   A    
C107  O11   A    
C91   Cl15  S    
C105  O9    A    
C106  O6    A    
O20   Zn1   S    
C109  O13   A    
O22   Zn15  S    
C4    C41   T    
C110  O18   A    
O1    Zn12  S    
C98   C108  S    
C49   C78   A    
O14   Zn3   S    
C89   C94   A    
C52   C84   A    
C153  I36   S    
C8    C45   T    
C154  I35   S    
C91   C96   A    
C135  C142  A    
C53   C74   A    
C3    C19   S    
C60   I12   S    
C41   C118  S    
C81   C86   A    
C73   C101  A    
C83   C88   A    
O31   Zn13  S    
C75   C103  A    
C21   C159  A    
O29   Zn15  S    
C20   C132  A    
C120  O28   A    
C21   C133  A    
C61   I13   S    
C107  O7    A    
O47   Zn5   S    
C150  C159  A    
C151  C158  A    
O18   Zn7   S    
C81   Cl5   S    
O35   Zn9   S    
O27   Zn14  S    
C117  O47   A    
C132  C137  A    
C71   C99   A    
C149  I48   S    
C136  C141  A    
C127  O35   A    
C129  I28   S    
C11   C27   S    
C27   C145  A    
C25   C147  A    
C59   C91   A    
C26   C148  A    
C121  O43   A    
C80   C104  A    
O16   Zn5   S    
C19   C153  A    
C85   Cl1   S    
C18   C130  A    
C148  C153  A    
C17   C155  A    
C50   C77   A    
C51   C83   A    
C18   C156  A    
C90   C93   A    
C126  O40   A    
C152  C157  A    
C35   C124  S    
C135  I30   S    
C142  I23   S    
C42   C117  S    
C82   C85   A    
C100  C106  S    
C131  C138  A    
C104  C110  S    
O23   Zn10  S    
O19   Zn2   S    
C31   C143  A    
C151  I46   S    
C32   C144  A    
C38   C121  S    
C97   C107  S    
C32   C150  A    
O2    Zn11  S    
C53   C85   A    
C12   C33   T    
C57   I9    S    
O3    Zn7   S    
C144  I21   S    
C59   I11   S    
O49   Zn3   S    
O30   Zn16  S    
C147  I42   S    
C34   C125  S    
C121  O29   A    
C56   C88   A    
C49   C81   A    
C65   C70   A    
C67   C72   A    
C51   C80   A    
C45   C114  S    
C133  I32   S    
C113  O21   A    
C74   C77   A    
C9    C36   T    
C10   C35   T    
O12   Zn9   S    
O37   Zn8   S    
C112  O20   A    
C24   C136  A    
C134  C143  A    
C56   C75   A    
C106  O10   A    
C79   C103  A    
C110  O14   A    
O24   Zn9   S    
C5    C48   T    
C6    C47   T    
C123  O41   A    
C51   I3    S    
C7    C46   T    
C64   C96   A    
C54   C86   A    
O7    Zn14  S    
C27   C139  A    
C37   C122  S    
C4    C20   S    
C25   C137  A    
C68   C100  A    
O41   Zn4   S    
C43   C116  S    
C29   C151  A    
C30   C152  A    
C29   C141  A    
C92   Cl16  S    
O9    Zn16  S    
C5    C21   S    
C119  O45   A    
C89   Cl13  S    
C47   C120  S    
C112  O16   A    
C108  O12   A    
C57   C70   A    
C54   I6    S    
C95   Cl11  S    
O2    Zn2   S    
C157  I40   S    
C63   C68   A    
O45   Zn7   S    
C133  C144  A    
C158  I39   S    
C46   C113  S    
C148  I41   S    
C15   C31   S    
C16   C32   S    
C16   C37   T    
C1    C17   S    
C66   C98   A    
C93   Cl9   S    
C22   C160  A    
C7    C23   S    
C116  O24   A    
C8    C24   S    
C50   I2    S    
C86   Cl2   S    
C55   C87   A    
C149  C160  A    
C119  O27   A    
C136  I29   S    
C56   I8    S    
C82   Cl6   S    
C76   C104  A    
C111  O19   A    
O2    Zn6   S    
C3    C42   T    
C78   C102  A    
C102  C112  S    
O38   Zn7   S    
C9    C25   S    
O4    Zn4   S    
C159  I38   S    
C57   C89   A    
C12   C28   S    
C145  I44   S    
C13   C29   S    
C146  I43   S    
C152  I45   S    
C31   C149  A    
C61   C93   A    
C6    C22   S    
C63   C95   A    
C122  O44   A    
C13   C40   T    
C116  O50   A    
C138  I19   S    
C14   C39   T    
C145  C156  A    
O3    Zn3   S    
O4    Zn9   S    
C146  C155  A    
C134  I31   S    
C39   C128  S    
O42   Zn3   S    
C67   C99   A    
C59   C72   A    
C74   C102  A    
O1    Zn16  S    
C130  I27   S    
O10   Zn15  S    
C130  C139  A    
C127  O37   A    
C122  O30   A    
C48   C119  S    
O48   Zn6   S    
C115  O49   A    
C36   C123  S    
C150  I47   S    
C113  O51   A    
C60   C71   A    
O46   Zn8   S    
C114  O22   A    
C40   C127  S    
C124  O42   A    
C54   C73   A    
C126  O34   A    
C87   Cl3   S    
C88   Cl4   S    
C132  I25   S    
O52   Zn2   S    
C62   C94   A    
O15   Zn6   S    
C123  O31   A    
C53   I5    S    
C124  O32   A    
C50   C82   A    
O3    Zn10  S    
C137  I20   S    
O43   Zn6   S    
C28   C146  A    
C55   I7    S    
C26   C138  A    
C115  O23   A    
C58   C69   A    
C64   I16   S    
C101  C111  S    
C30   C142  A    
C23   C135  A    
C103  C109  S    
C117  O25   A    
C90   Cl14  S    
C68   C71   A    
O50   Zn4   S    
C33   C126  S    
C96   Cl12  S    
C105  O5    A    
C49   I1    S    
C83   Cl7   S    
C156  I33   S    
C109  O17   A    
O33   Zn11  S    
C141  I24   S    
C139  I18   S    
O5    Zn12  S    
C143  I22   S    
C2    C18   S    
C28   C140  A    
C84   C87   A    
O2    Zn15  S    
C131  I26   S    
C94   Cl10  S    
C84   Cl8   S    
C20   C154  A    
C22   C134  A    
C111  O15   A    
C24   C158  A    
C66   C69   A    
C23   C157  A    
C114  O52   A    
C147  C154  A    
C155  I34   S    
C61   C66   A    
C44   C115  S    
O25   Zn12  S    
C73   C78   A    
C125  O33   A    
O3    Zn14  S    
C75   C80   A    
C60   C92   A    
O4    Zn8   S    
O32   Zn14  S    
C160  I37   S    
C14   C30   S    
C62   I14   S    
C128  O38   A    
O21   Zn16  S    
C19   C131  A    
C99   C105  S    
C17   C129  A    
C140  I17   S    
C64   C67   A    
O13   Zn4   S    
O28   Zn13  S    
O8    Zn13  S    
C52   I4    S    
C92   C95   A    
C118  O48   A    
C15   C38   T    
C58   C90   A    
C1    C44   T    
C2    C43   T    
C63   I15   S    
O40   Zn1   S    
O4    Zn13  S    
C55   C76   A    
O51   Zn1   S    
O17   Zn8   S    
C52   C79   A    
O11   Zn10  S    
O34   Zn12  S    
C72   C100  A    
O1    Zn1   S    
C62   C65   A    
C11   C34   T    
C128  O36   A    
O6    Zn11  S    
O44   Zn5   S    
C120  O46   A    
C65   C97   A    
C10   C26   S    
C129  C140  A    
C108  O8    A    
C125  O39   A    
C58   I10   S    
O36   Zn10  S    
C70   C98   A    
C69   C97   A    
