data_mof_unit_39541.cif
_audit_creation_date              2012-12-11T17:23:02-0500
_audit_creation_method            fapswitch 2.2
_symmetry_space_group_name_H-M    P1
_symmetry_Int_Tables_number       1
_space_group_crystal_system       triclinic
_cell_length_a                    8.318018
_cell_length_b                    16.742519
_cell_length_c                    27.12439
_cell_angle_alpha                 97.152268
_cell_angle_beta                  91.631223
_cell_angle_gamma                 86.404921
_cell_volume                      3739.88339601

loop_
_atom_site_label
_atom_site_type_symbol
_atom_type_description
_atom_site_fract_x
_atom_site_fract_y
_atom_site_fract_z
_atom_type_partial_charge
Ba1   Ba    Ba6+2 0.851940 0.461560 0.523510 1.666411
Ba2   Ba    Ba6+2 0.337880 0.538370 0.476480 1.653203
C1    C     C_3   0.683696 0.171484 0.650609 0.384959
C2    C     C_R   0.890861 0.568156 0.179210 0.634203
C3    C     C_2   0.750731 0.517117 0.271144 -0.039565
C4    C     C_3   0.175730 0.266030 0.652045 0.343033
C5    C     C_3   0.706908 0.514124 0.324823 -0.051132
C6    C     C_1   0.988358 0.487275 0.343816 0.056610
C7    C     C_2   0.031304 0.486000 0.296564 -0.118219
C8    C     C_2   0.906474 0.502933 0.256783 0.194768
C9    C     C_R   0.027955 0.507351 0.103466 -0.136533
C10   C     C_R   0.089746 0.444132 0.129925 -0.012429
C11   C     C_R   0.191070 0.382176 0.105385 -0.055328
C12   C     C_3   0.663524 0.254362 0.632158 0.424891
C13   C     C_R   0.925424 0.569856 0.128037 -0.083445
C14   C     C_2   0.851806 0.524374 0.359046 -0.269263
C15   C     C_2   0.369586 0.496962 0.642740 0.104118
C16   C     C_3   0.172407 0.235515 0.702677 0.246914
C17   C     C_R   0.195419 0.440263 0.975486 0.024669
C18   C     C_R   0.060970 0.575115 0.976522 0.019401
C19   C     C_R   0.148198 0.508093 0.950652 0.050141
C20   C     C_R   0.271007 0.372465 0.947215 -0.104837
C21   C     C_R   0.302060 0.372076 0.896932 -0.067162
C22   C     C_R   0.263237 0.439949 0.872559 -0.029326
C23   C     C_3   0.516835 0.665412 0.629015 0.283665
C24   C     C_R   0.188876 0.508901 0.899627 -0.113314
C25   C     C_R   0.157559 0.578863 0.875879 -0.054294
C26   C     C_R   0.208754 0.579067 0.826124 0.625367
C27   C     C_R   0.296409 0.439719 0.821556 0.543948
C28   C     C_3   0.173322 0.286932 0.407805 0.293774
C29   C     C_2   0.457438 0.484613 0.730667 -0.184453
C30   C     C_3   0.510887 0.492019 0.678710 -0.072505
C31   C     C_1   0.224088 0.526655 0.658495 -0.030584
C32   C     C_2   0.181759 0.534386 0.706502 0.290550
C33   C     C_2   0.304473 0.507213 0.745319 0.168137
C34   C     C_3   0.504759 0.696405 0.684122 -0.404246
C35   C     C_R   0.164583 0.442173 0.027366 0.033767
C36   C     C_R   0.068103 0.507358 0.052345 0.048231
C37   C     C_R   0.010291 0.572012 0.026371 -0.018222
C38   C     C_R   0.227550 0.381047 0.055438 -0.103054
C39   C     C_R   0.857450 0.631822 0.100996 0.449436
C40   C     C_3   0.165588 0.197132 0.391080 -0.375141
C41   C     C_R   0.029842 0.644070 0.951830 -0.126364
C42   C     C_R   0.077591 0.646762 0.902868 0.157629
C43   C     C_R   0.899444 0.630747 0.050572 -0.165853
C44   C     C_R   0.363791 0.254137 0.504381 -0.252988
C45   C     C_3   0.126502 0.711380 0.341390 0.345913
C46   C     C_R   0.521646 0.236134 0.490194 0.009613
C47   C     C_R   0.586871 0.156462 0.491808 -0.098543
C48   C     C_R   0.494633 0.099073 0.511364 0.292602
C49   C     C_R   0.343355 0.125151 0.532104 -0.178876
C50   C     C_R   0.279591 0.203935 0.529250 0.002481
C51   C     C_R   0.632729 0.854598 0.517510 0.367214
C52   C     C_3   0.053045 0.717897 0.587707 0.254062
C53   C     C_R   0.676098 0.771132 0.510168 -0.012053
C54   C     C_R   0.728684 0.909673 0.496658 0.185945
C55   C     C_R   0.817827 0.742958 0.486511 -0.364637
C56   C     C_3   0.102326 0.736208 0.288711 0.413325
C57   C     C_R   0.920741 0.795840 0.470229 0.005542
C58   C     C_R   0.874427 0.878798 0.473891 -0.233431
C59   C     C_3   0.130696 0.796569 0.607610 -0.145065
C60   C     C_3   0.693936 0.350261 0.375051 0.306275
C61   C     C_3   0.740142 0.314121 0.322691 -0.367687
C62   C     C_3   0.854782 0.057953 0.627543 0.185881
C63   C     C_3   0.905230 0.797396 0.241138 0.325670
C64   C     C_3   0.713734 0.759451 0.102437 0.176973
C65   C     C_3   0.933745 0.563006 0.743227 0.318767
C66   C     C_3   0.355174 0.416558 0.569392 0.583510
C67   C     C_3   0.576785 0.741507 0.356684 0.471255
C68   C     C_3   0.551607 0.908890 0.594687 0.217320
C69   C     C_3   0.008748 0.317773 0.758643 0.215140
C70   C     C_3   0.518170 0.821192 0.338087 -0.321969
C71   C     C_R   0.048610 0.443288 0.180277 0.582675
H1    H     H_    0.778926 0.264647 0.615112 0.098419
H2    H     H_    0.604007 0.401788 0.373414 0.030201
H3    H     H_    0.813439 0.256505 0.324219 0.141809
H4    H     H_    0.813102 0.355410 0.305168 0.074578
H5    H     H_    0.630199 0.302424 0.299435 0.114582
H6    H     H_    0.566281 0.254137 0.603092 -0.055550
H7    H     H_    0.395164 0.650197 0.614506 0.039702
H8    H     H_    0.602161 0.611444 0.624342 0.076695
H9    H     H_    0.431488 0.754614 0.689158 0.135343
H10   H     H_    0.445882 0.652863 0.704208 0.091587
H11   H     H_    0.627220 0.705701 0.700519 0.125933
H12   H     H_    0.235033 0.180084 0.356644 0.129602
H13   H     H_    0.770650 0.177277 0.682848 0.103543
H14   H     H_    0.269505 0.262959 0.727741 0.060685
H15   H     H_    0.253556 0.691140 0.347151 0.036167
H16   H     H_    0.048225 0.660902 0.345041 0.029666
H17   H     H_    0.161309 0.794187 0.288130 0.013218
H18   H     H_    0.518685 0.740776 0.393180 0.037279
H19   H     H_    0.570859 0.825568 0.301319 0.133402
H20   H     H_    0.553647 0.873256 0.365125 0.072138
H21   H     H_    0.135247 0.331086 0.656040 0.039270
H22   H     H_    0.384240 0.825345 0.334494 0.089394
H23   H     H_    0.217609 0.162028 0.420390 0.067589
H24   H     H_    0.155614 0.471397 0.286357 0.143864
H25   H     H_    0.243030 0.333550 0.124846 0.116846
H26   H     H_    0.548740 0.468781 0.757795 0.114611
H27   H     H_    0.358686 0.318006 0.877177 0.118453
H28   H     H_    0.303634 0.317490 0.962602 0.067256
H29   H     H_    0.308976 0.331907 0.040068 0.065319
H30   H     H_    0.654819 0.525633 0.243914 0.103359
H31   H     H_    0.972909 0.698852 0.970335 0.063499
H32   H     H_    0.301541 0.258684 0.639011 -0.067327
H33   H     H_    0.837789 0.673836 0.029382 0.057555
H34   H     H_    0.038315 0.181931 0.383772 0.119322
H35   H     H_    0.839449 0.552303 0.397201 0.066972
H36   H     H_    0.275038 0.083903 0.549651 0.094973
H37   H     H_    0.704122 0.138988 0.476421 0.116060
H38   H     H_    0.950872 0.919187 0.458607 0.121408
H39   H     H_    0.304178 0.309378 0.496252 -0.040748
H40   H     H_    0.851332 0.678992 0.482380 0.083313
H41   H     H_    0.202283 0.169060 0.697519 0.058483
H42   H     H_    0.301258 0.300702 0.414164 0.031142
H43   H     H_    0.100498 0.302013 0.441729 0.052621
H44   H     H_    0.147579 0.843018 0.542147 0.233251
H45   H     H_    0.925209 0.731597 0.578260 -0.005337
H46   H     H_    0.972046 0.869117 0.571917 0.145317
H47   H     H_    0.807440 0.026835 0.657925 -0.007790
H48   H     H_    0.968123 0.087684 0.640258 0.088115
H49   H     H_    0.885068 0.011387 0.595887 0.085066
H50   H     H_    0.550975 0.098074 0.686538 0.157655
H51   H     H_    0.456346 0.131238 0.636692 0.169486
H52   H     H_    0.145916 0.618225 0.257532 0.178613
H53   H     H_    0.303518 0.676389 0.256113 0.189053
H54   H     H_    0.975793 0.776909 0.207123 0.049285
H55   H     H_    0.931390 0.860383 0.256070 -0.037532
H56   H     H_    0.115382 0.688447 0.554235 0.064874
H57   H     H_    0.775413 0.797252 0.230217 0.086925
H58   H     H_    0.785296 0.694021 0.385578 0.109589
H59   H     H_    0.787261 0.793603 0.381206 0.167855
H60   H     H_    0.635410 0.748757 0.068667 0.035988
H61   H     H_    0.828986 0.785695 0.094456 0.001165
H62   H     H_    0.646766 0.804959 0.129058 0.057123
H63   H     H_    0.911910 0.729328 0.879977 0.165482
H64   H     H_    0.087670 0.767773 0.902484 0.175177
H65   H     H_    0.897207 0.604373 0.776746 0.049040
H66   H     H_    0.959213 0.502060 0.754967 -0.050463
H67   H     H_    0.086392 0.818032 0.645390 0.132943
H68   H     H_    0.829141 0.562411 0.716987 0.038939
H69   H     H_    0.323038 0.373233 0.595324 -0.292614
H70   H     H_    0.448659 0.384145 0.546638 0.041304
H71   H     H_    0.269549 0.425610 0.538835 0.073758
H72   H     H_    0.670812 0.881373 0.606029 -0.015491
H73   H     H_    0.461814 0.893981 0.621091 0.068970
H74   H     H_    0.555591 0.975539 0.598934 0.083630
H75   H     H_    0.880206 0.335781 0.767019 0.078281
H76   H     H_    0.063112 0.369937 0.745259 0.032296
H77   H     H_    0.070654 0.302976 0.793631 0.057176
H78   H     H_    0.262367 0.785121 0.610773 0.127358
H79   H     H_    0.803472 0.370830 0.395623 0.031011
N1    N     N_R   0.950222 0.504926 0.204698 -0.437927
N2    N     N_R   0.265257 0.508381 0.798102 -0.426408
N3    N     N_2   0.542573 0.014958 0.509320 -0.178879
N4    N     N_2   0.686817 0.994896 0.498379 -0.216233
N5    N     N_3   0.096486 0.860706 0.576592 -0.512849
N6    N     N_3   0.529565 0.148983 0.667799 -0.516873
N7    N     N_3   0.178463 0.675423 0.251597 -0.504146
N8    N     N_3   0.752207 0.738235 0.362647 -0.419967
N9    N     N_3   0.038345 0.718899 0.880323 -0.434383
O1    O     O_2   0.915540 0.542930 0.617950 -0.457709
O2    O     O_2   0.259522 0.785570 0.459394 -0.469228
O3    O     O_3   0.088793 0.778670 0.376601 -0.627292
O4    O     O_3   0.147530 0.542870 0.557780 -0.498233
O5    O     O_3   0.552080 0.402920 0.475380 -0.504967
O6    O     O_2   0.387280 0.697260 0.523450 -0.456308
O7    O     O_3   0.574058 0.726291 0.604845 -0.647447
O8    O     O_2   0.377323 0.550977 0.327362 -0.512440
O9    O     O_3   0.532490 0.677480 0.320877 -0.590462
O10   O     O_2   0.098414 0.386577 0.202020 -0.599241
O11   O     O_2   0.354071 0.378108 0.798070 -0.617891
O12   O     O_3   0.624882 0.290545 0.397383 -0.633023
O13   O     O_2   0.809301 0.623826 0.201389 -0.514445
O14   O     O_2   0.206799 0.642561 0.808242 -0.524359
O15   O     O_3   0.664390 0.396160 0.588360 -0.474575
O16   O     O_2   0.838093 0.423350 0.670402 -0.512964
O17   O     O_3   0.057151 0.671375 0.627111 -0.602534
O18   O     O_3   0.626535 0.314892 0.671851 -0.629692
O19   O     O_2   0.802410 0.302720 0.476520 -0.465710
O20   O     O_3   0.070880 0.354870 0.564040 -0.503593
O21   O     O_2   0.943470 0.213131 0.531476 -0.466407
O22   O     O_3   0.738366 0.114266 0.610619 -0.655116
O23   O     O_3   0.073728 0.220610 0.618990 -0.609037
O24   O     O_3   0.934993 0.745148 0.277831 -0.583543
O25   O     O_3   0.740989 0.687644 0.124543 -0.601388
O26   O     O_3   0.064630 0.594651 0.721639 -0.595003
O27   O     O_3   0.407332 0.490949 0.592749 -0.662334
O28   O     O_3   0.500014 0.880754 0.545948 -0.618008
O29   O     O_3   0.015116 0.249297 0.722263 -0.644675
O30   O     O_2   0.274150 0.457040 0.382020 -0.456858
O31   O     O_3   0.042160 0.457070 0.442220 -0.510093
O32   O     O_3   0.525310 0.603770 0.411640 -0.486088
O33   O     O_3   0.110187 0.329172 0.370174 -0.631984
O34   O     O_3   0.637620 0.597020 0.524620 -0.461765
O35   O     O_3   0.118810 0.645070 0.435950 -0.496161
P1    P     P_3+3 0.086060 0.566890 0.610430 1.057163
P2    P     P_3+3 0.625290 0.314770 0.461990 0.971170
P3    P     P_3+3 0.092394 0.248189 0.559485 0.962520
P4    P     P_3+3 0.103630 0.433040 0.389570 0.979683
P5    P     P_3+3 0.101470 0.750816 0.437016 0.944926
P6    P     P_3+3 0.661736 0.409216 0.653397 0.985849
P7    P     P_3+3 0.569799 0.698323 0.540543 1.004730
P8    P     P_3+3 0.537656 0.586071 0.346726 0.956997

loop_
_geom_bond_atom_site_label_1
_geom_bond_atom_site_label_2
_ccdc_geom_bond_type
C26   N2    Am   
C19   C24   A    
C3    H30   S    
Ba1   O15   S    
C44   H39   S    
C67   C70   S    
C23   H7    S    
Ba1   P2    S    
C33   N2    S    
C54   N4    S    
C16   H41   S    
C63   H57   S    
C28   H43   S    
H53   N7    S    
C10   C11   A    
C27   N2    Am   
O1    P1    D    
C24   C25   A    
C35   C36   A    
C20   H28   S    
C60   H79   S    
C40   H23   S    
C12   H1    S    
C17   C19   A    
Ba2   O31   S    
Ba1   Ba2   S    
C35   C38   A    
C59   N5    S    
C56   N7    S    
C36   C37   A    
C70   H19   S    
Ba1   O19   S    
C55   C57   A    
C69   H77   S    
O34   P7    S    
C61   H3    S    
C34   H10   S    
C62   H48   S    
C59   H67   S    
C44   C50   A    
C67   N8    S    
C66   H70   S    
C32   C33   S    
C11   H25   S    
C65   H65   S    
C41   H31   S    
C11   C38   A    
C17   C35   A    
C64   H61   S    
C70   H22   S    
C9    C13   A    
C25   C42   A    
O33   P4    S    
C27   O11   D    
C34   H9    S    
C6    C7    D    
C4    H21   S    
H51   N6    S    
C1    N6    S    
C21   C22   A    
C66   H69   S    
C68   H73   S    
O6    P7    D    
C71   O10   D    
C65   H66   S    
C7    C8    S    
Ba2   O5    S    
O9    P8    S    
C12   O18   S    
C37   C43   A    
C21   H27   S    
O12   P2    S    
C57   C58   A    
C6    C14   D    
C2    O13   D    
C10   C71   A    
C56   O24   S    
C23   H8    S    
C45   H16   S    
C32   O26   S    
C15   C31   D    
C16   O29   S    
C8    N1    S    
C65   O26   S    
C31   C32   D    
C44   C46   A    
C28   H42   S    
C51   C53   A    
C23   O7    S    
C46   P2    S    
C4    C16   S    
C63   O24   S    
H44   N5    S    
C49   C50   A    
C63   H55   S    
O15   P6    S    
C17   C20   A    
O30   P4    D    
C13   C39   A    
C69   H76   S    
H63   N9    S    
C50   P3    S    
C18   C37   A    
Ba1   O20   S    
C55   H40   S    
C60   O12   S    
C52   O17   S    
C4    O23   S    
Ba2   O35   S    
C9    C36   A    
C1    H13   S    
C41   C42   A    
O5    P2    S    
C60   C61   S    
O4    P1    S    
C64   H60   S    
C56   H17   S    
C57   P5    S    
C29   C30   S    
O18   P6    S    
C31   P1    S    
C48   N3    S    
H46   N5    S    
O23   P3    S    
C53   P7    S    
C5    P8    S    
C48   C49   A    
C62   O22   S    
C40   H12   S    
H59   N8    S    
C12   H6    S    
Ba2   O30   S    
C59   H78   S    
Ba2   O4    S    
C1    C12   S    
C68   H72   S    
C70   H20   S    
C46   C47   A    
C52   C59   S    
O17   P1    S    
Ba1   O1    S    
C29   H26   S    
C53   C55   A    
C2    N1    Am   
C5    C14   S    
C40   H34   S    
Ba2   P4    S    
C60   H2    S    
C6    P4    S    
C42   N9    S    
C45   O3    S    
O32   P8    S    
O20   P3    S    
C52   H45   S    
C63   H54   S    
C25   C26   A    
C18   C41   A    
C43   H33   S    
C3    C5    S    
C61   H4    S    
C51   C54   A    
C52   H56   S    
O2    P5    D    
C7    H24   S    
Ba1   O34   S    
Ba1   O4    S    
O16   P6    D    
Ba1   P1    S    
O21   P3    D    
C22   C24   A    
C9    C10   A    
H52   N7    S    
C26   O14   D    
Ba2   O34   S    
H50   N6    S    
C16   H14   S    
C62   H47   S    
O7    P7    S    
Ba2   O32   S    
C45   H15   S    
C2    C13   A    
C64   O25   S    
C3    C8    D    
C58   H38   S    
C45   C56   S    
H64   N9    S    
C28   O33   S    
C1    O22   S    
Ba1   O5    S    
C34   H11   S    
C62   H49   S    
C69   H75   S    
C4    H32   S    
C39   O25   S    
C66   H71   S    
C29   C33   D    
C67   O9    S    
O31   P4    S    
C69   O29   S    
C30   P6    S    
H58   N8    S    
O19   P2    D    
O3    P5    S    
C14   H35   S    
C23   C34   S    
C38   H29   S    
C64   H62   S    
Ba1   O31   S    
C54   C58   A    
C22   C27   A    
C18   C19   A    
C66   O27   S    
C49   H36   S    
C47   C48   A    
C71   N1    Am   
N3    N4    D    
C15   C30   S    
C39   C43   A    
C20   C21   A    
C28   C40   S    
C68   H74   S    
C15   O27   S    
O35   P5    S    
C67   H18   S    
C51   O28   S    
Ba2   O6    S    
C68   O28   S    
C47   H37   S    
O8    P8    D    
C61   H5    S    
C65   H68   S    
