data_mof_unit_10796.cif
_audit_creation_date              2012-12-10T16:49:30-0500
_audit_creation_method            fapswitch 2.2
_symmetry_space_group_name_H-M    P1
_symmetry_Int_Tables_number       1
_space_group_crystal_system       triclinic
_cell_length_a                    7.795217
_cell_length_b                    8.564938
_cell_length_c                    12.831781
_cell_angle_alpha                 89.700811
_cell_angle_beta                  87.675516
_cell_angle_gamma                 93.250426
_cell_volume                      854.614561326

loop_
_atom_site_label
_atom_site_type_symbol
_atom_type_description
_atom_site_fract_x
_atom_site_fract_y
_atom_site_fract_z
_atom_type_partial_charge
C1    C     C_R   0.455062 0.205511 0.497376 0.963283
C2    C     C_R   0.685129 0.606273 0.143971 0.366000
C3    C     C_R   0.565014 0.578054 0.868797 0.337616
C4    C     C_R   0.434986 0.421950 0.131203 0.337617
C5    C     C_R   0.563340 0.553158 0.976313 -0.023882
C6    C     C_R   0.436656 0.446850 0.023688 -0.023877
C7    C     C_2   0.431316 0.042150 0.495786 -0.337365
C8    C     C_2   0.568684 0.957850 0.504214 -0.337366
C9    C     C_R   0.544938 0.794489 0.502624 0.963285
C10   C     C_R   0.465386 0.503040 0.699328 0.977971
C11   C     C_R   0.534613 0.496960 0.300672 0.977973
C12   C     C_R   0.558435 0.502281 0.189689 -0.148366
C13   C     C_R   0.441564 0.497722 0.810311 -0.148367
C14   C     C_R   0.314724 0.367345 0.962977 -0.295855
C15   C     C_R   0.685268 0.632668 0.037024 -0.295860
C16   C     C_R   0.314864 0.393739 0.856031 0.365999
H1    H     H_    0.221459 0.281588 0.997039 0.168839
H2    H     H_    0.914489 0.302752 0.629113 0.343244
H3    H     H_    0.778529 0.718429 0.002963 0.168839
H4    H     H_    0.301300 0.991769 0.487652 0.192550
H5    H     H_    0.698700 0.008230 0.512348 0.192550
H6    H     H_    0.199558 0.346652 0.159100 0.343171
H7    H     H_    0.800443 0.653352 0.840904 0.343172
H8    H     H_    0.880300 0.755431 0.161445 0.336285
H9    H     H_    0.119652 0.244621 0.838561 0.336280
H10   H     H_    0.085511 0.697247 0.370887 0.343246
N1    N     N_2   0.054030 0.541640 0.471970 0.173202
N2    N     N_2   0.945970 0.458360 0.528030 0.173202
O1    O     O_R   0.609680 0.261530 0.506880 -0.652793
O2    O     O_3   0.685429 0.679776 0.818362 -0.750774
O3    O     O_3   0.800188 0.687303 0.205992 -0.722798
O4    O     O_3   0.199798 0.312715 0.794010 -0.722789
O5    O     O_3   0.985374 0.641769 0.407390 -0.611987
O6    O     O_3   0.014626 0.358231 0.592609 -0.611987
O7    O     O_R   0.390320 0.738470 0.493120 -0.652792
O8    O     O_R   0.323330 0.288220 0.488910 -0.563980
O9    O     O_R   0.676670 0.711780 0.511090 -0.563979
O10   O     O_R   0.619510 0.488830 0.661140 -0.621860
O11   O     O_R   0.380490 0.511170 0.338860 -0.621862
O12   O     O_R   0.333160 0.515520 0.643180 -0.553461
O13   O     O_R   0.666840 0.484480 0.356820 -0.553463
O14   O     O_3   0.314574 0.320225 0.181636 -0.750775
Zn1   Zn    Zn3+2 0.691200 0.482180 0.511990 1.080956
Zn2   Zn    Zn3+2 0.308800 0.517820 0.488010 1.080956

loop_
_geom_bond_atom_site_label_1
_geom_bond_atom_site_label_2
_ccdc_geom_bond_type
O9    Zn1   S    
C3    O2    S    
C11   O11   A    
C11   C12   S    
O11   Zn2   S    
C2    C15   A    
C6    C14   A    
H2    O6    S    
C4    C12   A    
N2    Zn1   S    
C3    C13   A    
C10   O10   A    
C5    C15   A    
C2    C12   A    
H9    O4    S    
C9    O9    A    
C8    H5    S    
H8    O3    S    
N2    O6    S    
C7    C8    D    
N1    O5    S    
C15   H3    S    
O7    Zn2   S    
O13   Zn1   S    
C14   H1    S    
H6    O14   S    
C4    O14   S    
C1    O1    A    
C11   O13   A    
C5    C6    A    
C14   C16   A    
O8    Zn2   S    
C16   O4    S    
H7    O2    S    
O12   Zn2   S    
C4    C6    A    
C7    H4    S    
C13   C16   A    
N1    N2    D    
C9    O7    A    
C2    O3    S    
C10   O12   A    
H10   O5    S    
C1    C7    S    
N1    Zn2   S    
O1    Zn1   S    
O10   Zn1   S    
C1    O8    A    
C8    C9    S    
C3    C5    A    
C10   C13   S    
