data_mof_unit_35846.cif
_audit_creation_date              2012-12-11T16:58:21-0500
_audit_creation_method            fapswitch 2.2
_symmetry_space_group_name_H-M    P1
_symmetry_Int_Tables_number       1
_space_group_crystal_system       triclinic
_cell_length_a                    16.893022
_cell_length_b                    7.244579
_cell_length_c                    16.836857
_cell_angle_alpha                 90.0
_cell_angle_beta                  100.37659
_cell_angle_gamma                 89.999987
_cell_volume                      2026.84238019

loop_
_atom_site_label
_atom_site_type_symbol
_atom_type_description
_atom_site_fract_x
_atom_site_fract_y
_atom_site_fract_z
_atom_type_partial_charge
O1    O     O_R   0.413450 0.494370 0.415710 -0.534935
O2    O     O_R   0.586550 0.994370 0.584290 -0.534936
O3    O     O_R   0.578420 0.819350 0.429360 -0.542274
O4    O     O_R   0.421580 0.319350 0.570640 -0.542274
C1    C     C_R   0.605156 0.654373 0.414257 0.714218
C2    C     C_R   0.394844 0.154373 0.585743 0.714216
O5    O     O_R   0.413570 0.823780 0.406240 -0.544940
O6    O     O_R   0.586430 0.323780 0.593760 -0.544941
O7    O     O_R   0.420530 0.998740 0.561000 -0.531174
O8    O     O_R   0.579470 0.498740 0.439000 -0.531174
C3    C     C_R   0.385786 0.655371 0.383935 0.692027
C4    C     C_R   0.614213 0.155371 0.616065 0.692026
O9    O     O_3   0.502480 0.662320 0.550800 -0.374551
O10   O     O_3   0.497520 0.162320 0.449200 -0.374550
V1    V     V_3+5 0.499540 0.935370 0.490580 1.433503
V2    V     V_3+5 0.500460 0.435370 0.509420 1.433504
C5    C     C_R   0.735529 0.991339 0.693849 0.100983
C6    C     C_R   0.264471 0.491339 0.306151 0.100982
C7    C     C_R   0.685543 0.147229 0.682015 -0.103105
C8    C     C_R   0.314457 0.647229 0.317984 -0.103105
C9    C     C_R   0.708538 0.300041 0.732767 -0.167124
C10   C     C_R   0.291462 0.800041 0.267233 -0.167121
H1    H     H_    0.673285 0.425359 0.725311 0.151748
H2    H     H_    0.326715 0.925359 0.274689 0.151747
C11   C     C_R   0.774372 0.288826 0.797230 -0.157381
C12   C     C_R   0.225628 0.788826 0.202770 -0.157380
H3    H     H_    0.787489 0.406632 0.836890 0.141769
H4    H     H_    0.212511 0.906632 0.163110 0.141767
C13   C     C_R   0.819290 0.124149 0.813189 -0.099914
C14   C     C_R   0.180710 0.624149 0.186810 -0.099912
C15   C     C_R   0.800448 0.980010 0.757581 0.101129
C16   C     C_R   0.199552 0.480010 0.242419 0.101129
C17   C     C_3   0.786018 0.780227 0.770657 -0.415162
C18   C     C_3   0.213982 0.280227 0.229343 -0.415161
C19   C     C_3   0.715135 0.792508 0.700934 -0.396360
C20   C     C_3   0.284865 0.292508 0.299066 -0.396359
H5    H     H_    0.767811 0.752994 0.829839 0.184708
H6    H     H_    0.232189 0.252994 0.170161 0.184708
H7    H     H_    0.835800 0.692349 0.756942 0.171201
H8    H     H_    0.164199 0.192349 0.243058 0.171201
H9    H     H_    0.655920 0.772158 0.719750 0.194010
H10   H     H_    0.344080 0.272158 0.280250 0.194011
H11   H     H_    0.724171 0.711720 0.647132 0.159781
H12   H     H_    0.275829 0.211720 0.352868 0.159781
C21   C     C_R   0.331100 0.136073 0.635644 -0.106224
C22   C     C_R   0.668900 0.636073 0.364355 -0.106223
C23   C     C_R   0.166414 0.135439 0.862182 -0.134613
C24   C     C_R   0.833586 0.635439 0.137818 -0.134604
C25   C     C_R   0.276430 0.320681 0.826961 0.456535
C26   C     C_R   0.723569 0.820679 0.173039 0.456539
C27   C     C_R   0.221836 0.280873 0.878067 -0.217787
C28   C     C_R   0.778163 0.780872 0.121933 -0.217778
C29   C     C_R   0.166251 0.026339 0.793529 -0.190206
C30   C     C_R   0.833749 0.526339 0.206471 -0.190187
C31   C     C_R   0.218888 0.065725 0.738902 0.082287
C32   C     C_R   0.781112 0.565725 0.261097 0.082290
C33   C     C_R   0.275594 0.213022 0.756392 -0.004168
C34   C     C_R   0.724406 0.713022 0.243608 -0.004165
C35   C     C_R   0.330473 0.246893 0.703550 -0.159388
C36   C     C_R   0.669527 0.746892 0.296449 -0.159386
C37   C     C_R   0.273884 0.994781 0.618031 -0.177666
C38   C     C_R   0.726116 0.494781 0.381969 -0.177667
C39   C     C_R   0.216950 0.960374 0.667436 0.056524
C40   C     C_R   0.783049 0.460374 0.332563 0.056520
H13   H     H_    0.375317 0.354307 0.715936 0.201767
H14   H     H_    0.624682 0.854306 0.284064 0.201766
H15   H     H_    0.273020 0.911105 0.564457 0.112270
H16   H     H_    0.726980 0.411105 0.435543 0.112271
H17   H     H_    0.222101 0.365014 0.931243 0.183692
H18   H     H_    0.777899 0.865012 0.068756 0.183690
H19   H     H_    0.123458 0.914129 0.782266 0.145307
H20   H     H_    0.876543 0.414130 0.217734 0.145304
O11   O     O_R   0.920630 0.775410 0.061150 -0.536799
O12   O     O_R   0.079370 0.275410 0.938850 -0.536799
O13   O     O_R   0.086500 0.441450 0.093690 -0.540384
O14   O     O_R   0.913500 0.941450 0.906310 -0.540383
C41   C     C_R   0.113978 0.610319 0.116304 0.693287
C42   C     C_R   0.886022 0.110319 0.883696 0.693289
O15   O     O_R   0.921670 0.445960 0.070740 -0.532829
O16   O     O_R   0.078330 0.945960 0.929260 -0.532832
O17   O     O_R   0.913380 0.271130 0.915780 -0.539162
O18   O     O_R   0.086620 0.771130 0.084220 -0.539163
C43   C     C_R   0.896025 0.615438 0.086315 0.713144
C44   C     C_R   0.103975 0.115438 0.913686 0.713144
O19   O     O_3   0.997500 0.603030 0.949220 -0.376883
O20   O     O_3   0.002500 0.103030 0.050780 -0.376883
V3    V     V_3+5 0.000470 0.329940 0.009420 1.431100
V4    V     V_3+5 0.999530 0.829940 0.990580 1.431095
C45   C     C_R   0.155736 0.815155 0.641307 0.083075
C46   C     C_R   0.073536 0.860688 0.623474 -0.173965
C47   C     C_R   0.016105 0.724477 0.597100 -0.117146
C48   C     C_R   0.040261 0.542422 0.587703 -0.101504
C49   C     C_R   0.121931 0.496452 0.604132 -0.144450
C50   C     C_R   0.179556 0.632348 0.630280 -0.087029
H21   H     H_    0.054089 0.001620 0.629721 0.107935
H22   H     H_    0.952884 0.760251 0.583625 0.110285
H23   H     H_    0.995737 0.437205 0.567301 0.115394
H24   H     H_    0.140619 0.355680 0.596277 0.112417
H25   H     H_    0.242627 0.595148 0.641840 0.147629
C51   C     C_R   0.844264 0.315154 0.358693 0.083075
C52   C     C_R   0.926463 0.360687 0.376527 -0.173966
C53   C     C_R   0.983895 0.224475 0.402901 -0.117146
C54   C     C_R   0.959738 0.042420 0.412296 -0.101503
C55   C     C_R   0.878068 0.996450 0.395866 -0.144452
C56   C     C_R   0.820443 0.132347 0.369718 -0.087029
H26   H     H_    0.945911 0.501619 0.370281 0.107934
H27   H     H_    0.047116 0.260249 0.416377 0.110284
H28   H     H_    0.004262 0.937202 0.432699 0.115393
H29   H     H_    0.859380 0.855678 0.403720 0.112416
H30   H     H_    0.757372 0.095147 0.358157 0.147628
S1    S     S_3+6 0.344194 0.507104 0.854065 -0.005534
O21   O     O_2   0.429036 0.435246 0.867624 -0.311468
O22   O     O_2   0.333550 0.646976 0.787072 -0.359006
O23   O     O_3   0.327399 0.609882 0.939106 -0.502952
H31   H     H_    0.364124 0.717574 0.946589 0.388334
S2    S     S_3+6 0.655804 0.007098 0.145933 -0.005531
O24   O     O_2   0.570962 0.935235 0.132375 -0.311485
O25   O     O_2   0.666446 0.146975 0.212924 -0.358981
O26   O     O_3   0.672597 0.109876 0.060891 -0.502957
H32   H     H_    0.635830 0.217492 0.053377 0.388346

loop_
_geom_bond_atom_site_label_1
_geom_bond_atom_site_label_2
_ccdc_geom_bond_type
O15   C43   A    
C56   H30   S    
C49   C50   A    
C2    C21   S    
C20   H10   S    
S1    O21   D    
O1    C3    A    
O16   C44   A    
O2    C4    A    
C2    O7    A    
O15   V3    S    
O23   H31   S    
C46   H21   S    
C24   C30   A    
C51   C56   A    
C17   H7    S    
C22   C38   A    
C18   H8    S    
C50   H25   S    
C7    C9    A    
O14   C42   A    
C55   H29   S    
C33   C35   A    
C34   C36   A    
C25   C33   A    
S2    O24   D    
C45   C50   A    
C37   C39   A    
C48   C49   A    
C38   C40   A    
C17   C19   S    
C47   H22   S    
C14   C41   S    
C13   C42   S    
S2    O25   D    
C25   C27   A    
C31   C39   A    
C26   C28   A    
C32   C40   A    
C54   H28   S    
O12   V3    S    
C19   H11   S    
O14   V4    S    
C6    C8    A    
C23   C29   A    
O5    V1    S    
C36   H14   S    
O6    V2    S    
C55   C56   A    
C48   H23   S    
C29   C31   A    
C11   C13   A    
C30   C32   A    
C3    C8    S    
C26   C34   A    
C52   C53   A    
O4    C2    A    
C47   C48   A    
O20   V3    S    
C23   C27   A    
C17   H5    S    
C16   C18   S    
O4    V2    S    
O5    C3    A    
O11   V4    S    
C37   H15   S    
C40   C51   S    
O6    C4    A    
C39   C45   S    
C26   S2    S    
C15   C17   S    
C53   H27   S    
S1    O22   D    
O1    V2    S    
C23   C44   S    
O2    V1    S    
O13   C41   A    
O17   V3    S    
O13   V3    S    
C8    C10   A    
C12   C14   A    
C31   C33   A    
C5    C15   A    
C10   H2    S    
C20   H12   S    
C6    C16   A    
C29   H19   S    
O3    V1    S    
O19   V4    S    
C52   H26   S    
C9    C11   A    
C21   C35   A    
C22   C36   A    
C18   H6    S    
O12   C44   A    
O3    C1    A    
O26   H32   S    
S2    O26   S    
C38   H16   S    
C11   H3    S    
C27   H17   S    
C1    C22   S    
C12   H4    S    
C24   C43   S    
C25   S1    S    
C9    H1    S    
O7    V1    S    
C1    O8    A    
C13   C15   A    
O8    V2    S    
C35   H13   S    
C14   C16   A    
C42   O17   A    
C46   C47   A    
C41   O18   A    
O18   V4    S    
C4    C7    S    
C21   C37   A    
C51   C52   A    
C5    C7    A    
C32   C34   A    
S1    O23   S    
C18   C20   S    
C53   C54   A    
C19   H9    S    
C28   H18   S    
C24   C28   A    
C30   H20   S    
O16   V4    S    
C10   C12   A    
O9    V2    S    
C54   C55   A    
O10   V1    S    
C5    C19   S    
C45   C46   A    
C6    C20   S    
C49   H24   S    
O11   C43   A    
