data_mof_unit_10631.cif
_audit_creation_date              2013-03-05T16:45:32-0500
_audit_creation_method            fapswitch 2.2
_symmetry_space_group_name_H-M    P1
_symmetry_Int_Tables_number       1
_space_group_crystal_system       triclinic
_cell_length_a                    15.79199
_cell_length_b                    10.664798
_cell_length_c                    9.940825
_cell_angle_alpha                 90.400554
_cell_angle_beta                  87.72142
_cell_angle_gamma                 90.158886
_cell_volume                      1672.84782362

loop_
_atom_site_label
_atom_site_type_symbol
_atom_site_description
_atom_site_fract_x
_atom_site_fract_y
_atom_site_fract_z
_atom_type_partial_charge
O1    O     O_R   0.500010 0.316790 0.614690 -0.601078
O2    O     O_R   0.500000 0.316760 0.385350 -0.620500
C1    C     C_R   0.507173 0.260231 0.498432 0.864319
O3    O     O_R   0.378030 0.499990 0.614640 -0.582012
O4    O     O_R   0.378020 0.499950 0.385300 -0.619389
C2    C     C_R   0.339475 0.500077 0.502239 0.907849
Zn1   Zn    Zn3+2 0.500010 0.500020 0.653130 0.995235
Zn2   Zn    Zn3+2 0.499990 0.499980 0.346870 0.943193
O5    O     O_R   0.500000 0.683240 0.614650 -0.609703
O6    O     O_R   0.499990 0.683210 0.385310 -0.631929
O7    O     O_R   0.621980 0.500050 0.614700 -0.616939
O8    O     O_R   0.621970 0.500010 0.385360 -0.630127
C3    C     C_R   0.503259 0.739915 0.500118 0.890680
C4    C     C_R   0.660524 0.500076 0.497682 0.893240
H1    H     H_    0.068700 0.511512 0.719738 0.192823
C5    C     C_R   0.951068 0.507400 0.619665 -0.185782
H2    H     H_    0.913079 0.511242 0.712847 0.148744
C6    C     C_R   0.913049 0.502069 0.495299 0.168120
C7    C     C_R   0.961288 0.497083 0.374740 -0.171414
H3    H     H_    0.931247 0.492972 0.278639 0.145193
C8    C     C_R   0.048940 0.497164 0.378679 -0.181140
H4    H     H_    0.086945 0.493095 0.285519 0.158271
C9    C     C_R   0.086948 0.502274 0.503079 0.143881
C10   C     C_R   0.038697 0.507525 0.623606 -0.131767
C11   C     C_1   0.824173 0.501249 0.492137 -0.067778
C12   C     C_1   0.175816 0.501686 0.506516 -0.012652
C13   C     C_1   0.250846 0.500957 0.506546 -0.106161
C14   C     C_1   0.749137 0.500585 0.492805 -0.180047
C15   C     C_R   0.533823 0.064914 0.615660 0.078053
C16   C     C_R   0.528663 0.129117 0.494208 -0.178356
C17   C     C_R   0.544949 0.061089 0.371461 0.127274
C18   C     C_R   0.539114 0.930853 0.376111 -0.258093
H5    H     H_    0.544401 0.877292 0.283181 0.167590
C19   C     C_R   0.521215 0.870721 0.498660 -0.129041
C20   C     C_R   0.529188 0.937277 0.617670 0.097799
C21   C     C_3   0.480554 0.933283 0.749468 -0.535162
C22   C     C_3   0.487210 0.075841 0.749599 0.152560
H6    H     H_    0.414615 0.898670 0.739225 0.191860
H7    H     H_    0.516470 0.886392 0.828815 0.234101
H8    H     H_    0.425093 0.124530 0.746475 0.105997
C23   C     C_R   0.425744 0.500544 0.075962 0.158697
N1    N     N_R   0.499440 0.499140 0.142800 -0.113723
C24   C     C_R   0.574303 0.511326 0.062919 0.197756
C25   C     C_R   0.572722 0.511459 0.920625 -0.084697
H9    H     H_    0.630791 0.519655 0.860111 0.157080
N2    N     N_R   0.499440 0.499180 0.857150 -0.131603
C26   C     C_R   0.425633 0.501774 0.933999 0.154224
C27   C     C_3   0.355622 0.406964 0.933021 0.128085
C28   C     C_3   0.356720 0.405048 0.086200 -0.525187
H10   H     H_    0.373827 0.316671 0.883686 0.149020
H11   H     H_    0.298409 0.442818 0.137951 0.227902
H12   H     H_    0.378904 0.314415 0.126562 0.200674
N3    N     N_R   0.542091 0.123864 0.853679 0.233436
O9    O     O_R   0.618737 0.081312 0.864390 -0.405230
O10   O     O_R   0.514897 0.211938 0.935161 -0.473547
C29   C     C_3   0.662439 0.522684 0.115781 -0.354831
C30   C     C_3   0.680759 0.655204 0.166582 -0.801723
H13   H     H_    0.683103 0.721549 0.080800 0.239722
H14   H     H_    0.631385 0.687896 0.240259 0.284106
H15   H     H_    0.743017 0.657053 0.214730 0.242789
H16   H     H_    0.676060 0.446594 0.185419 0.226562
H17   H     H_    0.711349 0.504296 0.034421 0.167223
N4    N     N_R   0.276902 0.458581 0.884050 0.229170
O11   O     O_R   0.251845 0.570953 0.918461 -0.402085
O12   O     O_R   0.229405 0.389430 0.809386 -0.414422
C31   C     C_3   0.567231 0.118941 0.235273 -0.298700
C32   C     C_3   0.654302 0.181228 0.234642 -0.785160
H18   H     H_    0.668645 0.223324 0.134456 0.266852
H19   H     H_    0.656651 0.255442 0.313021 0.247177
H20   H     H_    0.703633 0.110273 0.254074 0.250722
H21   H     H_    0.570119 0.045894 0.154844 0.223564
H22   H     H_    0.517790 0.184399 0.203277 0.248432

loop_
_geom_bond_atom_site_label_1
_geom_bond_atom_site_label_2
_geom_bond_distance
_ccdc_geom_bond_type
C17   C31   1.519842 S    
O2    Zn2   1.993718 S    
C24   C25   1.415740 A    
N4    O12   1.300358 A    
C4    C14   1.398283 S    
C15   C16   1.397434 A    
C29   H16   1.097569 S    
C1    C16   1.439747 S    
C23   N1    1.363024 A    
C15   C20   1.363232 A    
C17   C18   1.392706 A    
C2    C13   1.398647 S    
O8    C4    1.292856 A    
Zn2   O8    1.978803 S    
C32   H20   1.110910 S    
C22   N3    1.464698 S    
C18   H5    1.083245 S    
C28   H12   1.111972 S    
C7    H3    1.083957 S    
C27   H10   1.110943 S    
C31   C32   1.525216 S    
C23   C26   1.411451 A    
C3    C19   1.422837 S    
C5    C10   1.385950 A    
C5    C6    1.396415 A    
H1    C10   1.083897 S    
C8    H4    1.084032 S    
C29   C30   1.528243 S    
C11   C14   1.184719 T    
Zn1   O7    1.948711 S    
C32   H19   1.108334 S    
C30   H13   1.111290 S    
O4    C2    1.290569 A    
C6    C11   1.405146 S    
O3    Zn1   1.978803 S    
O1    Zn1   1.988498 S    
C30   H15   1.110530 S    
C21   H6    1.112076 S    
C27   C28   1.523798 S    
C7    C8    1.386300 A    
Zn2   N1    2.028945 S    
O6    C3    1.290649 A    
C19   C20   1.385246 A    
C22   H8    1.112815 S    
O2    C1    1.288381 A    
N3    O10   1.298743 A    
C8    C9    1.396573 A    
C12   C13   1.184921 T    
C16   C17   1.430070 A    
O7    C4    1.291264 A    
C29   H17   1.112699 S    
C30   H14   1.103845 S    
O4    Zn2   1.948711 S    
C5    H2    1.083992 S    
N1    C24   1.403956 A    
C9    C10   1.394991 A    
O3    C2    1.293566 A    
C32   H18   1.110180 S    
Zn1   N2    2.027871 S    
C24   C29   1.511416 S    
C26   C27   1.496460 S    
C25   H9    1.080208 S    
Zn2   O6    1.988499 S    
C6    C7    1.395061 A    
C9    C12   1.405211 S    
C15   C22   1.499534 S    
Zn1   O5    1.993720 S    
O5    C3    1.291918 A    
N2    C26   1.368205 A    
C21   C22   1.523693 S    
C27   N4    1.463245 S    
O1    C1    1.300970 A    
N3    O9    1.302415 A    
C23   C28   1.490718 S    
C21   H7    1.112021 S    
C31   H22   1.106344 S    
C31   H21   1.112114 S    
C25   N2    1.345608 A    
N4    O11   1.302286 A    
C28   H11   1.111914 S    
C20   C21   1.492938 S    
C18   C19   1.399215 A    
