data_mof_unit_34529.cif
_audit_creation_date              2012-12-11T14:56:46-0500
_audit_creation_method            fapswitch 2.2
_symmetry_space_group_name_H-M    P1
_symmetry_Int_Tables_number       1
_space_group_crystal_system       triclinic
_cell_length_a                    10.529493
_cell_length_b                    10.664283
_cell_length_c                    17.080497
_cell_angle_alpha                 80.276288
_cell_angle_beta                  89.910572
_cell_angle_gamma                 119.285241
_cell_volume                      1640.87983195

loop_
_atom_site_label
_atom_site_type_symbol
_atom_type_description
_atom_site_fract_x
_atom_site_fract_y
_atom_site_fract_z
_atom_type_partial_charge
C1    C     C_R   0.223343 0.854685 0.128913 0.581205
C2    C     C_1   0.684678 0.401534 0.709906 0.019231
C3    C     C_R   0.611691 0.709504 0.806971 -0.103597
C4    C     C_R   0.638576 0.283181 0.085377 0.553068
C5    C     C_R   0.586064 0.695904 0.729390 0.212818
C6    C     C_R   0.668522 0.818618 0.667567 0.006884
C7    C     C_R   0.771061 0.953006 0.686148 -0.158069
C8    C     C_R   0.786624 0.969334 0.764853 0.047789
C9    C     C_R   0.697532 0.847799 0.825740 -0.022946
C10   C     C_R   0.102095 0.900535 0.786456 -0.165174
C11   C     C_R   0.093299 0.901357 0.706571 -0.135589
C12   C     C_R   0.825492 0.474078 0.249798 -0.106226
C13   C     C_R   0.117649 0.803852 0.671858 -0.023114
C14   C     C_R   0.139153 0.697155 0.719568 -0.094267
C15   C     C_R   0.151474 0.697687 0.800479 0.232029
C16   C     C_R   0.601309 0.881771 0.131018 0.537357
C17   C     C_R   0.143889 0.808408 0.832616 0.023875
C18   C     C_R   0.683299 0.813181 0.358541 0.545502
C19   C     C_R   0.726276 0.458339 0.383143 0.558708
C20   C     C_R   0.104984 0.810833 0.359490 0.547489
C21   C     C_R   0.678082 0.797659 0.586921 0.552596
C22   C     C_R   0.717307 0.445988 0.626018 0.564827
C23   C     C_R   0.807415 0.442336 0.173750 0.224966
C24   C     C_R   0.090643 0.798926 0.589412 0.550256
C25   C     C_R   0.214389 0.856655 0.903059 0.584427
C26   C     C_R   0.640220 0.290567 0.861858 0.556716
C27   C     C_R   0.649378 0.866212 0.900298 0.558509
C28   C     C_R   0.543729 0.332348 0.201282 -0.166034
C29   C     C_R   0.563269 0.368339 0.276299 -0.130686
C30   C     C_R   0.703784 0.432159 0.302240 -0.016547
C31   C     C_R   0.664549 0.361455 0.151229 0.034549
C32   C     C_1   0.635116 0.871482 0.211233 -0.024753
C33   C     C_1   0.661674 0.855585 0.278962 -0.023451
C34   C     C_1   0.182477 0.826742 0.211560 -0.027598
C35   C     C_1   0.153406 0.820940 0.280184 -0.048998
C36   C     C_1   0.661824 0.357519 0.780426 0.016256
Cl1   Cl    Cl    0.178705 0.559837 0.857177 -0.480512
Cl2   Cl    Cl    0.966802 0.502022 0.110360 -0.553938
Cl3   Cl    Cl    0.443565 0.522948 0.716414 -0.536637
Cr1   Cr    Cr6+3 0.402240 0.783890 0.019450 1.134233
Cr2   Cr    Cr6+3 0.382360 0.097900 0.991800 1.073835
Cr3   Cr    Cr6+3 0.715380 0.118170 0.988700 1.132175
Cr4   Cr    Cr6+3 0.936650 0.882420 0.465510 1.033694
Cr5   Cr    Cr6+3 0.605770 0.565620 0.493360 1.081076
Cr6   Cr    Cr6+3 0.921340 0.550490 0.496380 1.043723
H1    H     H_    0.433183 0.272266 0.185038 0.155686
H2    H     H_    0.066896 0.979253 0.672223 0.173407
H3    H     H_    0.147241 0.614628 0.694041 0.194268
H4    H     H_    0.467657 0.338549 0.315356 0.159882
H5    H     H_    0.934511 0.528682 0.268710 0.148679
H6    H     H_    0.547347 0.613972 0.853475 0.192884
H7    H     H_    0.840251 0.045493 0.639196 0.161236
H8    H     H_    0.089049 0.981762 0.810345 0.184531
I1    I     I_    0.947205 0.180648 0.782676 -0.224468
O1    O     O_R   0.521780 0.757110 0.108900 -0.495467
O2    O     O_R   0.805020 0.410040 0.421340 -0.496096
O3    O     O_R   0.049240 0.685450 0.403290 -0.514316
O4    O     O_R   0.275160 0.783810 0.101120 -0.466910
O5    O     O_R   0.077520 0.903010 0.551800 -0.511864
O6    O     O_R   0.802980 0.872780 0.546830 -0.521230
O7    O     O_R   0.578090 0.681300 0.569920 -0.451858
O8    O     O_R   0.608530 0.436370 0.586530 -0.446289
O9    O     O_R   0.798770 0.401880 0.597100 -0.494507
O10   O     O_R   0.043450 0.677890 0.566230 -0.514280
O11   O     O_3   0.821250 0.666180 0.485090 -0.314003
O12   O     O_R   0.513330 0.228330 0.898660 -0.482602
O13   O     O_R   0.237900 0.972600 0.090980 -0.509273
O14   O     O_R   0.511190 0.220540 0.061620 -0.525476
O15   O     O_R   0.736920 0.257720 0.063840 -0.448039
O16   O     O_R   0.710450 0.984050 0.081720 -0.482256
O17   O     O_R   0.524090 0.765520 0.933110 -0.487771
O18   O     O_R   0.277300 0.791600 0.938160 -0.425229
O19   O     O_R   0.240210 0.981010 0.915190 -0.511406
O20   O     O_R   0.739230 0.266130 0.888050 -0.460928
O21   O     O_R   0.712580 0.991850 0.918770 -0.467486
O22   O     O_3   0.499990 0.999980 0.999980 -0.315779
O23   O     O_R   0.083770 0.911170 0.376030 -0.494889
O24   O     O_R   0.808770 0.880340 0.383890 -0.488099
O25   O     O_R   0.584340 0.689460 0.394160 -0.515493
O26   O     O_R   0.614320 0.443940 0.423590 -0.494214

loop_
_geom_bond_atom_site_label_1
_geom_bond_atom_site_label_2
_ccdc_geom_bond_type
C19   O2    A    
Cr1   O17   S    
C11   H2    S    
C7    C8    A    
Cr2   O13   S    
C29   H4    S    
Cr4   O24   S    
C12   C23   A    
Cr6   O3    S    
Cr3   O21   S    
C20   O23   A    
C28   C29   A    
C7    H7    S    
C5    C6    A    
C10   C17   A    
Cr3   O16   S    
C34   C35   T    
C10   H8    S    
C15   Cl1   S    
C1    O13   A    
C22   O9    A    
C20   C35   S    
Cr6   O2    S    
C18   O25   A    
C2    C22   S    
C21   O7    A    
Cr4   O5    S    
C24   O10   A    
C13   C14   A    
Cr5   O11   S    
C27   O21   A    
C4    O15   A    
C1    C34   S    
Cr2   O14   S    
Cr5   O25   S    
Cr3   O20   S    
Cr1   O4    S    
C26   O12   A    
Cr5   O26   S    
C16   O16   A    
C21   O6    A    
C8    I1    S    
C4    O14   A    
C3    H6    S    
C8    C9    A    
C14   H3    S    
Cr5   O8    S    
C6    C21   S    
Cr6   O9    S    
Cr3   O15   S    
Cr1   O22   S    
C13   C24   S    
C23   C31   A    
C29   C30   A    
C3    C9    A    
C22   O8    A    
Cr4   O11   S    
Cr1   O1    S    
C28   H1    S    
C25   O18   A    
Cr2   O12   S    
Cr4   O6    S    
C26   C36   S    
C18   O24   A    
C5    Cl3   S    
Cr6   O11   S    
C16   C32   S    
C27   O17   A    
C9    C27   S    
C2    C36   T    
C15   C17   A    
Cr1   O18   S    
C12   C30   A    
C28   C31   A    
C3    C5    A    
C12   H5    S    
C6    C7    A    
Cr5   O7    S    
Cr4   O23   S    
C23   Cl2   S    
Cr6   O10   S    
Cr3   O22   S    
C17   C25   S    
C32   C33   T    
C16   O1    A    
C1    O4    A    
Cr2   O22   S    
C11   C13   A    
C24   O5    A    
C26   O20   A    
C25   O19   A    
C19   O26   A    
C18   C33   S    
C4    C31   S    
C10   C11   A    
Cr2   O19   S    
C14   C15   A    
C20   O3    A    
C19   C30   S    
