data_mof_unit_20502.cif
_audit_creation_date              2012-12-10T19:42:33-0500
_audit_creation_method            fapswitch 2.2
_symmetry_space_group_name_H-M    P1
_symmetry_Int_Tables_number       1
_space_group_crystal_system       triclinic
_cell_length_a                    10.926521
_cell_length_b                    10.925357
_cell_length_c                    9.875617
_cell_angle_alpha                 99.096384
_cell_angle_beta                  98.080069
_cell_angle_gamma                 93.602862
_cell_volume                      1148.15952161

loop_
_atom_site_label
_atom_site_type_symbol
_atom_type_description
_atom_site_fract_x
_atom_site_fract_y
_atom_site_fract_z
_atom_type_partial_charge
C1    C     C_R   0.499462 0.262055 0.499012 0.785680
C2    C     C_R   0.500543 0.737945 0.500987 0.785693
C3    C     C_R   0.871750 0.496001 0.501306 -0.096824
C4    C     C_R   0.128246 0.503969 0.498689 -0.096814
C5    C     C_R   0.954147 0.489135 0.623486 0.013255
C6    C     C_R   0.045847 0.510824 0.376505 0.013272
C7    C     C_R   0.294894 0.078074 0.021725 -0.107290
C8    C     C_R   0.705180 0.921951 0.978244 -0.107306
C9    C     C_R   0.318176 0.049501 0.156469 -0.014727
C10   C     C_R   0.681877 0.950499 0.843492 -0.014736
C11   C     C_R   0.440129 0.074092 0.231437 0.045978
C12   C     C_R   0.559912 0.925915 0.768557 0.045970
C13   C     C_R   0.534695 0.127117 0.170244 -0.039047
C14   C     C_R   0.465359 0.872911 0.829783 -0.039040
C15   C     C_R   0.508475 0.159055 0.038597 -0.125159
C16   C     C_R   0.491601 0.840990 0.961434 -0.125221
C17   C     C_R   0.388909 0.134164 0.964264 -0.211966
C18   C     C_R   0.611176 0.865884 0.035741 -0.211918
C19   C     C_R   0.473143 0.914005 0.377222 -0.266255
C20   C     C_R   0.526875 0.085996 0.622775 -0.266248
C21   C     C_R   0.500398 0.872310 0.503885 -0.077833
C22   C     C_R   0.499613 0.127690 0.496112 -0.077828
C23   C     C_R   0.262398 0.502095 0.500151 0.790574
C24   C     C_R   0.737600 0.497895 0.499848 0.790580
C25   C     C_R   0.527895 0.959943 0.628877 -0.010931
C26   C     C_R   0.472121 0.040058 0.371119 -0.010930
C27   C     C_2   0.508016 0.512867 0.078583 -0.094362
C28   C     C_2   0.491990 0.487129 0.921418 -0.094363
C29   C     C_R   0.198706 0.653130 0.115515 -0.080680
C30   C     C_R   0.801297 0.346794 0.884461 -0.080678
C31   C     C_R   0.142605 0.639260 0.230377 -0.059982
C32   C     C_R   0.857389 0.360678 0.769597 -0.060041
C33   C     C_R   0.089207 0.522692 0.243837 0.074408
C34   C     C_R   0.910783 0.477253 0.756148 0.074401
C35   C     C_R   0.090909 0.417623 0.139253 0.171666
C36   C     C_R   0.909079 0.582313 0.860743 0.171587
C37   C     C_R   0.145819 0.433771 0.020139 0.053221
C38   C     C_R   0.854163 0.566153 0.979849 0.053238
C39   C     C_R   0.200604 0.551661 0.011634 -0.278407
C40   C     C_R   0.799387 0.448258 0.988348 -0.278332
C41   C     C_R   0.919068 0.505808 0.379384 -0.227681
C42   C     C_R   0.080927 0.494149 0.620606 -0.227688
Cu1   Cu    Cu3+1 0.521120 0.521140 0.639640 0.944690
Cu2   Cu    Cu3+1 0.478880 0.478860 0.360360 0.944687
H1    H     H_    0.246711 0.565804 0.924753 0.138180
H2    H     H_    0.753279 0.434107 0.075228 0.138160
H3    H     H_    0.628664 0.144822 0.225557 0.120568
H4    H     H_    0.371382 0.855209 0.774492 0.120593
H5    H     H_    0.581237 0.201770 0.993482 0.120341
H6    H     H_    0.418848 0.798291 0.006576 0.120350
H7    H     H_    0.451377 0.847997 0.281153 0.152204
H8    H     H_    0.548649 0.152005 0.718843 0.152212
H9    H     H_    0.427238 0.410524 0.866297 0.148064
H10   H     H_    0.572773 0.589469 0.133704 0.148056
H11   H     H_    0.614207 0.624818 0.904077 0.209206
H12   H     H_    0.385785 0.375189 0.095923 0.209219
H13   H     H_    0.241422 0.742946 0.107132 0.133379
H14   H     H_    0.758595 0.256970 0.892841 0.133343
H15   H     H_    0.143819 0.718952 0.311441 0.133725
H16   H     H_    0.856179 0.280991 0.688528 0.133715
H17   H     H_    0.857175 0.510721 0.286134 0.146155
H18   H     H_    0.142819 0.489219 0.713851 0.146140
H19   H     H_    0.369244 0.157141 0.861229 0.145196
H20   H     H_    0.630858 0.842924 0.138783 0.145230
H21   H     H_    0.203528 0.057273 0.960797 0.231100
H22   H     H_    0.796556 0.942744 0.039149 0.231093
N1    N     N_2   0.447120 0.447110 0.150550 -0.276649
N2    N     N_2   0.552880 0.552890 0.849450 -0.276656
O1    O     O_R   0.517830 0.337490 0.617920 -0.585660
O2    O     O_R   0.482170 0.662510 0.382080 -0.585658
O3    O     O_R   0.482150 0.301790 0.382070 -0.571078
O4    O     O_R   0.517850 0.698210 0.617930 -0.571076
O5    O     O_R   0.337480 0.517860 0.617920 -0.590751
O6    O     O_R   0.662520 0.482140 0.382080 -0.590761
O7    O     O_R   0.301810 0.482160 0.382070 -0.565021
O8    O     O_R   0.698190 0.517840 0.617930 -0.565018
C43   C     C_3   0.044076 0.289192 0.159324 -0.712384
H23   H     H_    0.015047 0.286777 0.261884 0.206931
H24   H     H_    0.962735 0.252027 0.080061 0.273378
H25   H     H_    0.119226 0.226329 0.150950 0.256256
C44   C     C_3   0.955931 0.710751 0.840707 -0.712134
H26   H     H_    0.984920 0.713181 0.738121 0.206943
H27   H     H_    0.880790 0.773643 0.849153 0.256294
H28   H     H_    0.037308 0.747881 0.919970 0.273368
C45   C     C_2   0.153567 0.330532 0.904884 0.291361
H29   H     H_    0.220635 0.339854 0.835436 0.046710
O9    O     O_2   0.083522 0.235847 0.882271 -0.517813
C46   C     C_2   0.846390 0.669392 0.095093 0.291308
H30   H     H_    0.779293 0.660076 0.164498 0.046726
O10   O     O_2   0.916436 0.764073 0.117736 -0.517844
C47   C     C_2   0.214697 0.996295 0.217977 0.280654
H31   H     H_    0.229372 0.978704 0.323816 0.093584
O11   O     O_2   0.110835 0.971874 0.151042 -0.496088
C48   C     C_2   0.785348 0.003636 0.781916 0.280808
H32   H     H_    0.770651 0.021216 0.676025 0.093513
O12   O     O_2   0.889228 0.027965 0.848812 -0.496084

loop_
_geom_bond_atom_site_label_1
_geom_bond_atom_site_label_2
_ccdc_geom_bond_type
Cu1   O5    S    
C38   C40   A    
C5    C42   A    
C8    H22   S    
Cu1   O4    S    
C46   O10   D    
C41   H17   S    
C24   O6    A    
C9    C47   S    
C44   H26   S    
C27   H10   S    
C43   H23   S    
C40   H2    S    
C1    O3    A    
C37   C45   S    
C35   C37   A    
C16   H6    S    
C47   O11   D    
C20   C25   A    
C10   C48   S    
Cu2   O3    S    
C7    C9    A    
C31   H15   S    
C19   C26   A    
Cu1   N2    S    
C7    C17   A    
C6    C41   A    
C31   C33   A    
Cu2   O2    S    
C42   H18   S    
C39   H1    S    
C45   O9    D    
C1    C22   S    
Cu1   O1    S    
C3    C24   S    
C23   O5    A    
C2    O4    A    
C44   H27   S    
H11   N2    S    
C43   H24   S    
C37   C39   A    
C29   H13   S    
C4    C6    A    
C47   H31   S    
C13   H3    S    
C4    C23   S    
C24   O8    A    
C14   H4    S    
C11   C26   S    
C45   H29   S    
C35   C43   S    
C1    O1    A    
C38   C46   S    
C32   C34   A    
Cu2   O7    S    
C48   O12   D    
Cu1   Cu2   S    
C7    H21   S    
C36   C44   S    
C29   C31   A    
C5    C34   S    
C29   C39   A    
C2    C21   S    
C30   C40   A    
Cu2   O6    S    
C9    C11   A    
C10   C12   A    
C8    C10   A    
C20   C22   A    
C13   C15   A    
C14   C16   A    
C32   H16   S    
C44   H28   S    
C43   H25   S    
Cu1   O8    S    
C15   C17   A    
C21   C25   A    
C3    C41   A    
C28   N2    D    
C23   O7    A    
C3    C5    A    
C28   H9    S    
H12   N1    S    
C6    C33   S    
C12   C25   S    
C36   C38   A    
C12   C14   A    
C20   H8    S    
C17   H19   S    
C30   C32   A    
C11   C13   A    
C18   H20   S    
C4    C42   A    
C30   H14   S    
C33   C35   A    
C34   C36   A    
C15   H5    S    
C48   H32   S    
C8    C18   A    
C27   N1    D    
C19   H7    S    
C46   H30   S    
C16   C18   A    
C22   C26   A    
C27   C28   S    
Cu2   N1    S    
C2    O2    A    
C19   C21   A    
