data_mof_unit_12484.cif
_audit_creation_date              2012-12-10T16:54:33-0500
_audit_creation_method            fapswitch 2.2
_symmetry_space_group_name_H-M    P1
_symmetry_Int_Tables_number       1
_space_group_crystal_system       triclinic
_cell_length_a                    15.048091
_cell_length_b                    10.92561
_cell_length_c                    9.773631
_cell_angle_alpha                 89.926928
_cell_angle_beta                  90.22773
_cell_angle_gamma                 90.736576
_cell_volume                      1606.73182729

loop_
_atom_site_label
_atom_site_type_symbol
_atom_type_description
_atom_site_fract_x
_atom_site_fract_y
_atom_site_fract_z
_atom_type_partial_charge
C1    C     C_R   0.498682 0.265590 0.500108 0.865280
C2    C     C_R   0.907173 0.603410 0.575913 0.089239
C3    C     C_R   0.950397 0.335809 0.350206 -0.168880
C4    C     C_R   0.043293 0.330363 0.351581 -0.020813
C5    C     C_R   0.092413 0.420753 0.425539 0.026439
C6    C     C_R   0.047082 0.513356 0.498520 0.070850
C7    C     C_R   0.095200 0.605998 0.569919 0.057031
C8    C     C_R   0.048381 0.696602 0.640601 -0.213645
C9    C     C_R   0.956336 0.695672 0.642986 -0.144123
C10   C     C_R   0.185456 0.422461 0.427612 -0.261803
C11   C     C_R   0.232919 0.511230 0.500761 -0.068107
C12   C     C_R   0.329352 0.504444 0.500047 0.843249
C13   C     C_R   0.188841 0.605478 0.570442 -0.046543
C14   C     C_2   0.497202 0.933060 0.387827 -0.149112
C15   C     C_2   0.505369 0.866588 0.502362 -0.308721
C16   C     C_2   0.501303 0.067154 0.387891 -0.121528
C17   C     C_2   0.493760 0.133413 0.502457 -0.298907
C18   C     C_2   0.456470 0.420329 0.925042 0.020498
C19   C     C_2   0.444067 0.435742 0.077632 0.042433
C20   C     C_R   0.501038 0.734412 0.500067 0.828473
C21   C     C_R   0.670786 0.502900 0.500206 0.768558
C22   C     C_R   0.813121 0.599801 0.579594 -0.050542
C23   C     C_R   0.767354 0.510967 0.500626 -0.118226
C24   C     C_R   0.813346 0.426205 0.422557 -0.220970
C25   C     C_R   0.905697 0.425322 0.423745 0.061367
C26   C     C_R   0.953322 0.513886 0.499739 0.049568
Cu1   Cu    Cu3+1 0.500020 0.500020 0.638630 1.020949
Cu2   Cu    Cu3+1 0.499980 0.499980 0.361370 0.980885
H1    H     H_    0.509590 0.112016 0.289423 0.195789
H2    H     H_    0.481891 0.092091 0.601477 0.152991
H3    H     H_    0.558771 0.523305 0.109707 0.187076
H4    H     H_    0.082270 0.769024 0.696257 0.158749
H5    H     H_    0.924786 0.769552 0.696759 0.196767
H6    H     H_    0.488766 0.888372 0.289307 0.194196
N1    N     N_2   0.499020 0.498660 0.846910 -0.272165
N2    N     N_2   0.499000 0.498630 0.153040 -0.294535
O1    O     O_R   0.500020 0.321960 0.617040 -0.586425
O2    O     O_R   0.499980 0.321920 0.382900 -0.554071
O3    O     O_R   0.370270 0.499990 0.617090 -0.476685
O4    O     O_R   0.370240 0.499950 0.382940 -0.607328
O5    O     O_R   0.500020 0.678080 0.617100 -0.586013
O6    O     O_R   0.499980 0.678040 0.382960 -0.567828
O7    O     O_R   0.629760 0.500050 0.617060 -0.596475
O8    O     O_R   0.629730 0.500010 0.382910 -0.582750
C27   C     C_2   0.761258 0.688627 0.661484 0.352041
H7    H     H_    0.702562 0.730306 0.617612 0.056923
O9    O     O_2   0.780521 0.710392 0.780523 -0.545188
H8    H     H_    0.517360 0.907769 0.601443 0.157871
C28   C     C_2   0.418394 0.307182 0.865604 0.476587
H9    H     H_    0.445373 0.219300 0.894874 0.046469
O10   O     O_2   0.353248 0.310638 0.791139 -0.509063
C29   C     C_2   0.514387 0.620684 0.894280 0.605173
H10   H     H_    0.576709 0.666611 0.870129 0.047835
O11   O     O_2   0.456142 0.677592 0.952285 -0.530381
C30   C     C_2   0.366064 0.375723 0.140406 0.473334
H11   H     H_    0.305146 0.426435 0.152943 0.078879
O12   O     O_2   0.368641 0.268322 0.174410 -0.579329
H12   H     H_    0.776582 0.358122 0.363672 0.149195
H13   H     H_    0.912116 0.267677 0.293851 0.185080
C31   C     C_2   0.085906 0.227892 0.276775 0.386479
H14   H     H_    0.152839 0.199344 0.300055 0.088532
O13   O     O_2   0.045319 0.171467 0.188069 -0.520368
H15   H     H_    0.223211 0.355195 0.372873 0.143570
C32   C     C_2   0.239705 0.708190 0.634533 0.335035
H16   H     H_    0.226876 0.801549 0.602803 0.068685
O14   O     O_2   0.292577 0.690079 0.727082 -0.461548

loop_
_geom_bond_atom_site_label_1
_geom_bond_atom_site_label_2
_ccdc_geom_bond_type
C12   O4    A    
C7    C13   A    
C20   O6    A    
C23   C24   A    
C14   H6    S    
C6    C7    A    
Cu2   O2    S    
C8    C9    A    
C21   O8    A    
C18   N1    D    
Cu1   O5    S    
C1    C17   S    
C10   H15   S    
C14   C15   D    
C1    O1    A    
C11   C12   S    
C32   H16   S    
C4    C31   S    
C12   O3    A    
C21   C23   S    
C20   O5    A    
C16   H1    S    
C5    C10   A    
C2    C26   A    
C2    C22   A    
C24   C25   A    
C9    H5    S    
C17   H2    S    
C11   C13   A    
C6    C26   A    
C13   C32   S    
C15   H8    S    
Cu1   O1    S    
C1    O2    A    
C31   O13   D    
C29   O11   D    
C28   H9    S    
C19   N2    D    
C30   O12   D    
C5    C6    A    
C14   C16   S    
C30   H11   S    
C16   C17   D    
C10   C11   A    
Cu2   O4    S    
C3    C4    A    
C8    H4    S    
C27   H7    S    
C7    C8    A    
C3    C25   A    
C22   C27   S    
C29   H10   S    
Cu2   N2    S    
Cu2   O8    S    
C24   H12   S    
C18   C19   S    
C27   O9    D    
C19   C30   S    
N1    C29   S    
Cu1   O7    S    
C3    H13   S    
H3    N2    S    
C4    C5    A    
Cu2   O6    S    
Cu1   N1    S    
C25   C26   A    
C21   O7    A    
C2    C9    A    
C15   C20   S    
C22   C23   A    
C28   O10   D    
C18   C28   S    
Cu1   O3    S    
C31   H14   S    
Cu1   Cu2   S    
C32   O14   D    
