data_mof_unit_34507.cif
_audit_creation_date              2012-12-11T14:45:54-0500
_audit_creation_method            fapswitch 2.2
_symmetry_space_group_name_H-M    P1
_symmetry_Int_Tables_number       1
_space_group_crystal_system       triclinic
_cell_length_a                    10.899316
_cell_length_b                    10.909723
_cell_length_c                    18.800289
_cell_angle_alpha                 89.895796
_cell_angle_beta                  89.99709
_cell_angle_gamma                 119.513624
_cell_volume                      1945.42660767

loop_
_atom_site_label
_atom_site_type_symbol
_atom_type_description
_atom_site_fract_x
_atom_site_fract_y
_atom_site_fract_z
_atom_type_partial_charge
C1    C     C_R   0.865058 0.636705 0.603693 0.554327
C2    C     C_R   0.426631 0.632552 0.776545 0.382684
C3    C     C_R   0.404071 0.623425 0.704524 -0.111507
C4    C     C_R   0.316209 0.668862 0.676133 -0.035589
C5    C     C_R   0.836172 0.162634 0.821237 0.002610
C6    C     C_R   0.087465 0.234449 0.826378 -0.002530
C7    C     C_R   0.210455 0.255750 0.793018 0.427808
C8    C     C_R   0.209982 0.230400 0.720494 -0.051202
C9    C     C_R   0.088093 0.189664 0.680506 -0.121105
C10   C     C_R   0.964426 0.176702 0.712211 0.007406
C11   C     C_R   0.962117 0.189856 0.787182 -0.014172
C12   C     C_R   0.268389 0.631557 0.604138 0.562489
C13   C     C_R   0.715397 0.109600 0.706623 -0.074062
C14   C     C_R   0.718780 0.144254 0.778719 0.007590
C15   C     C_R   0.586790 0.052069 0.668821 -0.046961
C16   C     C_R   0.470848 0.054999 0.697499 0.349252
C17   C     C_R   0.480268 0.110939 0.764745 0.010364
C18   C     C_R   0.603241 0.158317 0.804689 0.380388
C19   C     C_R   0.843280 0.150111 0.671445 -0.020781
C20   C     C_R   0.735708 0.531241 0.715893 0.361521
C21   C     C_R   0.731512 0.543890 0.789098 -0.059477
C22   C     C_R   0.810759 0.675161 0.820736 -0.004698
C23   C     C_R   0.861343 0.221625 0.601678 0.534084
C24   C     C_R   0.892239 0.795337 0.778214 0.344719
C25   C     C_R   0.894944 0.783306 0.705847 -0.157340
C26   C     C_R   0.822371 0.651276 0.674409 -0.043720
C27   C     C_R   0.214783 0.512668 0.269043 -0.115955
C28   C     C_R   0.249384 0.536365 0.197601 -0.108670
C29   C     C_R   0.313570 0.674017 0.169732 0.051090
C30   C     C_R   0.326950 0.784488 0.212527 -0.075903
C31   C     C_R   0.293531 0.761001 0.284547 -0.124658
C32   C     C_R   0.241521 0.625281 0.313531 0.024007
C33   C     C_R   0.701794 0.112096 0.295655 -0.114033
C34   C     C_R   0.868331 0.637871 0.396255 0.568629
C35   C     C_R   0.683370 0.076939 0.224684 -0.131759
C36   C     C_R   0.789611 0.070915 0.186149 0.020760
C37   C     C_R   0.912461 0.091673 0.221257 -0.132098
C38   C     C_R   0.933375 0.131963 0.292758 -0.146636
C39   C     C_R   0.830381 0.148839 0.329256 0.026497
C40   C     C_R   0.960820 0.729205 0.278973 -0.160615
C41   C     C_R   0.949317 0.726228 0.206339 0.347235
C42   C     C_R   0.816001 0.652204 0.174930 -0.021655
C43   C     C_R   0.696791 0.567814 0.217004 -0.155262
C44   C     C_R   0.710203 0.564878 0.290477 0.352986
C45   C     C_R   0.208837 0.597358 0.389100 0.551151
C46   C     C_R   0.842314 0.649416 0.321742 -0.018186
C47   C     C_R   0.806900 0.105838 0.895070 0.563349
C48   C     C_R   0.398081 0.702012 0.895767 0.563321
C49   C     C_R   0.796111 0.695615 0.895676 0.588853
C50   C     C_R   0.767444 0.041927 0.109959 0.544577
C51   C     C_R   0.390514 0.702351 0.102456 0.532138
C52   C     C_R   0.798035 0.692787 0.103962 0.562625
C53   C     C_R   0.860333 0.225205 0.396688 0.526669
C54   C     C_R   0.253635 0.727587 0.720081 -0.119489
C55   C     C_R   0.280721 0.741589 0.792611 -0.218475
C56   C     C_R   0.364613 0.690495 0.821065 0.024667
Cr1   Cr    Cr6+3 0.791660 0.390250 0.499930 1.125292
Cr2   Cr    Cr6+3 0.098520 0.708290 0.500540 1.060262
Cr3   Cr    Cr6+3 0.109770 0.401430 0.499480 1.036930
Cr4   Cr    Cr6+3 0.874790 0.925890 0.000070 1.105911
Cr5   Cr    Cr6+3 0.574120 0.948670 0.999300 1.092013
Cr6   Cr    Cr6+3 0.551420 0.625320 0.000920 1.110204
H1    H     H_    0.578971 0.012714 0.615173 0.150411
H2    H     H_    0.392524 0.119345 0.785764 0.202259
H3    H     H_    0.663136 0.453263 0.820810 0.257115
H4    H     H_    0.171177 0.407037 0.290076 0.132784
H5    H     H_    0.233211 0.787245 0.826348 0.154432
H6    H     H_    0.311645 0.849542 0.317600 0.134166
H7    H     H_    0.588254 0.061370 0.199021 0.130295
H8    H     H_    0.994497 0.083253 0.192930 0.162265
H9    H     H_    0.592630 0.510449 0.193693 0.170428
H10   H     H_    0.450318 0.575429 0.671458 0.163337
H11   H     H_    0.091777 0.255981 0.882771 0.138267
O1    O     O_R   0.766500 0.250040 0.579790 -0.463357
O2    O     O_R   0.218690 0.701900 0.425960 -0.507077
O3    O     O_R   0.249490 0.516440 0.419420 -0.476374
O4    O     O_R   0.982880 0.281910 0.424890 -0.528376
O5    O     O_3   0.999980 0.499990 0.499980 -0.297934
O6    O     O_R   0.895110 0.806860 0.920430 -0.446093
O7    O     O_R   0.872260 0.046970 0.925000 -0.472102
O8    O     O_R   0.691430 0.085060 0.918550 -0.436059
O9    O     O_R   0.451490 0.822460 0.925250 -0.507872
O10   O     O_R   0.413330 0.603360 0.920440 -0.419860
O11   O     O_R   0.676110 0.626250 0.926750 -0.440560
O12   O     O_R   0.798570 0.516780 0.574780 -0.420978
O13   O     O_R   0.895350 0.809870 0.080950 -0.449179
O14   O     O_R   0.872490 0.049760 0.073800 -0.507321
O15   O     O_R   0.691680 0.088070 0.079070 -0.499337
O16   O     O_R   0.451720 0.825250 0.074050 -0.516980
O17   O     O_R   0.413580 0.606370 0.080960 -0.529194
O18   O     O_R   0.676340 0.629040 0.075550 -0.526073
O19   O     O_3   0.666780 0.833290 0.000090 -0.310083
O20   O     O_R   0.984000 0.732950 0.581090 -0.522419
O21   O     O_R   0.218600 0.700890 0.574760 -0.464037
O22   O     O_R   0.249390 0.515350 0.579940 -0.513150
O23   O     O_R   0.982790 0.280900 0.573700 -0.518224
O24   O     O_R   0.766600 0.251130 0.419260 -0.510287
O25   O     O_R   0.798660 0.517790 0.425980 -0.442357
O26   O     O_R   0.984100 0.734040 0.420570 -0.548440
H12   H     H_    0.180145 0.758032 0.698843 0.204251
F1    F     F_    0.353001 0.013445 0.657861 -0.648752
F2    F     F_    0.659923 0.401490 0.686538 -0.610962
F3    F     F_    0.970020 0.925929 0.806058 -0.623159
H13   H     H_    0.961388 0.876833 0.674851 0.176822
H14   H     H_    0.234094 0.447825 0.165265 0.144558
H15   H     H_    0.368818 0.889410 0.191131 0.147841
H16   H     H_    0.618410 0.120794 0.322442 0.157836
H17   H     H_    0.031963 0.156445 0.318185 0.135619
H18   H     H_    0.064501 0.792591 0.301584 0.165404
F4    F     F_    0.067886 0.803590 0.167229 -0.624815
F5    F     F_    0.594627 0.483802 0.330782 -0.609179
F6    F     F_    0.508031 0.582411 0.803033 -0.603905
F7    F     F_    0.329681 0.298756 0.831652 -0.580549
H19   H     H_    0.304442 0.242752 0.694960 0.189672
H20   H     H_    0.090883 0.164457 0.625173 0.152363
F8    F     F_    0.612639 0.230427 0.865087 -0.612956

loop_
_geom_bond_atom_site_label_1
_geom_bond_atom_site_label_2
_ccdc_geom_bond_type
C55   C56   A    
Cr4   O6    S    
C41   C42   A    
C14   C18   A    
C19   C23   S    
C35   C36   A    
C33   H16   S    
Cr6   O10   S    
C54   H12   S    
Cr3   O4    S    
C7    C8    A    
C39   C53   S    
C40   C46   A    
C5    C47   S    
C2    F6    S    
C29   C30   A    
C45   O3    A    
C49   O11   A    
C36   C37   A    
Cr2   O20   S    
C5    C11   A    
Cr5   O9    S    
C17   H2    S    
C30   C31   A    
C20   F2    S    
C15   C16   A    
C23   O23   A    
C32   C45   S    
C34   O25   A    
C44   C46   A    
C8    C9    A    
Cr6   O19   S    
C12   O22   A    
C34   C46   S    
C4    C12   S    
C9    C10   A    
C10   C19   A    
Cr5   O19   S    
C50   O15   A    
C21   H3    S    
C13   C14   A    
C30   H15   S    
C12   O21   A    
Cr3   O22   S    
C47   O7    A    
Cr3   O5    S    
Cr4   O14   S    
Cr5   O16   S    
Cr2   O2    S    
C17   C18   A    
Cr4   O19   S    
C1    O12   A    
C31   H6    S    
C13   C19   A    
C9    H20   S    
C24   C25   A    
C18   F8    S    
C6    C11   A    
Cr4   O13   S    
C16   C17   A    
C53   O24   A    
C25   C26   A    
C49   O6    A    
Cr1   O1    S    
C53   O4    A    
C43   C44   A    
C37   C38   A    
Cr5   O15   S    
C31   C32   A    
C48   O9    A    
C28   H14   S    
Cr1   O24   S    
Cr6   O18   S    
C34   O26   A    
C33   C39   A    
C5    C14   A    
C6    C7    A    
C50   O14   A    
C22   C49   S    
C40   C41   A    
C41   F4    S    
C13   C15   A    
C1    C26   S    
C22   C24   A    
Cr3   O23   S    
C23   O1    A    
C3    C4    A    
C28   C29   A    
C36   C50   S    
C6    H11   S    
C29   C51   S    
C48   C56   S    
Cr6   O11   S    
C54   C55   A    
Cr4   O7    S    
C43   H9    S    
C4    C54   A    
C27   C32   A    
Cr1   O5    S    
Cr2   O26   S    
C55   H5    S    
C25   H13   S    
C40   H18   S    
C8    H19   S    
C48   O10   A    
C45   O2    A    
C24   F3    S    
C37   H8    S    
C7    F7    S    
C52   O13   A    
C3    H10   S    
Cr2   O21   S    
C51   O17   A    
C27   H4    S    
Cr5   O8    S    
C51   O16   A    
C38   C39   A    
C20   C26   A    
Cr1   O25   S    
Cr6   O17   S    
C33   C35   A    
Cr1   O12   S    
C2    C3    A    
C47   O8    A    
C38   H17   S    
C10   C11   A    
Cr2   O5    S    
C44   F5    S    
C16   F1    S    
C20   C21   A    
C35   H7    S    
C1    O20   A    
C42   C43   A    
C27   C28   A    
C15   H1    S    
C52   O18   A    
C2    C56   A    
C21   C22   A    
Cr3   O3    S    
C42   C52   S    
