data_mof_unit_59792.cif
_audit_creation_date              2012-12-10T16:45:21-0500
_audit_creation_method            fapswitch 2.2
_symmetry_space_group_name_H-M    P1
_symmetry_Int_Tables_number       1
_space_group_crystal_system       triclinic
_cell_length_a                    7.508253
_cell_length_b                    8.750111
_cell_length_c                    15.779463
_cell_angle_alpha                 92.62276
_cell_angle_beta                  74.190379
_cell_angle_gamma                 102.940208
_cell_volume                      972.004773147

loop_
_atom_site_label
_atom_site_type_symbol
_atom_type_description
_atom_site_fract_x
_atom_site_fract_y
_atom_site_fract_z
_atom_type_partial_charge
C1    C     C_R   0.548797 0.800577 0.496832 0.766100
C2    C     C_R   0.458713 0.200583 0.493098 0.822565
C3    C     C_R   0.305763 0.315406 0.072674 -0.101397
C4    C     C_R   0.715701 0.565482 0.913901 -0.161931
C5    C     C_R   0.174472 0.277191 0.023555 -0.181381
C6    C     C_R   0.848913 0.595693 0.961574 -0.195515
C7    C     C_2   0.587226 0.969228 0.478783 0.102653
C8    C     C_2   0.446404 0.035107 0.474059 0.003749
C9    C     C_R   0.381029 0.479700 0.666433 0.793961
C10   C     C_R   0.617824 0.504639 0.332581 0.852028
C11   C     C_R   0.304225 0.443130 0.762408 -0.188695
C12   C     C_R   0.693361 0.501615 0.233907 -0.171983
C13   C     C_R   0.083170 0.294536 0.889487 -0.229076
C14   C     C_R   0.934565 0.585423 0.096321 -0.252777
C15   C     C_R   0.126384 0.341063 0.800977 0.330512
C16   C     C_R   0.887583 0.553724 0.186593 0.376201
C17   C     C_R   0.428570 0.497182 0.814847 -0.225762
C18   C     C_R   0.561769 0.449215 0.184112 -0.171210
C19   C     C_R   0.392901 0.440163 0.901320 0.098110
C20   C     C_R   0.612360 0.469504 0.091402 0.093227
C21   C     C_R   0.215720 0.338819 0.938603 0.055504
C22   C     C_R   0.798361 0.550677 0.049794 0.072981
C23   C     C_R   0.529825 0.477569 0.950838 0.094659
C24   C     C_R   0.481564 0.420581 0.039412 0.094119
Cu1   Cu    Cu3+1 0.322120 0.483240 0.490330 1.144887
Cu2   Cu    Cu3+1 0.677880 0.516760 0.509670 1.124838
H1    H     H_    0.040390 0.196740 0.051937 0.166225
H2    H     H_    0.991883 0.658779 0.929567 0.149546
H3    H     H_    0.417900 0.398491 0.219392 0.231310
H4    H     H_    0.556137 0.581720 0.784910 0.168022
H5    H     H_    0.948144 0.216950 0.919615 0.187508
H6    H     H_    0.080069 0.635598 0.060863 0.191748
H7    H     H_    0.268417 0.257946 0.136114 0.189741
H8    H     H_    0.766087 0.609726 0.847325 0.136629
H9    H     H_    0.000022 0.608086 0.570621 0.216632
H10   H     H_    0.001473 0.395838 0.428221 0.311664
N1    N     N_2   0.945180 0.542040 0.524240 -0.147113
N2    N     N_2   0.054820 0.457960 0.475760 -0.108060
O1    O     O_R   0.384450 0.714270 0.493720 -0.573281
O2    O     O_R   0.615550 0.285730 0.506280 -0.557724
O3    O     O_R   0.684880 0.742590 0.510050 -0.525841
O4    O     O_R   0.315120 0.257410 0.489950 -0.499775
O5    O     O_R   0.265540 0.477900 0.617090 -0.568595
O6    O     O_R   0.734460 0.522100 0.382910 -0.506731
O7    O     O_R   0.565970 0.506210 0.633420 -0.565929
O8    O     O_R   0.434030 0.493790 0.366580 -0.531896
S1    S     S_3+6 0.081079 0.563918 0.230926 0.003207
O9    O     O_2   0.075762 0.405014 0.264090 -0.270602
O10   O     O_2   0.265447 0.619347 0.162223 -0.346360
O11   O     O_3   0.074298 0.689707 0.312726 -0.397641
H11   H     H_    0.136217 0.790486 0.280808 0.426445
S2    S     S_3+6 0.959351 0.257945 0.741242 0.023930
O12   O     O_2   0.053360 0.171007 0.663775 -0.268933
O13   O     O_2   0.794070 0.144901 0.798717 -0.282038
O14   O     O_3   0.875951 0.398059 0.704960 -0.491803
H12   H     H_    0.939952 0.498172 0.725856 0.299654
S3    S     S_3+6 0.812096 0.051992 0.409490 0.088959
O15   O     O_2   0.802607 0.183130 0.353928 -0.291731
O16   O     O_2   0.944776 0.111743 0.465368 -0.207536
O17   O     O_3   0.887513 0.914313 0.341484 -0.461052
H13   H     H_    0.803278 0.893107 0.301734 0.346595
S4    S     S_3+6 0.314705 0.956776 0.398920 0.085532
O18   O     O_2   0.288459 0.084603 0.346011 -0.218099
O19   O     O_2   0.418863 0.850763 0.336520 -0.278709
O20   O     O_3   0.102712 0.853934 0.456871 -0.408685
H14   H     H_    0.084381 0.894120 0.517642 0.338419

loop_
_geom_bond_atom_site_label_1
_geom_bond_atom_site_label_2
_ccdc_geom_bond_type
Cu1   O4    S    
C10   O8    A    
C19   C23   A    
C23   C24   A    
Cu2   N1    S    
C9    O7    A    
S4    O18   D    
C14   C16   A    
C6    H2    S    
Cu1   N2    S    
S1    O9    D    
Cu2   O7    S    
S2    O14   S    
C20   C22   A    
O14   H12   S    
Cu1   O5    S    
H10   N2    S    
O11   H11   S    
C3    C24   A    
C13   C21   A    
C7    C8    D    
S1    O10   D    
C18   H3    S    
C1    C7    S    
C15   S2    S    
Cu1   O1    S    
C17   H4    S    
C9    C11   S    
Cu2   O2    S    
S3    O15   D    
N1    N2    D    
C10   C12   S    
C2    O4    A    
C14   H6    S    
C10   O6    A    
C16   S1    S    
C1    O3    A    
H9    N1    S    
S2    O13   D    
S1    O11   S    
C18   C20   A    
C13   C15   A    
C14   C22   A    
C20   C24   A    
C4    H8    S    
S3    O16   D    
C9    O5    A    
C7    S3    S    
C3    H7    S    
Cu2   O6    S    
C6    C22   A    
C2    O2    A    
C5    C21   A    
S2    O12   D    
C19   C21   A    
C4    C6    A    
O20   H14   S    
C12   C18   A    
C4    C23   A    
C1    O1    A    
C11   C17   A    
S3    O17   S    
S4    O19   D    
S4    O20   S    
C17   C19   A    
Cu1   Cu2   S    
C5    H1    S    
C11   C15   A    
Cu1   O8    S    
C13   H5    S    
C2    C8    S    
C12   C16   A    
Cu2   O3    S    
C8    S4    S    
O17   H13   S    
C3    C5    A    
