data_mof_unit_65702.cif
_audit_creation_date              2012-10-26T18:37:15-0400
_audit_creation_method            fapswitch 2.2
_symmetry_space_group_name_H-M    P1
_symmetry_Int_Tables_number       1
_space_group_crystal_system       triclinic
_cell_length_a                    12.743158
_cell_length_b                    13.903689
_cell_length_c                    19.343552
_cell_angle_alpha                 90.18015
_cell_angle_beta                  93.500216
_cell_angle_gamma                 97.940952
_cell_volume                      3387.80251339

loop_
_atom_site_label
_atom_site_type_symbol
_atom_type_description
_atom_site_fract_x
_atom_site_fract_y
_atom_site_fract_z
_atom_type_partial_charge
C1    C     C_R   0.483567 0.315793 0.499277 0.552655
C2    C     C_2   0.971982 0.526539 0.519678 -0.149697
C3    C     C_1   0.854709 0.519169 0.514079 0.159761
C4    C     C_1   0.145291 0.480831 0.485922 0.161287
C5    C     C_R   0.499909 0.500315 0.367064 0.549558
C6    C     C_R   0.500095 0.499687 0.632936 0.547536
C7    C     C_R   0.401861 0.499774 0.251727 -0.099019
C8    C     C_R   0.598240 0.500380 0.748233 -0.114940
C9    C     C_R   0.398403 0.502295 0.179351 0.256177
C10   C     C_R   0.601815 0.497896 0.820604 0.202723
C11   C     C_R   0.494048 0.504735 0.145479 0.025008
C12   C     C_R   0.516433 0.684207 0.500724 0.551109
C13   C     C_R   0.506186 0.495339 0.854533 0.023611
C14   C     C_R   0.590728 0.508239 0.184921 -0.144144
C15   C     C_R   0.409448 0.491697 0.815130 -0.141386
C16   C     C_R   0.593106 0.506736 0.256969 -0.133716
C17   C     C_R   0.406979 0.493176 0.743078 -0.132639
C18   C     C_R   0.498621 0.501867 0.290939 -0.035076
C19   C     C_R   0.501428 0.498146 0.709064 -0.028619
C20   C     C_R   0.503991 0.497140 0.930301 0.367143
C21   C     C_R   0.496295 0.502857 0.069720 0.379445
C22   C     C_1   0.525837 0.787537 0.501129 0.003366
C23   C     C_1   0.474163 0.212463 0.498874 0.005201
C24   C     C_2   0.543582 0.978398 0.501892 -0.107297
C25   C     C_2   0.456419 0.021602 0.498115 -0.106737
C26   C     C_1   0.465599 0.125412 0.498507 -0.028682
C27   C     C_1   0.534401 0.874588 0.501498 -0.030097
C28   C     C_2   0.028018 0.473461 0.480323 -0.147815
Cu1   Cu    Cu3+1 0.395330 0.493960 0.495610 1.019194
Cu2   Cu    Cu3+1 0.604670 0.506040 0.504390 1.016784
H1    H     H_    0.328586 0.497041 0.277638 0.179500
H2    H     H_    0.985341 0.422457 0.442382 0.140701
H3    H     H_    0.219947 0.576478 0.041060 0.386696
H4    H     H_    0.775212 0.648250 0.860060 0.339693
H5    H     H_    0.671487 0.503235 0.722281 0.174180
H6    H     H_    0.664707 0.510579 0.159764 0.168424
H7    H     H_    0.335489 0.489263 0.840323 0.160620
H8    H     H_    0.668826 0.508858 0.285988 0.157761
H9    H     H_    0.331221 0.490949 0.714090 0.154424
H10   H     H_    0.377865 0.979321 0.494713 0.147099
H11   H     H_    0.622136 0.020678 0.505293 0.146943
H12   H     H_    0.014659 0.577543 0.557620 0.137502
N1    N     N_R   0.570237 0.563594 0.037716 -0.183196
N2    N     N_R   0.430053 0.436394 0.962305 -0.194801
N3    N     N_R   0.573543 0.561168 0.969156 -0.122993
N4    N     N_R   0.426749 0.438808 0.030867 -0.126358
N5    N     N_1   0.238030 0.484880 0.489000 -0.180733
N6    N     N_1   0.761970 0.515120 0.511000 -0.181409
O1    O     O_R   0.399110 0.356330 0.495750 -0.486289
O2    O     O_2   0.196565 0.539294 0.181540 -0.260461
O3    O     O_3   0.289203 0.585742 0.068114 -0.494334
O4    O     O_2   0.713913 0.421277 0.923482 -0.197334
O5    O     O_2   0.805339 0.464344 0.818094 -0.264872
O6    O     O_3   0.772674 0.603794 0.900023 -0.451233
O7    O     O_R   0.600890 0.643670 0.504250 -0.487793
O8    O     O_R   0.575900 0.366540 0.503170 -0.487740
O9    O     O_R   0.424100 0.633460 0.496830 -0.488271
O10   O     O_R   0.411580 0.494880 0.396430 -0.495915
O11   O     O_R   0.588420 0.505120 0.603570 -0.497828
O12   O     O_R   0.588360 0.505090 0.403850 -0.494826
O13   O     O_R   0.411640 0.494910 0.596150 -0.496180
O14   O     O_2   0.231532 0.407618 0.105605 -0.230023
S1    S     S_3+6 0.274198 0.507112 0.133865 0.050483
S2    S     S_3+6 0.726343 0.493601 0.865957 0.057867

loop_
_geom_bond_atom_site_label_1
_geom_bond_atom_site_label_2
_ccdc_geom_bond_type
C10   C13   A    
C1    C23   S    
O14   S1    D    
C24   H11   S    
H3    O3    S    
C9    C11   A    
Cu2   O7    S    
C20   N3    A    
C13   C20   S    
C24   C27   S    
C7    C18   A    
Cu2   O11   S    
C9    S1    S    
C2    C3    S    
Cu1   O1    S    
C24   C25   D    
O2    S1    D    
N1    N3    A    
Cu1   Cu2   S    
O6    S2    S    
C5    O10   A    
C2    H12   S    
C12   O9    A    
C6    O11   A    
C6    O13   A    
Cu2   N6    S    
C17   H9    S    
C20   N2    A    
C1    O8    A    
Cu1   N5    S    
H4    O6    S    
Cu1   O13   S    
C22   C27   T    
C13   C15   A    
C25   H10   S    
C14   H6    S    
O5    S2    D    
C14   C16   A    
C11   C21   S    
C12   O7    A    
C7    H1    S    
C17   C19   A    
Cu2   O8    S    
C8    C19   A    
C12   C22   S    
C3    N6    T    
C28   H2    S    
O3    S1    S    
Cu1   O10   S    
C16   C18   A    
C21   N4    A    
O4    S2    D    
C23   C26   T    
C16   H8    S    
C11   C14   A    
C15   C17   A    
C7    C9    A    
C15   H7    S    
C2    C28   D    
C5    C18   S    
N2    N4    A    
C5    O12   A    
C4    C28   S    
C25   C26   S    
C21   N1    A    
C1    O1    A    
C6    C19   S    
C4    N5    T    
C8    C10   A    
C10   S2    S    
Cu1   O9    S    
C8    H5    S    
Cu2   O12   S    
