data_mof_unit_44921.cif
_audit_creation_date              2013-03-05T15:52:13-0500
_audit_creation_method            fapswitch 2.2
_symmetry_space_group_name_H-M    P1
_symmetry_Int_Tables_number       1
_space_group_crystal_system       triclinic
_cell_length_a                    23.533172
_cell_length_b                    10.901307
_cell_length_c                    9.707661
_cell_angle_alpha                 93.64942
_cell_angle_beta                  90.478728
_cell_angle_gamma                 91.479714
_cell_volume                      2484.42231604

loop_
_atom_site_label
_atom_site_type_symbol
_atom_site_description
_atom_site_fract_x
_atom_site_fract_y
_atom_site_fract_z
_atom_type_partial_charge
O1    O     O_R   0.500000 0.319640 0.618810 -0.562077
O2    O     O_R   0.500000 0.319660 0.381240 -0.516353
C1    C     C_R   0.505372 0.262926 0.496820 0.836466
O3    O     O_R   0.417880 0.499950 0.618810 -0.581252
O4    O     O_R   0.417880 0.499980 0.381240 -0.524085
C2    C     C_R   0.391164 0.494783 0.499273 0.924529
Cu1   Cu    Cu3+1 0.500000 0.499990 0.640660 1.086829
Cu2   Cu    Cu3+1 0.500000 0.500010 0.359340 1.128132
O5    O     O_R   0.500000 0.680340 0.618760 -0.554830
O6    O     O_R   0.500000 0.680360 0.381190 -0.539412
O7    O     O_R   0.582120 0.500020 0.618760 -0.479372
O8    O     O_R   0.582120 0.500050 0.381190 -0.612432
C3    C     C_R   0.494691 0.737495 0.503395 0.872882
C4    C     C_R   0.608733 0.497035 0.499845 0.866030
C5    C     C_R   0.879260 0.544360 0.409348 0.656328
N1    N     N_R   0.850533 0.446260 0.459639 -0.433828
C6    C     C_R   0.878799 0.343496 0.492199 0.604213
C7    C     C_R   0.938121 0.337171 0.472868 -0.123344
C8    C     C_R   0.968508 0.447412 0.448369 -0.080768
C9    C     C_R   0.938852 0.554110 0.420806 -0.151424
C10   C     C_R   0.968554 0.227237 0.484342 0.437100
C11   C     C_R   0.027870 0.231514 0.483527 -0.077828
C12   C     C_R   0.058190 0.342373 0.469823 -0.101996
C13   C     C_R   0.028533 0.450976 0.452603 -0.045520
C14   C     C_R   0.058923 0.563086 0.441412 -0.190334
C15   C     C_R   0.029096 0.669747 0.411655 0.315180
C16   C     C_R   0.969501 0.665895 0.404050 0.362627
C17   C     C_R   0.117857 0.346922 0.471448 0.607300
N2    N     N_R   0.146756 0.457885 0.475452 -0.459784
C18   C     C_R   0.118134 0.565258 0.466417 0.618174
O9    O     O_2   0.849934 0.631378 0.348727 -0.440194
O10   O     O_2   0.849987 0.250550 0.547839 -0.457456
H1    H     H_    0.050165 0.146819 0.493840 0.244631
O11   O     O_2   0.146697 0.241469 0.470222 -0.437242
O12   O     O_2   0.146820 0.673785 0.486163 -0.436987
C19   C     C_R   0.238445 0.527035 0.387059 -0.141981
H2    H     H_    0.215376 0.570759 0.307390 0.226899
C20   C     C_R   0.297094 0.545590 0.398479 0.289420
C21   C     C_R   0.328159 0.483782 0.496583 -0.326944
C22   C     C_R   0.298486 0.411209 0.590262 0.256483
C23   C     C_R   0.238476 0.408978 0.591224 0.424627
C24   C     C_R   0.208209 0.463123 0.484565 0.081595
C25   C     C_R   0.753073 0.365067 0.417964 -0.046337
H3    H     H_    0.770231 0.287340 0.358477 0.212949
C26   C     C_R   0.694303 0.374851 0.427659 0.456622
C27   C     C_R   0.671035 0.480908 0.496828 -0.319800
C28   C     C_R   0.708248 0.572524 0.559386 0.190392
C29   C     C_R   0.767533 0.555910 0.557808 0.302178
C30   C     C_R   0.790005 0.454133 0.481459 0.071821
C31   C     C_R   0.557159 0.127794 0.727435 0.349601
C32   C     C_R   0.558192 0.076025 0.855196 -0.226825
H4    H     H_    0.584070 0.119023 0.938436 0.233274
C33   C     C_R   0.528129 0.966769 0.874405 0.406441
C34   C     C_R   0.499677 0.905830 0.762989 -0.071961
H5    H     H_    0.474806 0.824641 0.783660 0.211697
C35   C     C_R   0.504094 0.948107 0.629039 -0.062735
C36   C     C_R   0.524679 0.069491 0.615642 -0.037947
C37   C     C_R   0.511965 0.127608 0.492219 -0.190713
C38   C     C_R   0.492935 0.055619 0.374022 0.259434
C39   C     C_R   0.478268 0.931102 0.384261 0.240148
C40   C     C_R   0.488863 0.873641 0.508678 -0.202371
C41   C     C_R   0.601023 0.557410 0.134695 0.221521
C42   C     C_R   0.631692 0.664781 0.108852 0.354429
C43   C     C_R   0.621108 0.715870 0.985010 -0.220040
H6    H     H_    0.647451 0.793411 0.957782 0.224592
C44   C     C_R   0.581225 0.658675 0.889942 0.396921
C45   C     C_R   0.542115 0.565572 0.933884 0.167204
C46   C     C_R   0.546330 0.544122 0.076544 -0.004219
N3    N     N_R   0.500540 0.501210 0.147910 -0.219231
C47   C     C_R   0.455721 0.450837 0.067320 0.451006
H7    H     H_    0.423822 0.398470 0.860654 0.212591
C48   C     C_R   0.457814 0.445143 0.920078 -0.048927
N4    N     N_R   0.500560 0.501290 0.852040 -0.202308
O13   O     O_3   0.942332 0.113366 0.491435 -0.611625
H8    H     H_    0.909160 0.109436 0.427675 0.372639
O14   O     O_3   0.661885 0.279376 0.364630 -0.591396
H9    H     H_    0.621309 0.289948 0.385984 0.353901
N5    N     N_R   0.686458 0.686109 0.616140 0.163100
O15   O     O_R   0.704427 0.732433 0.735939 -0.285092
O16   O     O_R   0.656069 0.752831 0.538613 -0.349526
N6    N     N_R   0.805342 0.644590 0.629127 0.169646
O17   O     O_R   0.844277 0.608418 0.712268 -0.298914
O18   O     O_R   0.804719 0.759689 0.600923 -0.225071
N7    N     N_R   0.495426 0.104767 0.240127 0.153433
O19   O     O_R   0.454576 0.084668 0.149872 -0.216036
O20   O     O_R   0.542938 0.154200 0.201005 -0.332854
N8    N     N_R   0.597609 0.224782 0.706551 0.114704
O21   O     O_R   0.604961 0.313634 0.801527 -0.304008
O22   O     O_R   0.638134 0.203108 0.619211 -0.329870
O23   O     O_3   0.529701 0.911596 0.997609 -0.658706
H10   H     H_    0.558918 0.954241 0.058636 0.361644
N9    N     N_R   0.445909 0.868295 0.273750 0.191204
O24   O     O_R   0.470880 0.799579 0.179517 -0.285550
O25   O     O_R   0.394550 0.903452 0.249508 -0.183686
N10   N     N_R   0.406178 0.399461 0.128264 0.139136
O26   O     O_R   0.356128 0.427168 0.083786 -0.274779
O27   O     O_R   0.410478 0.306782 0.204887 -0.260685
N11   N     N_R   0.633064 0.447166 0.143823 0.144154
O28   O     O_R   0.688406 0.452411 0.142162 -0.301216
O29   O     O_R   0.607758 0.340403 0.120269 -0.259471
O30   O     O_3   0.677803 0.707568 0.188026 -0.603631
H11   H     H_    0.677938 0.663341 0.274161 0.358931
O31   O     O_3   0.579918 0.699395 0.760736 -0.649029
H12   H     H_    0.599792 0.780602 0.759772 0.352762
N12   N     N_R   0.058697 0.782253 0.384182 0.204625
O32   O     O_R   0.092421 0.785381 0.278841 -0.253364
O33   O     O_R   0.046892 0.884308 0.453615 -0.246988
O34   O     O_3   0.942600 0.774209 0.383802 -0.593434
H13   H     H_    0.912763 0.783420 0.454895 0.390403
N13   N     N_R   0.323750 0.638582 0.321604 0.181901
O35   O     O_R   0.357462 0.719310 0.386620 -0.325562
O36   O     O_R   0.305131 0.659886 0.199024 -0.232551
N14   N     N_R   0.328837 0.337317 0.682333 0.160469
O37   O     O_R   0.367738 0.263873 0.634316 -0.339544
O38   O     O_R   0.313104 0.331395 0.809934 -0.216890
O39   O     O_3   0.211041 0.351981 0.695972 -0.597942
H14   H     H_    0.172485 0.385294 0.706640 0.341357

loop_
_geom_bond_atom_site_label_1
_geom_bond_atom_site_label_2
_geom_bond_distance
_ccdc_geom_bond_type
N8    O21   1.301227 A    
C22   C23   1.411936 A    
O30   H11   0.991468 S    
N2    C24   1.447592 S    
C7    C10   1.421803 A    
C23   C24   1.419505 A    
C34   H5    1.078886 S    
C19   C24   1.399036 A    
C8    C9    1.410667 A    
C4    C27   1.481467 S    
C42   O30   1.378438 S    
N6    O17   1.301255 A    
O23   H10   0.990686 S    
Cu1   Cu2   2.730972 S    
Cu1   N4    2.051082 S    
C33   C34   1.390299 A    
C29   N6    1.437229 S    
Cu1   O7    1.945962 S    
N12   O33   1.301105 A    
C15   C16   1.403194 A    
N2    C18   1.372677 A    
C18   O12   1.349019 S    
C26   O14   1.381945 S    
O4    C2    1.315240 A    
C17   N2    1.370532 A    
N7    O20   1.298769 A    
C20   C21   1.411003 A    
O7    C4    1.316910 A    
N5    O16   1.301710 A    
C5    N1    1.368827 A    
O34   H13   0.991118 S    
C7    C8    1.416701 A    
O5    C3    1.322333 A    
N13   O35   1.298889 A    
C41   N11   1.442215 S    
N7    O19   1.300169 A    
C22   N14   1.438258 S    
C46   N3    1.373930 A    
C12   C13   1.408049 A    
C45   N4    1.399783 A    
C20   N13   1.431557 S    
C44   C45   1.439658 A    
C17   O11   1.349438 S    
C38   C39   1.401812 A    
C10   C11   1.395571 A    
O3    Cu1   1.942373 S    
C15   N12   1.435694 S    
N6    O18   1.301592 A    
C31   C32   1.395222 A    
O14   H9    0.986915 S    
C39   N9    1.437182 S    
C5    C9    1.406615 A    
C34   C35   1.410737 A    
O13   H8    0.990538 S    
C45   C46   1.422175 A    
C13   C14   1.410667 A    
O3    C2    1.312512 A    
C21   C22   1.419223 A    
N5    O15   1.300895 A    
C25   C30   1.396182 A    
C37   C38   1.411262 A    
C26   C27   1.423876 A    
C10   O13   1.377862 S    
C32   H4    1.082755 S    
C39   C40   1.418689 A    
C32   C33   1.393132 A    
C43   C44   1.415421 A    
C47   N10   1.429335 S    
C25   H3    1.083401 S    
C41   C42   1.396665 A    
C28   C29   1.411592 A    
Cu2   O8    1.942373 S    
N9    O25   1.301439 A    
C6    C7    1.413012 A    
Cu2   N3    2.053509 S    
C35   C40   1.417708 A    
C12   C17   1.403675 A    
N1    C30   1.445752 S    
C25   C26   1.393411 A    
C31   N8    1.429574 S    
C29   C30   1.411440 A    
O8    C4    1.309175 A    
N11   O29   1.299819 A    
N8    O22   1.297638 A    
C35   C36   1.411540 A    
C23   O39   1.381156 S    
C33   O23   1.373158 S    
N14   O37   1.301472 A    
C14   C18   1.411756 A    
Cu1   O5    1.990921 S    
C11   H1    1.083355 S    
C27   C28   1.414903 A    
C19   H2    1.083208 S    
O1    Cu1   1.963989 S    
C31   C36   1.427995 A    
C44   O31   1.357273 S    
C11   C12   1.401725 A    
O2    Cu2   1.990919 S    
C48   N4    1.361468 A    
O6    C3    1.312766 A    
O4    Cu2   1.945964 S    
N10   O27   1.297683 A    
C5    O9    1.349278 S    
C9    C16   1.418976 A    
N12   O32   1.301289 A    
C38   N7    1.438156 S    
C41   C46   1.401453 A    
C43   H6    1.082963 S    
C19   C20   1.392233 A    
C8    C13   1.412283 A    
C14   C15   1.417605 A    
H7    C48   1.079559 S    
C36   C37   1.423692 A    
N1    C6    1.370187 A    
C16   O34   1.378302 S    
N9    O24   1.299153 A    
O39   H14   0.989788 S    
O2    C1    1.321895 A    
N3    C47   1.388403 A    
N13   O36   1.301409 A    
C42   C43   1.380199 A    
C1    C37   1.485145 S    
C3    C40   1.491681 S    
Cu2   O6    1.963991 S    
N11   O28   1.302452 A    
O31   H12   0.991097 S    
C6    O10   1.348492 S    
C2    C21   1.484342 S    
C47   C48   1.428086 A    
C28   N5    1.431907 S    
O1    C1    1.309193 A    
N10   O26   1.300561 A    
N14   O38   1.300875 A    
