data_mof_unit_53567.cif
_audit_creation_date              2012-12-11T14:29:29-0500
_audit_creation_method            fapswitch 2.2
_symmetry_space_group_name_H-M    P1
_symmetry_Int_Tables_number       1
_space_group_crystal_system       triclinic
_cell_length_a                    6.93307
_cell_length_b                    15.063157
_cell_length_c                    15.985375
_cell_angle_alpha                 90.426195
_cell_angle_beta                  88.784978
_cell_angle_gamma                 90.379711
_cell_volume                      1668.95893065

loop_
_atom_site_label
_atom_site_type_symbol
_atom_type_description
_atom_site_fract_x
_atom_site_fract_y
_atom_site_fract_z
_atom_type_partial_charge
O1    O     O_R   0.494400 0.416610 0.413880 -0.543631
O2    O     O_R   0.823920 0.406790 0.585520 -0.545651
O3    O     O_R   0.994250 0.583390 0.586120 -0.543185
C1    C     C_R   0.652645 0.388206 0.615925 0.764921
O4    O     O_R   0.824110 0.405730 0.414490 -0.539979
O5    O     O_R   0.994440 0.582310 0.413870 -0.539966
C2    C     C_R   0.655146 0.382119 0.388021 0.752145
O6    O     O_R   0.494210 0.417690 0.586130 -0.545257
O7    O     O_3   0.660810 0.557940 0.500000 -0.373032
V1    V     V_3+5 0.935650 0.489250 0.500000 1.396342
O8    O     O_R   0.324160 0.593210 0.414480 -0.545201
C3    C     C_R   0.157295 0.613103 0.384894 0.749466
O9    O     O_R   0.323970 0.594270 0.585510 -0.536817
C4    C     C_R   0.153644 0.614058 0.615487 0.697417
V2    V     V_3+5 0.435660 0.510750 0.500000 1.401248
O10   O     O_3   0.160630 0.442060 0.500000 -0.373946
H1    H     H_    0.801297 0.876414 0.524606 0.123326
C5    C     C_R   0.296891 0.577642 0.781338 -0.146471
C6    C     C_R   0.364961 0.557947 0.860414 -0.124254
C7    C     C_R   0.352204 0.620535 0.924591 -0.120557
C8    C     C_R   0.272563 0.703587 0.910095 -0.137166
C9    C     C_R   0.204762 0.726115 0.830174 0.063693
C10   C     C_R   0.215755 0.661445 0.764540 0.070467
C11   C     C_R   0.128286 0.811525 0.814766 -0.186686
C12   C     C_R   0.065834 0.831657 0.732773 0.068263
C13   C     C_R   0.049530 0.762850 0.671798 0.044270
C14   C     C_R   0.138557 0.680028 0.685066 -0.178613
C15   C     C_R   0.031700 0.919847 0.706257 0.127148
C16   C     C_R   0.921783 0.934076 0.634764 -0.141279
C17   C     C_R   0.878466 0.864227 0.581535 -0.158195
C18   C     C_R   0.952421 0.780696 0.596705 -0.147584
H2    H     H_    0.306044 0.525938 0.734119 0.106358
H3    H     H_    0.426222 0.493400 0.872156 0.115903
H4    H     H_    0.403966 0.604597 0.986074 0.110769
H5    H     H_    0.265170 0.749702 0.962234 0.101186
H6    H     H_    0.883731 0.000423 0.615891 0.108091
H7    H     H_    0.931727 0.731316 0.548503 0.136042
C19   C     C_2   0.994294 0.707454 0.281137 -0.140296
C20   C     C_2   0.156839 0.674991 0.313585 -0.342139
H8    H     H_    0.854838 0.684608 0.304871 0.145148
H9    H     H_    0.295731 0.692905 0.285552 0.135040
C21   C     C_2   0.995610 0.765789 0.206313 -0.189021
C22   C     C_2   0.113938 0.836647 0.193278 0.010936
H10   H     H_    0.890549 0.749170 0.159111 0.115525
C23   C     C_2   0.779822 0.229852 0.791103 0.485588
C24   C     C_2   0.621681 0.195351 0.831208 -0.404371
H11   H     H_    0.487847 0.231978 0.827563 0.097316
C25   C     C_2   0.757778 0.314723 0.743950 -0.256274
C26   C     C_2   0.633317 0.320162 0.681414 -0.384288
H12   H     H_    0.866304 0.366483 0.750312 0.132070
H13   H     H_    0.523199 0.269532 0.675149 0.140404
C27   C     C_2   0.762547 0.205370 0.217601 -0.174661
C28   C     C_2   0.617639 0.196551 0.162009 0.003773
H14   H     H_    0.874025 0.155043 0.218554 0.119169
C29   C     C_2   0.785950 0.279552 0.278613 -0.145713
C30   C     C_2   0.638482 0.308838 0.326880 -0.336023
H15   H     H_    0.930423 0.305513 0.288052 0.141996
H16   H     H_    0.496752 0.278564 0.320439 0.136527
O11   O     O_R   0.770210 0.079270 0.910680 -0.511250
O12   O     O_R   0.440150 0.091160 0.082270 -0.546844
O13   O     O_R   0.269970 0.914530 0.082860 -0.542273
C31   C     C_R   0.608791 0.116054 0.107781 0.715419
O14   O     O_R   0.440480 0.090100 0.911240 -0.544556
O15   O     O_R   0.270310 0.913460 0.910610 -0.538157
C32   C     C_R   0.612004 0.115229 0.885822 0.770416
O16   O     O_R   0.769870 0.080340 0.082930 -0.546347
O17   O     O_3   0.603660 0.938980 0.996790 -0.373368
V3    V     V_3+5 0.328750 0.007610 0.996740 1.411858
O18   O     O_R   0.940600 0.902510 0.911180 -0.539231
C33   C     C_R   0.111427 0.878601 0.884229 0.699271
O19   O     O_R   0.940270 0.903570 0.082200 -0.550529
C34   C     C_R   0.107240 0.885764 0.113230 0.710249
V4    V     V_3+5 0.828770 0.986010 0.996670 1.437836
O20   O     O_3   0.103730 0.054750 0.996710 -0.365324
C35   C     C_3   0.246398 0.874217 0.260071 -0.337905
C36   C     C_3   0.203787 0.971989 0.278925 -0.780795
H17   H     H_    0.236978 0.013969 0.223610 0.224971
H18   H     H_    0.049654 0.980291 0.297683 0.222659
H19   H     H_    0.294754 0.995463 0.331118 0.214031
H20   H     H_    0.230334 0.839589 0.320584 0.203045
H21   H     H_    0.398947 0.867618 0.238303 0.174145
O21   O     O_3   0.955863 0.184864 0.792363 -0.568635
C37   C     C_3   0.100746 0.220348 0.736831 0.063584
H22   H     H_    0.235273 0.183960 0.748913 0.146638
H23   H     H_    0.137182 0.290387 0.752363 0.098096
C38   C     C_3   0.050115 0.208966 0.642978 -0.339676
H24   H     H_    0.940553 0.155653 0.635383 0.190012
H25   H     H_    0.985705 0.270313 0.619764 0.218413
C39   C     C_3   0.223925 0.189979 0.585256 -0.840891
H26   H     H_    0.305853 0.252126 0.573011 0.239208
H27   H     H_    0.172575 0.164628 0.524189 0.229740
H28   H     H_    0.320877 0.139686 0.611798 0.229601
C40   C     C_3   0.470710 0.269365 0.146534 -0.340614
C41   C     C_3   0.478657 0.300458 0.055595 -0.761573
H29   H     H_    0.627738 0.321381 0.037658 0.223480
H30   H     H_    0.430610 0.247093 0.012496 0.230836
H31   H     H_    0.381155 0.357968 0.048320 0.211152
H32   H     H_    0.323474 0.243966 0.161987 0.174772
H33   H     H_    0.495034 0.329535 0.184928 0.199505
C42   C     C_3   0.152114 0.996894 0.736690 -0.354229
C43   C     C_3   0.368289 0.981082 0.721755 -0.739683
H34   H     H_    0.421735 0.926688 0.761191 0.238787
H35   H     H_    0.397678 0.963932 0.654989 0.222937
H36   H     H_    0.450249 0.042419 0.736682 0.198906
H37   H     H_    0.117647 0.054171 0.699071 0.208251
H38   H     H_    0.117853 0.017091 0.801847 0.213768

loop_
_geom_bond_atom_site_label_1
_geom_bond_atom_site_label_2
_ccdc_geom_bond_type
C29   C30   D    
O14   C32   A    
C22   C34   S    
V4    O20   S    
C6    C7    A    
C36   H19   S    
C1    O6    A    
C11   C33   S    
C20   H9    S    
C23   C24   D    
C12   C15   A    
C16   H6    S    
C13   C14   A    
C40   C41   S    
O15   V3    S    
C15   C16   A    
C36   H18   S    
C19   C21   S    
O5    C3    A    
C17   C18   A    
C38   H25   S    
V3    O20   S    
V2    O10   S    
O12   C31   A    
C5    C6    A    
O14   V3    S    
O8    V2    S    
C23   O21   S    
C26   H13   S    
O18   V4    S    
O17   V4    S    
C10   C14   A    
C4    C14   S    
C39   H27   S    
C35   H20   S    
C40   H33   S    
C27   C29   S    
C7    H4    S    
C15   C42   S    
C25   H12   S    
C13   C18   A    
C43   H35   S    
O9    C4    A    
H1    C17   S    
O18   C33   A    
C21   H10   S    
C2    C30   S    
C27   H14   S    
C22   C35   S    
C31   O16   A    
C28   C40   S    
O17   V3    S    
C43   H34   S    
C36   H17   S    
C24   C32   S    
C6    H3    S    
O4    C2    A    
C38   H24   S    
C35   H21   S    
C41   H31   S    
C12   C13   A    
O16   V4    S    
C5    C10   A    
O2    C1    A    
C35   C36   S    
C16   C17   A    
C28   C31   S    
C37   H22   S    
C42   H37   S    
C11   C12   A    
C39   H28   S    
C41   H30   S    
O3    C4    A    
O1    V2    S    
O13   C34   A    
C25   C26   D    
C37   H23   S    
O6    V2    S    
O15   C33   A    
C29   H15   S    
C9    C11   A    
C5    H2    S    
C21   C22   D    
O2    V1    S    
C27   C28   D    
O19   V4    S    
O7    V1    S    
C23   C25   S    
O11   V4    S    
C24   H11   S    
O1    C2    A    
C38   C39   S    
O5    V1    S    
O8    C3    A    
C8    H5    S    
C43   H36   S    
C42   H38   S    
C1    C26   S    
C3    C20   S    
O9    V2    S    
O7    V2    S    
O4    V1    S    
O3    V1    S    
V1    O10   S    
O11   C32   A    
C19   H8    S    
O13   V3    S    
C19   C20   D    
C42   C43   S    
C30   H16   S    
C41   H29   S    
C18   H7    S    
O19   C34   A    
C37   C38   S    
C7    C8    A    
O12   V3    S    
O21   C37   S    
C9    C10   A    
C39   H26   S    
C8    C9    A    
C40   H32   S    
