data_mof_unit_41062.cif
_audit_creation_date              2012-12-10T18:05:14-0500
_audit_creation_method            fapswitch 2.2
_symmetry_space_group_name_H-M    P1
_symmetry_Int_Tables_number       1
_space_group_crystal_system       triclinic
_cell_length_a                    9.629589
_cell_length_b                    10.743181
_cell_length_c                    17.115603
_cell_angle_alpha                 85.722143
_cell_angle_beta                  94.635132
_cell_angle_gamma                 90.111252
_cell_volume                      1759.92791619

loop_
_atom_site_label
_atom_site_type_symbol
_atom_type_description
_atom_site_fract_x
_atom_site_fract_y
_atom_site_fract_z
_atom_type_partial_charge
C1    C     C_R   0.499972 0.262739 0.500950 0.888491
C2    C     C_R   0.500028 0.737261 0.499050 0.888489
C3    C     C_R   0.453366 0.943720 0.430777 0.050834
C4    C     C_R   0.546633 0.056280 0.569223 0.050831
C5    C     C_R   0.500337 0.871232 0.499366 -0.057087
C6    C     C_R   0.499662 0.128768 0.500634 -0.057085
C7    C     C_R   0.080419 0.414949 0.547797 0.287724
C8    C     C_R   0.919581 0.585051 0.452203 0.287723
C9    C     C_R   0.933043 0.419098 0.551065 0.084810
C10   C     C_R   0.066957 0.580902 0.448935 0.084810
C11   C     C_R   0.518224 0.511067 0.650198 0.817766
C12   C     C_R   0.481776 0.488933 0.349802 0.817771
C13   C     C_R   0.529035 0.536614 0.735473 -0.208349
C14   C     C_R   0.470965 0.463386 0.264528 -0.208346
C15   C     C_R   0.406689 0.563012 0.772793 -0.074427
C16   C     C_R   0.593312 0.436989 0.227207 -0.074428
C17   C     C_R   0.411199 0.559852 0.855210 0.151467
C18   C     C_R   0.588801 0.440148 0.144790 0.151467
C19   C     C_R   0.538026 0.534244 0.901354 0.229949
C20   C     C_R   0.461973 0.465755 0.098646 0.229949
C21   C     C_R   0.662603 0.527457 0.864246 -0.109586
C22   C     C_R   0.337397 0.472540 0.135754 -0.109587
C23   C     C_R   0.659467 0.532393 0.781402 -0.101192
C24   C     C_R   0.340533 0.467604 0.218598 -0.101192
C25   C     C_R   0.452794 0.074117 0.431478 0.062548
C26   C     C_R   0.547212 0.925883 0.568520 0.062532
Cu1   Cu    Cu3+1 0.640660 0.500020 0.500000 0.955471
Cu2   Cu    Cu3+1 0.359340 0.499980 0.500000 0.955471
N1    N     N_2   0.546099 0.532215 0.984859 -0.262737
N2    N     N_2   0.453900 0.467784 0.015141 -0.262737
N3    N     N_R   0.852070 0.500030 0.499980 -0.258665
N4    N     N_R   0.147930 0.499970 0.500020 -0.258666
O1    O     O_R   0.618740 0.319660 0.500000 -0.623136
O2    O     O_R   0.381260 0.680340 0.500000 -0.623137
O3    O     O_R   0.381170 0.319630 0.500010 -0.575995
O4    O     O_R   0.618830 0.680370 0.499990 -0.575992
O5    O     O_R   0.631780 0.498870 0.613920 -0.568650
O6    O     O_R   0.368220 0.501130 0.386080 -0.568650
O7    O     O_R   0.394210 0.498840 0.613930 -0.618225
O8    O     O_R   0.605790 0.501160 0.386070 -0.618225
C27   C     C_2   0.724713 0.395513 0.273738 0.490227
H1    H     H_    0.720470 0.332466 0.326090 0.070408
O9    O     O_2   0.838147 0.432278 0.254756 -0.486447
C28   C     C_2   0.275289 0.604492 0.726261 0.490227
H2    H     H_    0.279535 0.667536 0.673909 0.070407
O10   O     O_2   0.161853 0.567730 0.745244 -0.486443
N5    N     N_3   0.712671 0.408889 0.109161 -0.500703
H3    H     H_    0.752136 0.490329 0.082218 0.260150
H4    H     H_    0.689087 0.343024 0.068134 0.228569
N6    N     N_3   0.287329 0.591112 0.890839 -0.500701
H5    H     H_    0.247864 0.509672 0.917782 0.260149
H6    H     H_    0.310913 0.656976 0.931866 0.228569
C29   C     C_2   0.796751 0.514493 0.913493 0.367789
H7    H     H_    0.808799 0.442771 0.961328 0.094133
O11   O     O_2   0.894028 0.584430 0.901279 -0.502178
C30   C     C_2   0.203248 0.485503 0.086508 0.367790
H8    H     H_    0.191200 0.557225 0.038672 0.094134
O12   O     O_2   0.105972 0.415565 0.098722 -0.502180
C31   C     C_2   0.794398 0.535959 0.745136 0.542142
H9    H     H_    0.874934 0.468008 0.765463 0.128927
O13   O     O_2   0.820005 0.620174 0.696537 -0.499809
C32   C     C_2   0.205603 0.464036 0.254864 0.542140
H10   H     H_    0.125064 0.531984 0.234538 0.128934
O14   O     O_2   0.179998 0.379820 0.303464 -0.499812
N7    N     N_3   0.407098 0.152200 0.362450 -0.570286
H11   H     H_    0.469729 0.134620 0.317370 0.216108
H12   H     H_    0.304140 0.129687 0.345095 0.265714
N8    N     N_3   0.592933 0.847801 0.637545 -0.570275
H13   H     H_    0.530322 0.865381 0.682633 0.216116
H14   H     H_    0.695896 0.870315 0.654886 0.265713
N9    N     N_3   0.409394 0.883857 0.360771 -0.624142
H15   H     H_    0.306610 0.910305 0.343053 0.242747
H16   H     H_    0.472766 0.914304 0.316444 0.231668
N10   N     N_3   0.590603 0.116144 0.639228 -0.624141
H17   H     H_    0.693387 0.089695 0.656947 0.242747
H18   H     H_    0.527230 0.085695 0.683555 0.231667
N11   N     N_3   0.153498 0.310431 0.588788 -0.513769
H19   H     H_    0.175466 0.245540 0.549046 0.237326
H20   H     H_    0.241330 0.336776 0.622627 0.273317
N12   N     N_3   0.846502 0.689568 0.411211 -0.513772
H21   H     H_    0.824530 0.754460 0.450951 0.237327
H22   H     H_    0.758674 0.663221 0.377370 0.273317
C33   C     C_2   0.869736 0.336881 0.612818 0.384522
H23   H     H_    0.761283 0.316041 0.610243 0.141652
O15   O     O_2   0.939412 0.292716 0.671057 -0.549083
C34   C     C_2   0.130264 0.663118 0.387182 0.384524
H24   H     H_    0.238716 0.683960 0.389757 0.141652
O16   O     O_2   0.060589 0.707279 0.328942 -0.549082

loop_
_geom_bond_atom_site_label_1
_geom_bond_atom_site_label_2
_ccdc_geom_bond_type
C27   H1    S    
C18   N5    S    
C1    O1    A    
N5    H4    S    
C20   N2    S    
C29   H7    S    
Cu1   O1    S    
C23   C31   S    
C32   H10   S    
N10   H18   S    
C22   C24   A    
C19   C21   A    
C15   C28   S    
C34   O16   D    
C6    C25   A    
C30   H8    S    
C13   C23   A    
C7    C9    A    
C14   C24   A    
C11   O5    A    
C32   O14   D    
N5    H3    S    
Cu2   O3    S    
N8    H13   S    
N7    H12   S    
N6    H6    S    
C4    N10   S    
C7    N11   S    
C2    O2    A    
N11   H20   S    
Cu2   O2    S    
C31   H9    S    
C27   O9    D    
C28   O10   D    
C29   O11   D    
C31   O13   D    
N10   H17   S    
Cu1   N3    S    
C1    C6    S    
Cu2   N4    S    
C25   N7    S    
C4    C6    A    
N9    H16   S    
C34   H24   S    
C22   C30   S    
Cu2   O7    S    
N11   H19   S    
C12   O8    A    
C3    N9    S    
N1    N2    D    
C33   H23   S    
Cu2   O6    S    
Cu1   O8    S    
N6    H5    S    
C16   C18   A    
C11   O7    A    
C9    C33   S    
N12   H22   S    
C33   O15   D    
C12   C14   S    
C13   C15   A    
C14   C16   A    
C2    C5    S    
C19   N1    S    
C28   H2    S    
C1    O3    A    
C2    O4    A    
C15   C17   A    
C10   C34   S    
C24   C32   S    
C7    N4    A    
C8    N3    A    
C8    C10   A    
C20   C22   A    
N12   H21   S    
C3    C5    A    
C17   N6    S    
C4    C26   A    
Cu1   O4    S    
C26   N8    S    
C21   C23   A    
N9    H15   S    
C21   C29   S    
C11   C13   S    
Cu1   O5    S    
C17   C19   A    
C30   O12   D    
C18   C20   A    
C12   O6    A    
C9    N3    A    
C5    C26   A    
C10   N4    A    
C3    C25   A    
N8    H14   S    
N7    H11   S    
Cu1   Cu2   S    
C8    N12   S    
C16   C27   S    
