data_mof_unit_44877.cif
_audit_creation_date              2012-12-11T15:14:53-0500
_audit_creation_method            fapswitch 2.2
_symmetry_space_group_name_H-M    P1
_symmetry_Int_Tables_number       1
_space_group_crystal_system       triclinic
_cell_length_a                    11.173079
_cell_length_b                    11.160756
_cell_length_c                    18.475741
_cell_angle_alpha                 90.332686
_cell_angle_beta                  90.02598
_cell_angle_gamma                 119.914941
_cell_volume                      1996.91701574

loop_
_atom_site_label
_atom_site_type_symbol
_atom_type_description
_atom_site_fract_x
_atom_site_fract_y
_atom_site_fract_z
_atom_type_partial_charge
C1    C     C_R   0.538450 0.428330 0.637275 0.503038
C2    C     C_R   0.427390 0.537836 0.362495 0.539185
C3    C     C_R   0.456716 0.880610 0.137280 0.534720
C4    C     C_R   0.072411 0.550818 0.357071 0.616024
C5    C     C_3   0.493497 0.076700 0.455695 0.432882
C6    C     C_3   0.587056 0.601735 0.016878 0.416000
C7    C     C_3   0.896811 0.400901 0.454835 0.408649
C8    C     C_3   0.396162 0.985130 0.020806 0.385557
C9    C     C_3   0.581329 0.499705 0.454767 0.427369
C10   C     C_3   0.017750 0.406708 0.017084 0.390603
C11   C     C_3   0.081414 0.508740 0.954807 0.417124
C12   C     C_R   0.884880 0.460276 0.862896 0.539162
C13   C     C_3   0.598184 0.589354 0.520962 0.380300
C14   C     C_3   0.385739 0.897408 0.954607 0.393849
C15   C     C_3   0.978177 0.390781 0.518769 0.384207
C16   C     C_3   0.486806 0.562914 0.953196 0.422947
C17   C     C_3   0.403009 0.004192 0.520847 0.380709
C18   C     C_3   0.624697 0.122106 0.501301 -0.095968
C19   C     C_3   0.608755 0.478112 0.999813 -0.174357
C20   C     C_3   0.853724 0.489277 0.500343 -0.106523
C21   C     C_3   0.533827 0.104804 0.993463 -0.179823
C22   C     C_3   0.494769 0.367411 0.498977 -0.106817
C23   C     C_R   0.568754 0.106940 0.637578 0.502073
C24   C     C_3   0.874220 0.385868 0.999910 -0.167716
C25   C     C_3   0.109158 0.630478 0.005493 -0.131717
C26   C     C_3   0.465550 0.592196 0.500969 -0.196929
C27   C     C_3   0.462615 0.834890 0.995586 -0.127682
C28   C     C_3   0.109481 0.522730 0.494594 -0.192153
C29   C     C_3   0.364347 0.469500 0.001986 -0.138412
C30   C     C_3   0.400288 0.868756 0.500563 -0.196308
C31   C     C_3   0.532955 0.046070 0.565798 -0.081099
C32   C     C_3   0.509473 0.442988 0.935823 -0.047618
C33   C     C_3   0.937861 0.480549 0.563649 -0.078907
C34   C     C_R   0.541523 0.421886 0.862147 0.543844
C35   C     C_3   0.520696 0.013469 0.928016 -0.031099
C36   C     C_3   0.510239 0.458741 0.564701 -0.081345
C37   C     C_3   0.939442 0.488603 0.937103 -0.050001
C38   C     C_3   0.045154 0.527440 0.066969 -0.066194
C39   C     C_3   0.452751 0.503708 0.434467 -0.048843
C40   C     C_3   0.474731 0.926144 0.061460 -0.076767
C41   C     C_3   0.024025 0.529105 0.430696 -0.044870
C42   C     C_3   0.465777 0.507619 0.065569 -0.068622
C43   C     C_3   0.491258 0.944315 0.435226 -0.053592
C44   C     C_3   0.535225 0.914184 0.545381 -0.037459
C45   C     C_R   0.885639 0.458684 0.637447 0.506212
C46   C     C_3   0.384775 0.346691 0.983673 -0.007452
C47   C     C_3   0.066039 0.614147 0.539305 -0.040656
C48   C     C_3   0.601273 0.954190 0.967677 0.019869
C49   C     C_3   0.375920 0.456549 0.543948 -0.034680
C50   C     C_3   0.966591 0.610987 0.988240 -0.014538
C51   C     C_3   0.903629 0.509107 0.051249 -0.038510
C52   C     C_3   0.363061 0.368713 0.477102 -0.002377
C53   C     C_3   0.613435 0.043469 0.033614 -0.029247
C54   C     C_3   0.982623 0.620963 0.474958 0.003718
C55   C     C_3   0.483111 0.382749 0.048296 -0.051780
C56   C     C_R   0.546527 0.065936 0.855205 0.590165
C57   C     C_3   0.624890 0.989365 0.479702 -0.003582
C58   C     C_2   0.576174 0.843003 0.601793 0.674045
C59   C     C_2   0.264199 0.204750 0.969229 0.700314
C60   C     C_2   0.138661 0.732000 0.593238 0.681216
C61   C     C_2   0.724936 0.954755 0.934025 0.722704
C62   C     C_2   0.260034 0.412832 0.597979 0.681907
C63   C     C_2   0.946685 0.732985 0.976533 0.695098
C64   C     C_2   0.825737 0.518962 0.115942 0.660918
C65   C     C_2   0.238261 0.240609 0.447960 0.708118
C66   C     C_2   0.740776 0.107610 0.081277 0.691284
C67   C     C_R   0.431934 0.536264 0.137356 0.519926
C68   C     C_2   0.982267 0.746888 0.445065 0.717562
C69   C     C_2   0.464067 0.278887 0.105594 0.662950
C70   C     C_2   0.753960 0.993130 0.451969 0.710175
C71   C     C_R   0.461039 0.887078 0.362444 0.543366
C72   C     C_R   0.108775 0.568725 0.137605 0.517953
Cr1   Cr    Cr6+3 0.769930 0.543130 0.750000 1.178486
Cr2   Cr    Cr6+3 0.773200 0.230070 0.750000 1.142618
Cr3   Cr    Cr6+3 0.456870 0.226800 0.750000 1.153890
Cr4   Cr    Cr6+3 0.543130 0.769930 0.250000 1.115483
Cr5   Cr    Cr6+3 0.230070 0.773200 0.250000 1.120778
Cr6   Cr    Cr6+3 0.226800 0.456870 0.250000 1.128663
F1    F     F_    0.477780 0.155616 0.403311 -0.506189
F2    F     F_    0.964135 0.268247 0.543707 -0.531171
F3    F     F_    0.476965 0.641439 0.898441 -0.519247
F4    F     F_    0.296784 0.024622 0.543250 -0.531614
F5    F     F_    0.686403 0.734206 0.036365 -0.561127
F6    F     F_    0.815519 0.303384 0.403619 -0.509995
F7    F     F_    0.284602 0.990402 0.048723 -0.563736
F8    F     F_    0.674425 0.512462 0.402211 -0.513023
F9    F     F_    0.042591 0.301633 0.035192 -0.567135
F10   F     F_    0.169990 0.509999 0.902142 -0.524964
F11   F     F_    0.724020 0.693817 0.545411 -0.529691
F12   F     F_    0.275257 0.831417 0.907301 -0.559144
H1    H     H_    0.705271 0.223607 0.518121 0.128515
H2    H     H_    0.210958 0.533858 0.483926 0.101244
H3    H     H_    0.270791 0.474624 0.009584 0.188568
H4    H     H_    0.310674 0.767648 0.490138 0.103999
H5    H     H_    0.518809 0.702205 0.681058 0.379354
H6    H     H_    0.176587 0.032211 0.907445 0.372446
H7    H     H_    0.282406 0.824121 0.671216 0.377999
H8    H     H_    0.926673 0.066681 0.907780 0.362719
H9    H     H_    0.164313 0.467357 0.672248 0.382691
H10   H     H_    0.965174 0.908524 0.017896 0.405710
H11   H     H_    0.758668 0.630261 0.170713 0.373743
H12   H     H_    0.698902 0.471247 0.985628 0.081441
H13   H     H_    0.161273 0.087080 0.373468 0.331980
H14   H     H_    0.902940 0.094753 0.120166 0.386655
H15   H     H_    0.911844 0.825650 0.368972 0.327141
H16   H     H_    0.335809 0.134272 0.176131 0.381763
H17   H     H_    0.907403 0.067841 0.378368 0.331426
H18   H     H_    0.752207 0.466761 0.517616 0.120417
H19   H     H_    0.558546 0.212422 0.985378 0.094478
H20   H     H_    0.514149 0.283707 0.511412 0.143781
H21   H     H_    0.781880 0.289245 0.986580 0.119806
H22   H     H_    0.197437 0.726401 0.023723 0.163708
H23   H     H_    0.451127 0.679160 0.490479 0.092673
H24   H     H_    0.418771 0.724852 0.006142 0.128724
O1    O     O_R   0.913270 0.574260 0.668550 -0.444781
O2    O     O_R   0.574260 0.913270 0.331450 -0.449228
O3    O     O_R   0.086730 0.660990 0.168550 -0.453121
O4    O     O_R   0.339010 0.425740 0.331450 -0.456938
O5    O     O_R   0.640160 0.530400 0.673300 -0.451961
O6    O     O_R   0.890240 0.359840 0.826700 -0.441026
O7    O     O_R   0.469600 0.109760 0.673300 -0.463133
O8    O     O_R   0.640160 0.530400 0.826700 -0.427287
O9    O     O_R   0.890240 0.359840 0.673300 -0.455616
O10   O     O_R   0.469600 0.109760 0.826700 -0.459391
O11   O     O_R   0.530400 0.640160 0.173300 -0.470782
O12   O     O_R   0.660990 0.086730 0.831450 -0.503527
O13   O     O_R   0.359840 0.890240 0.326700 -0.440733
O14   O     O_R   0.109760 0.469600 0.173300 -0.436171
O15   O     O_R   0.530400 0.640160 0.326700 -0.458214
O16   O     O_R   0.359840 0.890240 0.173300 -0.449167
O17   O     O_R   0.109760 0.469600 0.326700 -0.479850
O18   O     O_3   0.666667 0.333333 0.750000 -0.432669
O19   O     O_3   0.333333 0.666667 0.250000 -0.425187
O20   O     O_2   0.698376 0.886395 0.614620 -0.336265
O21   O     O_R   0.477105 0.737036 0.643705 -0.598256
O22   O     O_2   0.167192 0.156861 0.011171 -0.359957
O23   O     O_R   0.425740 0.339010 0.668550 -0.446915
O24   O     O_R   0.263417 0.126181 0.910048 -0.634172
O25   O     O_2   0.091997 0.808571 0.605367 -0.327572
O26   O     O_R   0.248274 0.745386 0.634841 -0.598075
O27   O     O_2   0.712816 0.852281 0.903467 -0.358573
O28   O     O_R   0.852082 0.077536 0.933065 -0.621336
O29   O     O_2   0.187609 0.290438 0.612539 -0.336520
O30   O     O_R   0.240306 0.510219 0.634835 -0.598827
O31   O     O_2   0.891501 0.742213 0.921525 -0.436043
O32   O     O_R   0.990411 0.835426 0.029909 -0.537432
O33   O     O_2   0.803164 0.442725 0.167533 -0.342713
O34   O     O_R   0.913270 0.574260 0.831450 -0.422453
O35   O     O_R   0.799725 0.628303 0.122133 -0.601594
O36   O     O_2   0.125593 0.197473 0.476011 -0.372327
O37   O     O_R   0.251853 0.171006 0.388279 -0.559292
O38   O     O_2   0.758561 0.196696 0.125276 -0.384104
O39   O     O_R   0.828103 0.051445 0.081786 -0.569892
O40   O     O_2   0.055518 0.860764 0.471938 -0.374830
O41   O     O_R   0.901936 0.734150 0.384480 -0.563143
O42   O     O_2   0.560066 0.263799 0.123817 -0.439861
O43   O     O_R   0.334929 0.198167 0.137606 -0.550081
O44   O     O_2   0.798272 0.925460 0.481100 -0.360753
O45   O     O_R   0.660990 0.086730 0.668550 -0.449358
O46   O     O_R   0.823473 0.074921 0.392475 -0.554236
O47   O     O_R   0.425740 0.339010 0.831450 -0.423872
O48   O     O_R   0.574260 0.913270 0.168550 -0.440560
O49   O     O_R   0.086730 0.660990 0.331450 -0.491977
O50   O     O_R   0.339010 0.425740 0.168550 -0.436190

loop_
_geom_bond_atom_site_label_1
_geom_bond_atom_site_label_2
_ccdc_geom_bond_type
C27   C48   S    
Cr5   O49   S    
C29   H3    S    
C28   C47   S    
Cr6   O50   S    
C13   C26   S    
Cr1   O5    S    
Cr2   O18   S    
C29   C42   S    
C3    O16   A    
C33   C45   S    
C59   O22   D    
Cr4   O48   S    
C62   O29   D    
C68   O41   S    
Cr6   O14   S    
H17   O46   S    
C2    O4    A    
C23   O7    A    
C58   O20   D    
C6    C19   S    
Cr2   O45   S    
C72   O14   A    
C57   C70   S    
C18   H1    S    
C56   O10   A    
Cr6   O4    S    
C17   F4    S    
C68   O40   D    
C67   O11   A    
H6    O24   S    
C9    F8    S    
C19   H12   S    
C9    C22   S    
C5    C17   S    
C4    C41   S    
C19   C32   S    
C28   C41   S    
C9    C39   S    
C2    O15   A    
C8    F7    S    
C1    O5    A    
C65   O36   D    
C11   C37   S    
C9    C13   S    
C25   C50   S    
C14   F12   S    
C25   H22   S    
C47   C60   S    
C12   O6    A    
C2    C39   S    
C44   C58   S    
C22   H20   S    
C23   O45   A    
C46   C55   S    
C69   O43   S    
C49   C62   S    
C56   O12   A    
C14   C27   S    
C5    F1    S    
C44   C57   S    
H7    O26   S    
Cr5   O13   S    
H13   O37   S    
C13   F11   S    
C34   O47   A    
C24   C51   S    
C7    C15   S    
C7    F6    S    
C5    C43   S    
Cr1   O18   S    
C34   O8    A    
C32   C46   S    
H8    O28   S    
C17   C30   S    
C30   C44   S    
C24   H21   S    
Cr5   O19   S    
C35   C48   S    
C67   O50   A    
C24   C37   S    
C4    O17   A    
C50   C63   S    
C48   C53   S    
C38   C72   S    
C10   F9    S    
C69   O42   D    
C31   C44   S    
Cr1   O34   S    
Cr3   O10   S    
Cr2   O9    S    
H9    O30   S    
C13   C36   S    
C20   C54   S    
Cr3   O23   S    
C26   C49   S    
H10   O32   S    
C14   C35   S    
C38   C51   S    
C71   O13   A    
C59   O24   S    
C10   C24   S    
C16   C29   S    
C45   O9    A    
C65   O37   S    
C70   O44   D    
C23   C31   S    
C72   O3    A    
Cr6   O17   S    
C36   C49   S    
C66   O38   D    
C25   C38   S    
Cr4   O15   S    
C45   O1    A    
C18   C57   S    
C15   F2    S    
C11   F10   S    
C49   C52   S    
H5    O21   S    
C50   C51   S    
C4    O49   A    
C28   H2    S    
C53   C66   S    
C55   C69   S    
C60   O26   S    
C47   C54   S    
C21   C35   S    
C20   C33   S    
C61   O27   D    
C3    O48   A    
C3    C40   S    
C40   C53   S    
C64   O33   D    
C6    C42   S    
C42   C67   S    
C17   C31   S    
C8    C14   S    
C30   C43   S    
H14   O39   S    
C1    O23   A    
Cr3   O18   S    
C22   C52   S    
C19   C55   S    
C43   C71   S    
C6    F5    S    
C63   O32   S    
C27   C40   S    
H15   O41   S    
C35   C56   S    
Cr3   O7    S    
Cr4   O11   S    
Cr1   O8    S    
C51   C64   S    
C62   O30   S    
C8    C21   S    
C66   O39   S    
C21   H19   S    
Cr4   O19   S    
C5    C18   S    
C58   O21   S    
C16   C32   S    
H16   O43   S    
C22   C36   S    
C29   C46   S    
Cr5   O3    S    
Cr1   O1    S    
C10   C38   S    
C64   O35   S    
Cr3   O47   S    
C12   O34   A    
C26   H23   S    
C30   H4    S    
C21   C53   S    
C37   C50   S    
C15   C28   S    
Cr2   O12   S    
C42   C55   S    
C33   C47   S    
H11   O35   S    
C16   F3    S    
Cr4   O2    S    
C15   C33   S    
C71   O2    A    
C39   C52   S    
C70   O46   S    
Cr5   O16   S    
C7    C41   S    
C26   C39   S    
Cr6   O19   S    
C41   C54   S    
C10   C11   S    
C43   C57   S    
C60   O25   D    
C6    C16   S    
Cr2   O6    S    
C27   H24   S    
C61   O28   S    
C54   C68   S    
C46   C59   S    
C7    C20   S    
C12   C37   S    
C48   C61   S    
C11   C25   S    
C18   C31   S    
C8    C40   S    
C63   O31   D    
C52   C65   S    
C1    C36   S    
C32   C34   S    
C20   H18   S    
