data_mof_unit_42333.cif
_audit_creation_date              2013-03-05T15:42:25-0500
_audit_creation_method            fapswitch 2.2
_symmetry_space_group_name_H-M    P1
_symmetry_Int_Tables_number       1
_space_group_crystal_system       triclinic
_cell_length_a                    11.101745
_cell_length_b                    11.121043
_cell_length_c                    18.673985
_cell_angle_alpha                 90.276568
_cell_angle_beta                  90.125144
_cell_angle_gamma                 59.910686
_cell_volume                      1994.83861208

loop_
_atom_site_label
_atom_site_type_symbol
_atom_site_description
_atom_site_fract_x
_atom_site_fract_y
_atom_site_fract_z
_atom_type_partial_charge
O1    O     O_R   0.507340 0.255690 0.581430 -0.500189
O2    O     O_R   0.280360 0.527380 0.578910 -0.470353
C1    C     C_R   0.233259 0.647563 0.608369 0.594588
O3    O     O_R   0.260600 0.739610 0.584580 -0.492691
O4    O     O_R   0.532370 0.695050 0.573830 -0.502969
C2    C     C_R   0.628040 0.587681 0.608719 0.511838
O5    O     O_R   0.744850 0.503430 0.576380 -0.463718
O6    O     O_R   0.699080 0.276500 0.571950 -0.484381
C3    C     C_R   0.626522 0.231888 0.604052 0.567106
O7    O     O_R   0.498860 0.256520 0.419860 -0.485088
O8    O     O_R   0.272490 0.528150 0.429140 -0.474476
C4    C     C_R   0.221116 0.648868 0.401415 0.611175
O9    O     O_R   0.252110 0.740440 0.423010 -0.478376
O10   O     O_R   0.524510 0.695820 0.424050 -0.481478
C5    C     C_R   0.642740 0.625760 0.393094 0.597304
O11   O     O_R   0.736370 0.504260 0.414810 -0.473503
O12   O     O_R   0.691220 0.277270 0.422180 -0.474098
C6    C     C_R   0.619593 0.226380 0.395854 0.604199
Cr1   Cr    Cr6+3 0.392940 0.397950 0.502230 1.159845
Cr2   Cr    Cr6+3 0.398400 0.708500 0.501260 1.130953
Cr3   Cr    Cr6+3 0.708640 0.393530 0.496460 1.169143
O13   O     O_3   0.499990 0.499990 0.499980 -0.354784
C7    C     C_3   0.529334 0.739583 0.800339 -0.229277
H1    H     H_    0.480157 0.852254 0.812106 0.179720
H2    H     H_    0.474693 0.700616 0.834856 0.090956
C8    C     C_3   0.506678 0.717332 0.720993 -0.230920
H3    H     H_    0.441352 0.668275 0.718066 0.103643
H4    H     H_    0.450103 0.819350 0.693553 0.150175
C9    C     C_3   0.771103 0.701580 0.766730 0.118813
C10   C     C_3   0.739190 0.502545 0.804674 -0.284782
C11   C     C_3   0.687411 0.658999 0.817788 0.044833
H5    H     H_    0.852533 0.438074 0.816110 0.149822
H6    H     H_    0.684137 0.466652 0.840890 0.114990
C12   C     C_3   0.647306 0.617662 0.683829 0.020589
C13   C     C_3   0.746406 0.678512 0.687447 -0.119784
C14   C     C_3   0.713893 0.479122 0.726138 -0.271162
H7    H     H_    0.642847 0.436001 0.724475 0.106848
H8    H     H_    0.814526 0.401471 0.701501 0.156155
H9    H     H_    0.883739 0.629459 0.777811 0.123909
H10   H     H_    0.847796 0.595715 0.667358 0.178960
H11   H     H_    0.439231 0.272465 0.701594 0.156071
C15   C     C_R   0.681982 0.179115 0.829441 0.021388
C16   C     C_R   0.796880 0.158405 0.787556 0.035332
C17   C     C_R   0.791276 0.148455 0.711498 0.028129
C18   C     C_R   0.542323 0.233475 0.723512 -0.123365
C19   C     C_R   0.553334 0.229734 0.796789 -0.117658
C20   C     C_R   0.915416 0.150368 0.819545 -0.099051
C21   C     C_R   0.028710 0.126390 0.778372 -0.198498
C22   C     C_R   0.028832 0.105444 0.705242 -0.132575
C23   C     C_R   0.916021 0.105286 0.671712 0.220508
C24   C     C_R   0.659520 0.189808 0.679371 0.013955
H12   H     H_    0.919200 0.170340 0.875933 0.130717
H13   H     H_    0.462992 0.252689 0.828206 0.139559
H14   H     H_    0.120477 0.115207 0.804140 0.104631
H15   H     H_    0.122894 0.077442 0.675530 0.145618
H16   H     H_    0.198130 0.848345 0.695138 0.144709
C25   C     C_R   0.171479 0.670420 0.831684 0.016163
C26   C     C_R   0.174529 0.558253 0.793325 -0.006067
C27   C     C_R   0.158775 0.565212 0.717337 -0.002870
C28   C     C_R   0.178561 0.773462 0.720614 -0.133244
C29   C     C_R   0.178642 0.773861 0.793978 -0.132473
C30   C     C_R   0.197586 0.437483 0.828890 -0.121593
C31   C     C_R   0.194417 0.331025 0.792065 -0.187459
C32   C     C_R   0.159687 0.345539 0.720006 -0.132136
C33   C     C_R   0.136664 0.463367 0.681843 0.179410
C34   C     C_R   0.174354 0.668669 0.680954 0.041449
H17   H     H_    0.228509 0.419397 0.884549 0.127798
H18   H     H_    0.183400 0.857263 0.821395 0.140945
H19   H     H_    0.220874 0.236538 0.820148 0.119098
H20   H     H_    0.152311 0.263515 0.693364 0.155907
H21   H     H_    0.448752 0.844594 0.311502 0.168292
C35   C     C_R   0.656025 0.670370 0.170539 -0.008422
C36   C     C_R   0.756943 0.557709 0.210279 0.004241
C37   C     C_R   0.777711 0.579687 0.282057 0.022002
C38   C     C_R   0.543196 0.773200 0.283550 -0.135055
C39   C     C_R   0.548862 0.781465 0.208701 -0.159439
C40   C     C_R   0.841856 0.426425 0.180105 -0.098483
C41   C     C_R   0.959507 0.330905 0.216086 -0.200829
C42   C     C_R   0.996710 0.367099 0.280801 -0.136243
C43   C     C_R   0.908347 0.492880 0.313926 0.227953
C44   C     C_R   0.659599 0.670920 0.321354 0.052134
H22   H     H_    0.818128 0.398123 0.128550 0.129184
H23   H     H_    0.469863 0.871644 0.180812 0.142484
H24   H     H_    0.022729 0.231731 0.191169 0.108235
H25   H     H_    0.092487 0.298272 0.306800 0.138774
H26   H     H_    0.829972 0.204582 0.311708 0.172781
C45   C     C_R   0.650622 0.168556 0.175503 -0.004010
C46   C     C_R   0.543153 0.172403 0.215825 -0.000416
C47   C     C_R   0.567437 0.133324 0.288006 0.020975
C48   C     C_R   0.758215 0.179662 0.285696 -0.137743
C49   C     C_R   0.759767 0.171724 0.211541 -0.157207
C50   C     C_R   0.413441 0.212327 0.186103 -0.103989
C51   C     C_R   0.319743 0.191467 0.223911 -0.207289
C52   C     C_R   0.356014 0.123915 0.289949 -0.132338
C53   C     C_R   0.481896 0.090345 0.322163 0.237792
C54   C     C_R   0.660461 0.161649 0.325009 0.058271
H27   H     H_    0.383218 0.261869 0.134199 0.133319
H28   H     H_    0.845590 0.167769 0.182406 0.143250
H29   H     H_    0.221696 0.224781 0.199115 0.111442
H30   H     H_    0.287191 0.098251 0.317187 0.148408
H31   H     H_    0.195050 0.455888 0.320412 0.175442
C55   C     C_R   0.163538 0.662075 0.181726 -0.008706
C56   C     C_R   0.180468 0.759643 0.221232 -0.001406
C57   C     C_R   0.133672 0.784275 0.291843 0.017552
C58   C     C_R   0.171747 0.550541 0.293085 -0.129427
C59   C     C_R   0.159807 0.554851 0.218643 -0.162689
C60   C     C_R   0.225820 0.843677 0.190102 -0.095394
C61   C     C_R   0.192934 0.967780 0.222256 -0.192567
C62   C     C_R   0.117513 0.007786 0.286091 -0.133114
C63   C     C_R   0.086713 0.917197 0.322041 0.229801
C64   C     C_R   0.156546 0.667849 0.330910 0.063166
H32   H     H_    0.278043 0.817817 0.138618 0.128019
H33   H     H_    0.148915 0.475864 0.190290 0.142455
H34   H     H_    0.220962 0.033445 0.194335 0.110166
H35   H     H_    0.083496 0.108036 0.308732 0.139229
O14   O     O_R   0.089570 0.825450 0.930590 -0.521231
O15   O     O_R   0.818700 0.054260 0.929860 -0.503360
C65   C     C_R   0.699967 0.107850 0.898353 0.588577
O16   O     O_R   0.606310 0.077010 0.915520 -0.489433
O17   O     O_R   0.646730 0.806540 0.917560 -0.469274
C66   C     C_R   0.717678 0.682776 0.891829 0.552264
O18   O     O_R   0.837290 0.593240 0.915240 -0.536210
O19   O     O_R   0.065320 0.635310 0.931580 -0.503600
C67   C     C_R   0.117093 0.706040 0.905309 0.558751
O20   O     O_R   0.068470 0.828620 0.091850 -0.519136
O21   O     O_R   0.799150 0.057200 0.079350 -0.511148
C68   C     C_R   0.674760 0.109411 0.103303 0.534071
O22   O     O_R   0.585220 0.080180 0.076770 -0.530555
O23   O     O_R   0.627170 0.809480 0.067050 -0.509395
C69   C     C_R   0.695052 0.689559 0.097498 0.535334
O24   O     O_R   0.816200 0.596410 0.076500 -0.522916
O25   O     O_R   0.045770 0.638240 0.081070 -0.506841
C70   C     C_R   0.097809 0.706364 0.111403 0.542717
Cr4   Cr    Cr6+3 0.937880 0.938320 0.007620 1.015561
Cr5   Cr    Cr6+3 0.625560 0.937220 0.994510 1.034742
Cr6   Cr    Cr6+3 0.938080 0.625010 0.001190 1.014273
O26   O     O_3   0.833840 0.833520 0.001110 -0.236646
N1    N     N_R   0.937219 0.046644 0.600888 0.100796
O27   O     O_R   0.880819 0.973082 0.582331 -0.291197
O28   O     O_R   0.034589 0.042357 0.560491 -0.252846
N2    N     N_R   0.083731 0.479740 0.609585 0.080170
O29   O     O_R   0.008273 0.602483 0.581660 -0.296846
O30   O     O_R   0.100492 0.372049 0.573415 -0.272927
N3    N     N_R   0.949914 0.529772 0.379912 0.077012
O31   O     O_R   0.043583 0.433998 0.420850 -0.267498
O32   O     O_R   0.896192 0.659361 0.398858 -0.246227
N4    N     N_R   0.521537 0.013623 0.388385 0.074410
O33   O     O_R   0.651988 0.939960 0.406348 -0.259708
O34   O     O_R   0.427984 0.011683 0.429500 -0.316934
N5    N     N_R   0.005198 0.962532 0.386792 0.087686
O35   O     O_R   0.987259 0.073243 0.420196 -0.278653
O36   O     O_R   0.937022 0.902638 0.408640 -0.226390
N6    N     N_R   0.744363 0.842421 0.780903 0.074662
O37   O     O_R   0.619561 0.948819 0.775621 -0.377758
O38   O     O_R   0.847876 0.861855 0.795546 -0.347311
C71   C     C_3   0.705268 0.804356 0.637766 -0.258497
H36   H     H_    0.715094 0.772769 0.580646 0.220375
H37   H     H_    0.597138 0.889246 0.647445 0.172688
H38   H     H_    0.777281 0.844944 0.645980 0.219912

loop_
_geom_bond_atom_site_label_1
_geom_bond_atom_site_label_2
_geom_bond_distance
_ccdc_geom_bond_type
O20   Cr4   2.073486 S    
C26   C30   1.404866 A    
H21   C38   1.079753 S    
C45   C46   1.394523 A    
C51   C52   1.396685 A    
C45   C49   1.400486 A    
C6    C54   1.462941 S    
C60   H32   1.084312 S    
N4    O33   1.300735 A    
C3    C24   1.470942 S    
C35   C39   1.403938 A    
Cr4   O26   2.013710 S    
C45   C68   1.462378 S    
C48   C49   1.386739 A    
O19   C67   1.283768 A    
C5    C44   1.477781 S    
O4    Cr2   1.959850 S    
C40   C41   1.377577 A    
C21   H14   1.075308 S    
O8    Cr1   1.953783 S    
C8    H3    1.105825 S    
O21   C68   1.280794 A    
C30   H17   1.081581 S    
C71   H36   1.109732 S    
N4    O34   1.301823 A    
O2    C1    1.286791 A    
N2    O30   1.301705 A    
C27   C34   1.422269 A    
C15   C19   1.386297 A    
C10   C11   1.552875 S    
O14   Cr4   2.086698 S    
C18   C24   1.405488 A    
O20   C70   1.283815 A    
C5    O11   1.290665 A    
C61   C62   1.394891 A    
C12   C13   1.555212 S    
C36   C37   1.400546 A    
C7    C8    1.541810 S    
C61   H34   1.064986 S    
C25   C29   1.387531 A    
C65   O16   1.289032 A    
O23   Cr5   1.961226 S    
N2    O29   1.302069 A    
C8    C12   1.552349 S    
C46   C50   1.391639 A    
O25   C70   1.289149 A    
C43   N3    1.442961 S    
C7    H1    1.108303 S    
C32   H20   1.075478 S    
N6    O38   1.299689 A    
C51   H29   1.063754 S    
C10   H6    1.113239 S    
C58   C64   1.414297 A    
C28   C34   1.398189 A    
C37   C43   1.409744 A    
Cr3   O13   2.005419 S    
C52   C53   1.389121 A    
O15   Cr4   1.954676 S    
C39   H23   1.080411 S    
C50   H27   1.083486 S    
O6    Cr3   1.961959 S    
H31   C58   1.080255 S    
O1    Cr1   2.074371 S    
C59   H33   1.080879 S    
C10   H5    1.112969 S    
C31   H19   1.077329 S    
Cr1   O13   2.013669 S    
O1    C3    1.283222 A    
C13   C71   1.548460 S    
C11   C66   1.475824 S    
N3    O32   1.300758 A    
O24   Cr6   2.086608 S    
H26   C48   1.079708 S    
O22   Cr5   2.086479 S    
C41   C42   1.397439 A    
C38   C44   1.411402 A    
C26   C27   1.427073 A    
C18   C19   1.372524 A    
O16   Cr5   2.079884 S    
C2    C12   1.479836 S    
C28   C29   1.369986 A    
C7    C11   1.553201 S    
C47   C53   1.413464 A    
C38   C39   1.404806 A    
C30   C31   1.381881 A    
O10   Cr2   1.966654 S    
C33   N2    1.445988 S    
C69   O24   1.279510 A    
C20   C21   1.382087 A    
C52   H30   1.070373 S    
O7    Cr1   2.086295 S    
O25   Cr6   1.960243 S    
C9    H9    1.115608 S    
O12   C6    1.281076 A    
O6    C3    1.288436 A    
C53   N4    1.442996 S    
C4    O9    1.290309 A    
C35   C69   1.480460 S    
O18   Cr6   2.082324 S    
C66   O18   1.273496 A    
C2    O5    1.305334 A    
N1    O28   1.300534 A    
C17   C24   1.426641 A    
C21   C22   1.384147 A    
Cr2   O13   2.006710 S    
C16   C17   1.427721 A    
N5    O36   1.300943 A    
C42   C43   1.385654 A    
C1    C34   1.472035 S    
C15   C16   1.414188 A    
C60   C61   1.373449 A    
C68   O22   1.288262 A    
C42   H25   1.066519 S    
O17   C66   1.286056 A    
C9    N6    1.463416 S    
O23   C69   1.291332 A    
C17   C23   1.426451 A    
Cr5   O26   2.004515 S    
C14   H7    1.109972 S    
H11   C18   1.080500 S    
O14   C67   1.291291 A    
O9    Cr2   2.077308 S    
O2    Cr1   1.966825 S    
N5    O35   1.300739 A    
C71   H38   1.107730 S    
C15   C65   1.474468 S    
C35   C36   1.404825 A    
C63   N5    1.441057 S    
C57   C64   1.397061 A    
O8    C4    1.278019 A    
C23   N1    1.438415 S    
O11   Cr3   2.082378 S    
C48   C54   1.407024 A    
C20   H12   1.080180 S    
C58   C59   1.394910 A    
C9    C13   1.548568 S    
C8    H4    1.110830 S    
C10   C14   1.537998 S    
O19   Cr6   1.967218 S    
N3    O31   1.301552 A    
O17   Cr5   1.967488 S    
C32   C33   1.400958 A    
C47   C54   1.401505 A    
C71   H37   1.108119 S    
C13   H10   1.102197 S    
C55   C70   1.463305 S    
C9    C11   1.563962 S    
C22   H15   1.081702 S    
O15   C65   1.284969 A    
C27   C33   1.432905 A    
C25   C67   1.473199 S    
C57   C63   1.412620 A    
C29   H18   1.081504 S    
C25   C26   1.421065 A    
O4    C2    1.308110 A    
C40   H22   1.083716 S    
O7    C6    1.288619 A    
O5    Cr3   2.086893 S    
C19   H13   1.076890 S    
C14   H8    1.112014 S    
C50   C51   1.371534 A    
C55   C59   1.398748 A    
C12   C14   1.552949 S    
C7    H2    1.113227 S    
C49   H28   1.079709 S    
C55   C56   1.397531 A    
O12   Cr3   1.966053 S    
N1    O27   1.300513 A    
C62   H35   1.066918 S    
C31   C32   1.386678 A    
O3    Cr2   2.086964 S    
C41   H24   1.070440 S    
H16   C28   1.073649 S    
C46   C47   1.401774 A    
O21   Cr4   1.965802 S    
C22   C23   1.399755 A    
C56   C57   1.392988 A    
C36   C40   1.397179 A    
O10   C5    1.279676 A    
Cr6   O26   2.006386 S    
C56   C60   1.393954 A    
C37   C44   1.396541 A    
N6    O37   1.298526 A    
C62   C63   1.391209 A    
C16   C20   1.405612 A    
C4    C64   1.462433 S    
C1    O3    1.286036 A    
