data_mof_unit_40300.cif
_audit_creation_date              2012-12-10T19:44:37-0500
_audit_creation_method            fapswitch 2.2
_symmetry_space_group_name_H-M    P1
_symmetry_Int_Tables_number       1
_space_group_crystal_system       triclinic
_cell_length_a                    8.579878
_cell_length_b                    15.011201
_cell_length_c                    14.15782
_cell_angle_alpha                 90.009856
_cell_angle_beta                  98.783805
_cell_angle_gamma                 89.919459
_cell_volume                      1802.05822085

loop_
_atom_site_label
_atom_site_type_symbol
_atom_type_description
_atom_site_fract_x
_atom_site_fract_y
_atom_site_fract_z
_atom_type_partial_charge
C1    C     C_R   0.500066 0.327747 0.499998 0.863470
C2    C     C_R   0.500086 0.672242 0.500016 0.862740
C3    C     C_R   0.454435 0.421681 0.101372 0.405004
C4    C     C_R   0.415971 0.567691 0.886245 0.410755
C5    C     C_R   0.461319 0.423981 0.201538 -0.094153
C6    C     C_R   0.424026 0.566631 0.787493 -0.095017
C7    C     C_R   0.536684 0.575309 0.206863 -0.039780
C8    C     C_R   0.573829 0.433861 0.803209 -0.039792
C9    C     C_R   0.534628 0.576172 0.107379 -0.295765
C10   C     C_R   0.572606 0.432912 0.902343 -0.310923
C11   C     C_R   0.493876 0.499103 0.052547 0.019661
C12   C     C_R   0.494094 0.500237 0.946001 0.020564
C13   C     C_R   0.200928 0.500069 0.475002 0.976548
C14   C     C_R   0.799081 0.500126 0.525025 0.978549
C15   C     C_2   0.035786 0.500131 0.461548 -0.385937
C16   C     C_2   0.964238 0.500405 0.538559 -0.390751
C17   C     C_R   0.447117 0.094064 0.574712 -0.177792
C18   C     C_R   0.446018 0.905976 0.415679 -0.176617
C19   C     C_R   0.447483 0.186022 0.574958 -0.196720
C20   C     C_R   0.446437 0.814020 0.415494 -0.198228
C21   C     C_R   0.500473 0.231991 0.500018 -0.025717
C22   C     C_R   0.500598 0.767979 0.500068 -0.024114
C23   C     C_R   0.554059 0.186078 0.425163 -0.195469
C24   C     C_R   0.555432 0.813795 0.584655 -0.193135
C25   C     C_R   0.555588 0.094120 0.425584 -0.175836
C26   C     C_R   0.556903 0.905756 0.584513 -0.176437
C27   C     C_R   0.501616 0.048086 0.500184 0.114145
C28   C     C_R   0.501664 0.951871 0.500112 0.114782
H1    H     H_    0.973574 0.499826 0.388571 0.182885
H2    H     H_    0.026428 0.500774 0.611552 0.175812
H3    H     H_    0.402974 0.058877 0.631960 0.133828
H4    H     H_    0.400928 0.941226 0.350417 0.133288
H5    H     H_    0.404502 0.221044 0.632785 0.153551
H6    H     H_    0.402541 0.779053 0.349867 0.150274
H7    H     H_    0.596595 0.221145 0.367267 0.155330
H8    H     H_    0.598968 0.778639 0.650257 0.156351
H9    H     H_    0.600019 0.058975 0.368353 0.134633
H10   H     H_    0.602255 0.940836 0.649806 0.133732
H11   H     H_    0.433201 0.364422 0.238356 0.153744
H12   H     H_    0.366912 0.618945 0.742245 0.152085
H13   H     H_    0.568630 0.635216 0.247589 0.147977
H14   H     H_    0.634778 0.381680 0.770780 0.148679
H15   H     H_    0.567129 0.636670 0.073643 0.192541
H16   H     H_    0.634310 0.380174 0.944851 0.199961
N1    N     N_R   0.500000 0.499980 0.252470 -0.113063
N2    N     N_R   0.500000 0.500020 0.747530 -0.116158
O1    O     O_R   0.500010 0.369070 0.579480 -0.627894
O2    O     O_R   0.499990 0.630930 0.420520 -0.632753
O3    O     O_R   0.500010 0.369060 0.420520 -0.634173
O4    O     O_R   0.499990 0.630940 0.579480 -0.630490
O5    O     O_R   0.271750 0.500000 0.560890 -0.615494
O6    O     O_R   0.728250 0.500000 0.439110 -0.607692
O7    O     O_R   0.271750 0.499990 0.401930 -0.621967
O8    O     O_R   0.728250 0.500010 0.598070 -0.625768
Zn1   Zn    Zn3+2 0.500000 0.500010 0.606140 0.930809
Zn2   Zn    Zn3+2 0.500000 0.499990 0.393860 0.938484
O9    O     O_3   0.420490 0.341241 0.054793 -0.660966
C29   C     C_3   0.264251 0.341324 0.004995 0.084974
H17   H     H_    0.253532 0.283540 0.955409 0.175122
H18   H     H_    0.237888 0.401125 0.959228 0.122412
C30   C     C_3   0.142028 0.330560 0.072952 -0.381979
H19   H     H_    0.171435 0.270855 0.118655 0.234667
H20   H     H_    0.143831 0.390015 0.119839 0.210309
C31   C     C_3   0.975961 0.320441 0.017505 -0.953450
H21   H     H_    0.944520 0.379571 0.971376 0.256396
H22   H     H_    0.889903 0.314555 0.068332 0.274494
H23   H     H_    0.968211 0.259675 0.972265 0.264851
O10   O     O_3   0.340774 0.638530 0.923000 -0.659752
C32   C     C_3   0.188288 0.613043 0.939403 0.085744
H24   H     H_    0.148305 0.663688 0.987703 0.176113
H25   H     H_    0.188430 0.548465 0.977726 0.119756
C33   C     C_3   0.069938 0.611234 0.846257 -0.397985
H26   H     H_    0.075855 0.675206 0.807462 0.235929
H27   H     H_    0.100021 0.556161 0.799790 0.206504
C34   C     C_3   0.901674 0.597132 0.865952 -0.915678
H28   H     H_    0.892796 0.533223 0.904200 0.260483
H29   H     H_    0.819630 0.594973 0.797259 0.279080
H30   H     H_    0.865585 0.652619 0.909845 0.260430

loop_
_geom_bond_atom_site_label_1
_geom_bond_atom_site_label_2
_ccdc_geom_bond_type
C1    C21   S    
C32   C33   S    
C24   H8    S    
C7    N1    A    
C19   C21   A    
C8    H14   S    
C16   H2    S    
C15   C16   D    
C30   H20   S    
C32   H25   S    
C2    O4    A    
C25   H9    S    
C13   O5    A    
C14   O6    A    
N1    Zn2   S    
O10   C32   S    
N2    Zn1   S    
C2    C22   S    
C4    C12   A    
C18   C20   A    
C20   H6    S    
C29   C30   S    
C7    H13   S    
C30   H19   S    
C33   C34   S    
C15   H1    S    
C13   O7    A    
C9    H15   S    
C10   H16   S    
C17   C27   A    
C31   H23   S    
C6    H12   S    
C18   C28   A    
C33   H27   S    
C19   H5    S    
C4    O10   S    
C26   H10   S    
O5    Zn1   S    
C2    O2    A    
C29   H17   S    
C5    N1    A    
C31   H22   S    
C30   C31   S    
C34   H28   S    
C34   H29   S    
C9    C11   A    
C10   C12   A    
C3    O9    S    
C4    C6    A    
C14   O8    A    
C20   C22   A    
C23   H7    S    
C13   C15   S    
C17   H3    S    
C14   C16   S    
C18   H4    S    
O1    Zn1   S    
O7    Zn2   S    
O2    Zn2   S    
C5    H11   S    
O8    Zn1   S    
C6    N2    A    
C1    O1    A    
C24   C26   A    
C33   H26   S    
C3    C5    A    
C11   C12   S    
C25   C27   A    
O3    Zn2   S    
C26   C28   A    
O4    Zn1   S    
C31   H21   S    
C21   C23   A    
O9    C29   S    
C1    O3    A    
C17   C19   A    
C22   C24   A    
C23   C25   A    
C32   H24   S    
C34   H30   S    
C8    N2    A    
C3    C11   A    
C7    C9    A    
C8    C10   A    
C27   C28   S    
C29   H18   S    
O6    Zn2   S    
