data_mof_unit_56626.cif
_audit_creation_date              2013-03-05T15:51:07-0500
_audit_creation_method            fapswitch 2.2
_symmetry_space_group_name_H-M    P1
_symmetry_Int_Tables_number       1
_space_group_crystal_system       triclinic
_cell_length_a                    10.642729
_cell_length_b                    12.116515
_cell_length_c                    12.855787
_cell_angle_alpha                 97.506381
_cell_angle_beta                  90.995054
_cell_angle_gamma                 87.57055
_cell_volume                      1641.98843558

loop_
_atom_site_label
_atom_site_type_symbol
_atom_site_description
_atom_site_fract_x
_atom_site_fract_y
_atom_site_fract_z
_atom_type_partial_charge
O1    O     O_R   0.506270 0.421700 0.658830 -0.620437
O2    O     O_R   0.493730 0.578300 0.341170 -0.620441
O3    O     O_R   0.491200 0.609310 0.646410 -0.587076
O4    O     O_R   0.508800 0.390690 0.353590 -0.587266
C1    C     C_R   0.496317 0.526076 0.701214 0.978343
C2    C     C_R   0.503645 0.473920 0.298791 0.978190
O5    O     O_R   0.693580 0.406210 0.506230 -0.610831
O6    O     O_R   0.306420 0.593790 0.493770 -0.610761
O7    O     O_R   0.678510 0.593830 0.493810 -0.666833
O8    O     O_R   0.321490 0.406170 0.506190 -0.666885
C3    C     C_R   0.741789 0.500511 0.496320 0.965615
C4    C     C_R   0.258208 0.499493 0.503697 0.965617
Zn1   Zn    Zn3+2 0.510060 0.374730 0.508290 0.981000
Zn2   Zn    Zn3+2 0.489940 0.625270 0.491710 0.980941
C5    C     C_3   0.956384 0.501347 0.595673 0.286033
C6    C     C_3   0.043600 0.498670 0.404368 0.286023
C7    C     C_3   0.037261 0.591893 0.561397 -0.011121
C8    C     C_3   0.962725 0.408122 0.438645 -0.011075
C9    C     C_3   0.123499 0.497703 0.504784 -0.271512
C10   C     C_3   0.876491 0.502311 0.495256 -0.271511
C11   C     C_3   0.042313 0.407227 0.540511 0.061720
C12   C     C_3   0.957672 0.592790 0.459534 0.061722
C13   C     C_R   0.505334 0.453131 0.184536 -0.230148
C14   C     C_R   0.494498 0.546831 0.815481 -0.230045
C15   C     C_R   0.413954 0.634651 0.983043 0.279634
C16   C     C_R   0.585644 0.365166 0.016950 0.279654
C17   C     C_R   0.430947 0.638693 0.875454 0.197557
C18   C     C_R   0.568732 0.361196 0.124562 0.197386
C19   C     C_R   0.552846 0.462522 0.865329 -0.133449
C20   C     C_R   0.446934 0.537403 0.134691 -0.133335
C21   C     C_R   0.535365 0.456898 0.970542 -0.052142
C22   C     C_R   0.464311 0.542960 0.029455 -0.052202
H1    H     H_    0.389896 0.601674 0.180304 0.228198
H2    H     H_    0.609961 0.398290 0.819742 0.228201
N1    N     N_R   0.523490 0.207800 0.519350 -0.123591
N2    N     N_R   0.476510 0.792200 0.480650 -0.123527
C23   C     C_R   0.366787 0.944678 0.416368 -0.281806
C24   C     C_R   0.633305 0.055310 0.583529 -0.281928
C25   C     C_R   0.383370 0.831007 0.420707 0.031753
C26   C     C_R   0.616674 0.168986 0.579245 0.031907
C27   C     C_R   0.554270 0.864296 0.541442 0.247062
C28   C     C_R   0.445785 0.135702 0.458494 0.247416
C29   C     C_R   0.547861 0.979661 0.531541 0.053244
C30   C     C_R   0.452234 0.020327 0.468351 0.052791
H3    H     H_    0.680605 0.226445 0.621450 0.162770
H4    H     H_    0.319426 0.773549 0.378514 0.162816
H5    H     H_    0.286065 0.971285 0.372859 0.170594
H6    H     H_    0.714043 0.028703 0.627023 0.170312
C31   C     C_3   0.083485 0.688897 0.638423 -0.274478
C32   C     C_3   0.979121 0.773442 0.676709 -0.789504
H7    H     H_    0.953196 0.825621 0.614473 0.227221
H8    H     H_    0.895467 0.731480 0.700292 0.284357
H9    H     H_    0.013486 0.829371 0.745716 0.287158
H10   H     H_    0.124486 0.653197 0.707099 0.271244
H11   H     H_    0.156854 0.732224 0.601125 0.243240
C33   C     C_3   0.916483 0.311124 0.361616 -0.274466
C34   C     C_3   0.020834 0.226564 0.323334 -0.789692
H12   H     H_    0.104501 0.268512 0.299756 0.284425
H13   H     H_    0.046738 0.174383 0.385573 0.227268
H14   H     H_    0.986465 0.170640 0.254325 0.287124
H15   H     H_    0.843101 0.267805 0.398906 0.243216
H16   H     H_    0.875486 0.346828 0.292941 0.271183
N3    N     N_R   0.909514 0.504664 0.702204 0.203276
O9    O     O_R   0.988380 0.499542 0.779987 -0.355980
O10   O     O_R   0.789848 0.516970 0.720930 -0.444192
N4    N     N_R   0.090458 0.495357 0.297834 0.203305
O11   O     O_R   0.011585 0.500511 0.220062 -0.355963
O12   O     O_R   0.210117 0.482994 0.279093 -0.444201
C35   C     C_3   0.092906 0.307107 0.592406 -0.324207
C36   C     C_3   0.988120 0.235200 0.622168 -0.795160
H17   H     H_    0.923719 0.283705 0.679541 0.298113
H18   H     H_    0.933076 0.201795 0.551987 0.237642
H19   H     H_    0.030092 0.163787 0.658537 0.255734
H20   H     H_    0.157960 0.255227 0.538386 0.204899
H21   H     H_    0.147201 0.337890 0.664146 0.239127
C37   C     C_3   0.907041 0.692933 0.407689 -0.324199
C38   C     C_3   0.011810 0.764838 0.377890 -0.795138
H22   H     H_    0.066902 0.798226 0.448049 0.237636
H23   H     H_    0.076169 0.716337 0.320482 0.298157
H24   H     H_    0.969817 0.836262 0.341552 0.255719
H25   H     H_    0.852698 0.662173 0.335970 0.239115
H26   H     H_    0.842023 0.744808 0.461758 0.204944
N5    N     N_R   0.610355 0.261922 0.167976 0.218213
O13   O     O_R   0.598933 0.164611 0.113062 -0.323435
O14   O     O_R   0.674023 0.267504 0.255190 -0.427470
N6    N     N_R   0.389209 0.737967 0.832084 0.217842
O15   O     O_R   0.400172 0.835244 0.887154 -0.323261
O16   O     O_R   0.326003 0.732400 0.744655 -0.428112
N7    N     N_R   0.341438 0.721957 0.044078 0.228521
O17   O     O_R   0.395527 0.788382 0.117592 -0.376922
O18   O     O_R   0.223965 0.741083 0.020056 -0.303548
N8    N     N_R   0.657926 0.277712 0.955883 0.228453
O19   O     O_R   0.775303 0.258187 0.979977 -0.303602
O20   O     O_R   0.603675 0.211534 0.882264 -0.377130
C39   C     C_3   0.357398 0.177052 0.376925 -0.482460
C40   C     C_3   0.389372 0.126318 0.264471 -0.636963
H27   H     H_    0.488385 0.093611 0.259563 0.303554
H28   H     H_    0.326985 0.057468 0.235941 0.253364
H29   H     H_    0.374474 0.190352 0.210519 0.265363
H30   H     H_    0.259961 0.158919 0.394750 0.170952
H31   H     H_    0.359001 0.266470 0.378316 0.288475
C41   C     C_3   0.642407 0.823017 0.623203 -0.483036
C42   C     C_3   0.609703 0.873618 0.735511 -0.637078
H32   H     H_    0.670634 0.943511 0.763920 0.254078
H33   H     H_    0.510203 0.904859 0.740133 0.303867
H34   H     H_    0.625789 0.809961 0.789686 0.265088
H35   H     H_    0.640972 0.733578 0.621726 0.288525
H36   H     H_    0.739905 0.841317 0.605769 0.171218

loop_
_geom_bond_atom_site_label_1
_geom_bond_atom_site_label_2
_geom_bond_distance
_ccdc_geom_bond_type
N4    O12   1.298979 A    
N3    O10   1.298984 A    
C8    C11   1.548209 S    
C39   C40   1.533243 S    
C14   C17   1.421566 A    
C12   C37   1.533066 S    
O7    Zn2   2.027186 S    
C38   H22   1.107860 S    
C27   C41   1.515984 S    
O5    C3    1.294229 A    
O1    C1    1.310772 A    
C9    C11   1.544324 S    
Zn1   N1    2.044876 S    
Zn2   N2    2.044877 S    
N6    O16   1.295424 A    
C34   H13   1.107101 S    
C16   N8    1.437173 S    
C31   H10   1.107885 S    
C40   H29   1.111099 S    
C33   C34   1.521877 S    
O4    Zn1   2.022917 S    
N1    C28   1.385404 A    
C14   C19   1.394006 A    
C41   C42   1.532872 S    
N5    O13   1.301939 A    
C40   H28   1.108997 S    
C32   H8    1.109554 S    
C41   H36   1.103032 S    
C36   H17   1.108756 S    
C23   H5    1.077863 S    
C24   H6    1.077895 S    
C8    C33   1.527129 S    
C15   C22   1.410354 A    
N4    O11   1.300350 A    
C16   C21   1.410471 A    
C24   C26   1.389345 A    
C18   N5    1.440917 S    
C19   C21   1.379370 A    
C27   C29   1.418740 A    
N2    C27   1.385363 A    
O2    C2    1.310775 A    
C28   C30   1.418752 A    
C38   H23   1.108746 S    
C26   H3    1.081985 S    
C3    C10   1.435014 S    
C32   H9    1.110266 S    
C28   C39   1.516098 S    
C13   C20   1.393875 A    
C35   H20   1.105684 S    
C37   C38   1.527572 S    
O4    C2    1.302258 A    
C37   H26   1.105776 S    
N6    O15   1.301862 A    
C34   H14   1.110268 S    
O6    Zn2   2.007137 S    
C31   H11   1.108492 S    
C19   H2    1.082478 S    
C11   C35   1.533054 S    
C5    C10   1.534468 S    
C17   N6    1.440962 S    
C29   C30   1.404227 A    
C21   C22   1.406961 A    
C5    C11   1.537072 S    
O6    C4    1.294239 A    
C40   H27   1.109882 S    
C36   H19   1.110194 S    
N8    O20   1.301559 A    
C32   H7    1.107103 S    
C41   H35   1.082120 S    
C42   H33   1.109286 S    
C13   C18   1.421446 A    
O7    C3    1.295101 A    
O3    Zn2   2.022920 S    
O8    C4    1.295133 A    
C25   H4    1.081993 S    
N5    O14   1.295575 A    
C10   C12   1.544293 S    
C33   H16   1.107887 S    
N7    O18   1.301107 A    
C7    C31   1.527096 S    
C38   H24   1.110180 S    
C5    C7    1.535657 S    
C6    C12   1.537076 S    
C20   H1    1.082480 S    
C39   H30   1.103117 S    
C16   C18   1.405471 A    
N2    C25   1.351364 A    
O3    C1    1.302342 A    
O8    Zn1   2.027186 S    
C37   H25   1.110618 S    
C15   C17   1.405464 A    
C15   N7    1.437118 S    
C7    C12   1.548188 S    
C23   C30   1.415375 A    
N1    C26   1.351353 A    
C24   C29   1.415375 A    
C23   C25   1.389356 A    
C20   C22   1.379338 A    
C34   H12   1.109556 S    
C1    C14   1.457943 S    
C6    C9    1.534511 S    
C2    C13   1.457780 S    
C4    C9    1.435092 S    
N8    O19   1.301188 A    
C7    C9    1.546578 S    
C35   H21   1.110620 S    
C42   H34   1.110990 S    
C8    C10   1.546545 S    
C35   C36   1.527572 S    
O2    Zn2   1.945234 S    
N3    O9    1.300354 A    
O5    Zn1   2.007135 S    
O1    Zn1   1.945236 S    
C6    C8    1.535673 S    
C31   C32   1.521879 S    
C42   H32   1.108410 S    
C5    N3    1.460728 S    
C33   H15   1.108491 S    
C6    N4    1.460716 S    
C36   H18   1.107870 S    
N7    O17   1.301529 A    
C39   H31   1.082101 S    
