data_mof_unit_50269.cif
_audit_creation_date              2012-12-10T19:58:04-0500
_audit_creation_method            fapswitch 2.2
_symmetry_space_group_name_H-M    P1
_symmetry_Int_Tables_number       1
_space_group_crystal_system       triclinic
_cell_length_a                    20.714332
_cell_length_b                    20.708658
_cell_length_c                    14.111206
_cell_angle_alpha                 90.030431
_cell_angle_beta                  90.128534
_cell_angle_gamma                 90.076789
_cell_volume                      6053.20630259

loop_
_atom_site_label
_atom_site_type_symbol
_atom_type_description
_atom_site_fract_x
_atom_site_fract_y
_atom_site_fract_z
_atom_type_partial_charge
C1    C     C_R   0.088739 0.415357 0.500174 0.922745
C2    C     C_R   0.911234 0.584546 0.500007 0.923475
C3    C     C_R   0.911192 0.415346 0.499846 0.923949
C4    C     C_R   0.088557 0.584892 0.499961 0.927783
C5    C     C_R   0.585225 0.912000 0.499974 0.921059
C6    C     C_R   0.415135 0.088504 0.499920 0.921511
C7    C     C_R   0.414944 0.911745 0.499988 0.920923
C8    C     C_R   0.585091 0.088293 0.500187 0.921177
C9    C     C_R   0.747634 0.357845 0.572399 0.516962
C10   C     C_R   0.223889 0.688992 0.416251 0.474131
C11   C     C_R   0.252015 0.643047 0.570743 0.551882
C12   C     C_R   0.774703 0.311137 0.418331 0.461990
C13   C     C_R   0.253112 0.359141 0.431125 0.503283
C14   C     C_R   0.774903 0.687275 0.583034 0.460807
C15   C     C_R   0.750178 0.646394 0.424421 0.500469
C16   C     C_R   0.223756 0.310809 0.583648 0.482303
C17   C     C_R   0.300531 0.783557 0.576295 0.461709
C18   C     C_R   0.636668 0.256024 0.442618 0.504508
C19   C     C_R   0.698589 0.217137 0.578986 0.476095
C20   C     C_R   0.361848 0.744733 0.439624 0.509905
C21   C     C_R   0.702613 0.786825 0.424472 0.469029
C22   C     C_R   0.360106 0.253242 0.568396 0.503478
C23   C     C_R   0.306573 0.221337 0.420530 0.483837
C24   C     C_R   0.638161 0.744692 0.555810 0.506059
C25   C     C_R   0.807813 0.387895 0.574587 -0.304652
C26   C     C_R   0.165712 0.655651 0.418243 -0.343035
C27   C     C_R   0.191927 0.613585 0.574279 -0.276848
C28   C     C_R   0.832841 0.344714 0.418992 -0.344110
C29   C     C_R   0.192962 0.388465 0.427549 -0.286218
C30   C     C_R   0.832480 0.653024 0.582334 -0.344207
C31   C     C_R   0.809593 0.615468 0.422625 -0.319903
C32   C     C_R   0.165622 0.344062 0.581317 -0.340953
C33   C     C_R   0.334859 0.841104 0.574042 -0.327866
C34   C     C_R   0.606607 0.196198 0.436178 -0.304956
C35   C     C_R   0.664887 0.159174 0.575463 -0.331480
C36   C     C_R   0.392807 0.804394 0.434571 -0.342589
C37   C     C_R   0.667956 0.844036 0.427710 -0.332398
C38   C     C_R   0.389830 0.193317 0.571537 -0.298759
C39   C     C_R   0.340213 0.163394 0.421977 -0.330599
C40   C     C_R   0.606807 0.803879 0.562179 -0.341759
C41   C     C_R   0.850897 0.380037 0.499133 -0.180344
C42   C     C_R   0.148348 0.620850 0.499084 -0.196458
C43   C     C_R   0.148861 0.379996 0.501444 -0.177353
C44   C     C_R   0.851382 0.620215 0.500468 -0.164840
C45   C     C_R   0.378404 0.852591 0.500798 -0.162458
C46   C     C_R   0.621492 0.147640 0.501642 -0.176242
C47   C     C_R   0.622447 0.853491 0.498931 -0.162639
C48   C     C_R   0.379274 0.148230 0.499313 -0.180522
C49   C     C_R   0.942706 0.487595 0.103843 0.370517
C50   C     C_R   0.989979 0.557796 0.895846 0.370786
C51   C     C_R   0.057294 0.512443 0.104249 0.371080
C52   C     C_R   0.009845 0.442315 0.895918 0.369501
C53   C     C_R   0.464379 0.953527 0.104306 0.389874
C54   C     C_R   0.471935 0.051613 0.895560 0.383423
C55   C     C_R   0.535134 0.046624 0.104457 0.389478
C56   C     C_R   0.527501 0.948405 0.895884 0.383360
C57   C     C_R   0.733406 0.315715 0.497326 -0.072184
C58   C     C_R   0.265888 0.684718 0.494646 -0.081262
C59   C     C_R   0.267030 0.316678 0.506849 -0.110408
C60   C     C_R   0.735011 0.685867 0.502065 -0.054380
C61   C     C_R   0.313082 0.735983 0.507240 -0.086974
C62   C     C_R   0.685595 0.265045 0.510602 -0.079493
C63   C     C_R   0.688419 0.737545 0.490201 -0.062938
C64   C     C_R   0.315472 0.266162 0.495056 -0.119264
C65   C     C_R   0.944500 0.486636 0.204285 -0.157162
C66   C     C_R   0.991976 0.556512 0.795449 -0.153073
C67   C     C_R   0.055482 0.513390 0.204698 -0.157257
C68   C     C_R   0.007956 0.443513 0.795523 -0.152059
C69   C     C_R   0.466535 0.953720 0.204203 -0.151990
C70   C     C_R   0.474778 0.051187 0.795301 -0.162449
C71   C     C_R   0.533293 0.046341 0.204358 -0.149856
C72   C     C_R   0.525040 0.948805 0.795578 -0.164326
C73   C     C_R   0.999981 0.500087 0.053272 0.051946
C74   C     C_R   0.999958 0.500078 0.946714 0.050181
C75   C     C_R   0.499681 0.000096 0.053073 -0.010484
C76   C     C_R   0.499677 0.000036 0.946548 -0.001147
N1    N     N_R   1.000000 0.500000 0.252470 -0.116598
N2    N     N_R   1.000000 0.500000 0.747530 -0.117404
N3    N     N_R   0.500000 0.000000 0.252470 -0.125478
N4    N     N_R   0.500000 1.000000 0.747530 -0.116604
O1    O     O_R   0.065470 0.434530 0.579480 -0.617190
O2    O     O_R   0.934530 0.565470 0.420520 -0.614506
O3    O     O_R   0.934530 0.565470 0.579480 -0.621281
O4    O     O_R   0.065470 0.434530 0.420520 -0.614516
O5    O     O_R   0.934530 0.434530 0.420520 -0.617078
O6    O     O_R   0.065470 0.565470 0.579480 -0.612944
O7    O     O_R   0.065470 0.565470 0.420520 -0.616012
O8    O     O_R   0.934530 0.434530 0.579480 -0.613501
O9    O     O_R   0.565470 0.934530 0.579480 -0.625688
O10   O     O_R   0.434530 0.065470 0.420520 -0.603453
O11   O     O_R   0.434530 0.065470 0.579480 -0.627584
O12   O     O_R   0.565470 0.934530 0.420520 -0.603298
O13   O     O_R   0.434530 0.934530 0.420520 -0.626393
O14   O     O_R   0.565470 0.065470 0.579480 -0.602321
O15   O     O_R   0.565470 0.065470 0.420520 -0.627686
O16   O     O_R   0.434530 0.934530 0.579480 -0.604452
Zn1   Zn    Zn3+2 0.000000 0.500000 0.606140 0.937037
Zn2   Zn    Zn3+2 1.000000 0.500000 0.393860 0.937965
Zn3   Zn    Zn3+2 0.500000 0.000000 0.606140 0.937138
Zn4   Zn    Zn3+2 0.500000 1.000000 0.393860 0.938294
O17   O     O_3   0.887257 0.471501 0.053731 -0.588584
C77   C     C_3   0.835517 0.512096 0.080048 0.095192
H1    H     H_    0.850851 0.563602 0.085601 0.137410
H2    H     H_    0.814593 0.496155 0.148650 0.144794
C78   C     C_3   0.782832 0.507692 0.005008 -0.789405
H3    H     H_    0.741987 0.539721 0.024449 0.208485
H4    H     H_    0.764889 0.457255 0.999559 0.267926
H5    H     H_    0.802051 0.522890 0.935068 0.243335
O18   O     O_3   0.983010 0.615165 0.945556 -0.589864
C79   C     C_3   0.925179 0.646465 0.918768 0.095962
H6    H     H_    0.883933 0.611966 0.913581 0.139962
H7    H     H_    0.931428 0.671641 0.849827 0.134893
C80   C     C_3   0.908356 0.696901 0.993086 -0.806711
H8    H     H_    0.862724 0.721571 0.973177 0.206052
H9    H     H_    0.902048 0.673550 0.063295 0.249064
H10   H     H_    0.947554 0.733396 0.998121 0.258147
O19   O     O_3   0.112846 0.528152 0.054481 -0.588655
C81   C     C_3   0.164698 0.488112 0.082444 0.090980
H11   H     H_    0.149573 0.436609 0.089067 0.136950
H12   H     H_    0.185397 0.504994 0.150865 0.149800
C82   C     C_3   0.217584 0.491853 0.008042 -0.771907
H13   H     H_    0.258449 0.460151 0.028730 0.209681
H14   H     H_    0.235394 0.542282 0.001799 0.268991
H15   H     H_    0.198621 0.475852 0.938196 0.243939
O20   O     O_3   0.016517 0.384948 0.945638 -0.590582
C83   C     C_3   0.074746 0.353950 0.920387 0.100737
H16   H     H_    0.115862 0.388647 0.916339 0.141214
H17   H     H_    0.069263 0.328758 0.851236 0.136220
C84   C     C_3   0.091131 0.303642 0.995152 -0.811614
H18   H     H_    0.137069 0.279191 0.976487 0.207449
H19   H     H_    0.096668 0.327073 0.065523 0.248603
H20   H     H_    0.052077 0.266952 0.999145 0.258317
O21   O     O_3   0.429860 0.906308 0.056976 -0.560890
C85   C     C_3   0.364085 0.924017 0.056266 0.069534
H21   H     H_    0.357257 0.972213 0.022482 0.133181
H22   H     H_    0.344223 0.925066 0.129562 0.131630
C86   C     C_3   0.326017 0.874533 0.999308 -0.762190
H23   H     H_    0.274145 0.887995 0.998185 0.193608
H24   H     H_    0.331021 0.826006 0.031992 0.268775
H25   H     H_    0.344210 0.872804 0.925353 0.261296
O22   O     O_3   0.445626 0.103061 0.945349 -0.566936
C87   C     C_3   0.382521 0.116885 0.912810 0.074324
H26   H     H_    0.354481 0.072137 0.896580 0.115043
H27   H     H_    0.384673 0.147939 0.848645 0.159210
C88   C     C_3   0.346477 0.153625 0.989525 -0.764513
H28   H     H_    0.296967 0.165311 0.964565 0.199271
H29   H     H_    0.343107 0.123674 0.054624 0.241890
H30   H     H_    0.372227 0.199287 0.006470 0.273539
O23   O     O_3   0.569494 0.093884 0.057261 -0.560217
C89   C     C_3   0.635310 0.076325 0.056787 0.070690
H31   H     H_    0.642193 0.028044 0.023255 0.132575
H32   H     H_    0.655312 0.075543 0.130136 0.132206
C90   C     C_3   0.673147 0.125727 0.999673 -0.761632
H33   H     H_    0.725049 0.112385 0.998735 0.193292
H34   H     H_    0.668092 0.174340 0.032102 0.268982
H35   H     H_    0.654803 0.127188 0.925667 0.261315
O24   O     O_3   0.553427 0.896889 0.946018 -0.566587
C91   C     C_3   0.616699 0.883018 0.914715 0.072037
H36   H     H_    0.644838 0.927718 0.898812 0.115931
H37   H     H_    0.614844 0.851810 0.850649 0.156030
C92   C     C_3   0.652306 0.846486 0.992261 -0.766218
H38   H     H_    0.655174 0.876562 0.057354 0.244549
H39   H     H_    0.702005 0.834866 0.968400 0.200053
H40   H     H_    0.626538 0.800801 0.008773 0.272359
O25   O     O_3   0.705801 0.362947 0.648501 -0.570561
C93   C     C_3   0.681985 0.426875 0.656443 0.063465
H41   H     H_    0.628659 0.425317 0.648192 0.150714
H42   H     H_    0.700389 0.461404 0.601915 0.110301
C94   C     C_3   0.697556 0.453473 0.754493 -0.786884
H43   H     H_    0.750627 0.456385 0.764767 0.246726
H44   H     H_    0.676790 0.502612 0.762150 0.215011
H45   H     H_    0.676661 0.421643 0.809857 0.268170
O26   O     O_3   0.241110 0.723809 0.336439 -0.555156
C95   C     C_3   0.207846 0.783229 0.335677 0.095292
H46   H     H_    0.217004 0.810995 0.401925 0.106173
H47   H     H_    0.154996 0.775474 0.326678 0.130370
C96   C     C_3   0.232103 0.823684 0.253096 -0.787653
H48   H     H_    0.206384 0.870683 0.251499 0.187139
H49   H     H_    0.284704 0.832863 0.261041 0.260308
H50   H     H_    0.223300 0.797962 0.185188 0.262731
O27   O     O_3   0.293123 0.637068 0.647769 -0.573375
C97   C     C_3   0.348315 0.600997 0.621646 0.095874
H51   H     H_    0.387943 0.613545 0.671505 0.177739
H52   H     H_    0.366389 0.612501 0.549391 0.129367
C98   C     C_3   0.335395 0.528636 0.629485 -0.905573
H53   H     H_    0.297763 0.513594 0.577801 0.243057
H54   H     H_    0.380455 0.501830 0.613765 0.211838
H55   H     H_    0.319192 0.516393 0.702257 0.279911
O28   O     O_3   0.756802 0.275806 0.339172 -0.557880
C99   C     C_3   0.790038 0.216371 0.338828 0.096849
H56   H     H_    0.781316 0.189019 0.405468 0.105360
H57   H     H_    0.842831 0.224050 0.329328 0.130644
C100  C     C_3   0.765221 0.175423 0.256904 -0.788410
H58   H     H_    0.790920 0.128409 0.255647 0.187195
H59   H     H_    0.712674 0.166303 0.265361 0.260436
H60   H     H_    0.773575 0.200728 0.188634 0.262445
O29   O     O_3   0.293154 0.365405 0.353181 -0.559978
C101  C     C_3   0.349533 0.399608 0.378947 0.082583
H61   H     H_    0.384831 0.366190 0.412122 0.130687
H62   H     H_    0.339244 0.440600 0.428073 0.113450
C102  C     C_3   0.380350 0.427455 0.290183 -0.796177
H63   H     H_    0.425090 0.454038 0.309333 0.201370
H64   H     H_    0.392809 0.387973 0.240184 0.268064
H65   H     H_    0.346388 0.461331 0.254979 0.255619
O30   O     O_3   0.756284 0.720402 0.663714 -0.562820
C103  C     C_3   0.791893 0.778343 0.670939 0.095931
H66   H     H_    0.784758 0.808994 0.607005 0.110059
H67   H     H_    0.844279 0.768393 0.680866 0.123446
C104  C     C_3   0.768044 0.816155 0.756351 -0.814627
H68   H     H_    0.774773 0.787274 0.821935 0.253360
H69   H     H_    0.795618 0.861951 0.763104 0.193470
H70   H     H_    0.716011 0.827675 0.747622 0.255198
O31   O     O_3   0.710621 0.644857 0.345479 -0.565117
C105  C     C_3   0.673739 0.587564 0.348238 0.060880
H71   H     H_    0.645413 0.584287 0.415172 0.128666
H72   H     H_    0.705346 0.544298 0.341746 0.136951
C106  C     C_3   0.626568 0.587529 0.265521 -0.801716
H73   H     H_    0.596563 0.543095 0.267356 0.204414
H74   H     H_    0.594428 0.630316 0.270007 0.259030
H75   H     H_    0.653398 0.589025 0.197489 0.261337
O32   O     O_3   0.238882 0.273419 0.661879 -0.558872
C107  C     C_3   0.204985 0.214348 0.656828 0.101258
H76   H     H_    0.214945 0.188782 0.588978 0.110017
H77   H     H_    0.152088 0.222298 0.664103 0.122296
C108  C     C_3   0.227277 0.171004 0.737473 -0.811928
H78   H     H_    0.217478 0.194571 0.806683 0.252098
H79   H     H_    0.201036 0.124254 0.734531 0.192276
H80   H     H_    0.279897 0.161622 0.731281 0.256505
O33   O     O_3   0.256351 0.772621 0.647985 -0.564090
C109  C     C_3   0.198329 0.805206 0.626620 0.077507
H81   H     H_    0.178618 0.789537 0.556858 0.110051
H82   H     H_    0.205782 0.858465 0.626332 0.127254
C110  C     C_3   0.148407 0.788900 0.701754 -0.775406
H83   H     H_    0.165980 0.804368 0.772648 0.258475
H84   H     H_    0.102419 0.814213 0.685853 0.186590
H85   H     H_    0.139355 0.736006 0.702601 0.264743
O34   O     O_3   0.622516 0.303170 0.376492 -0.558206
C111  C     C_3   0.581298 0.348958 0.419154 0.097291
H86   H     H_    0.602868 0.369350 0.485135 0.125040
H87   H     H_    0.533764 0.326583 0.436078 0.126205
C112  C     C_3   0.570130 0.404539 0.350734 -0.829233
H88   H     H_    0.538680 0.441374 0.384342 0.188828
H89   H     H_    0.616981 0.427339 0.332107 0.257696
H90   H     H_    0.546369 0.386613 0.285157 0.269452
O35   O     O_3   0.742671 0.228106 0.651112 -0.559070
C113  C     C_3   0.800830 0.195733 0.630178 0.075997
H91   H     H_    0.820335 0.211115 0.560300 0.110043
H92   H     H_    0.793649 0.142442 0.630421 0.126184
C114  C     C_3   0.850813 0.212727 0.705256 -0.772762
H93   H     H_    0.833475 0.197536 0.776265 0.257908
H94   H     H_    0.896915 0.187598 0.689704 0.186337
H95   H     H_    0.859556 0.265677 0.705601 0.265316
O36   O     O_3   0.374363 0.696660 0.373932 -0.560301
C115  C     C_3   0.437795 0.673241 0.387307 0.086466
H96   H     H_    0.451048 0.669617 0.463753 0.091204
H97   H     H_    0.472995 0.705281 0.350887 0.154272
C116  C     C_3   0.442729 0.605827 0.345134 -0.830840
H98   H     H_    0.491823 0.586112 0.357641 0.199242
H99   H     H_    0.406902 0.573335 0.379133 0.250457
H100  H     H_    0.433311 0.607503 0.267672 0.273335
O37   O     O_3   0.748472 0.777805 0.354537 -0.561033
C117  C     C_3   0.806068 0.809563 0.380977 0.082116
H101  H     H_    0.823885 0.792022 0.450825 0.109704
H102  H     H_    0.798858 0.862800 0.383932 0.126083
C118  C     C_3   0.857793 0.795006 0.307742 -0.791834
H103  H     H_    0.903488 0.819688 0.327598 0.190856
H104  H     H_    0.866555 0.742133 0.304323 0.262424
H105  H     H_    0.842136 0.812361 0.236874 0.254630
O38   O     O_3   0.369058 0.294765 0.644175 -0.554564
C119  C     C_3   0.407404 0.347535 0.615293 0.081237
H106  H     H_    0.376919 0.383479 0.577954 0.128871
H107  H     H_    0.448154 0.332507 0.568593 0.102766
C120  C     C_3   0.436202 0.379927 0.702422 -0.786461
H108  H     H_    0.466625 0.344994 0.742080 0.262454
H109  H     H_    0.466649 0.421505 0.680587 0.190553
H110  H     H_    0.397058 0.397635 0.749378 0.265725
O39   O     O_3   0.265782 0.234689 0.345251 -0.557159
C121  C     C_3   0.206796 0.201699 0.358230 0.089598
H111  H     H_    0.184613 0.214058 0.427714 0.110289
H112  H     H_    0.213921 0.148514 0.353621 0.124218
C122  C     C_3   0.159895 0.221961 0.280709 -0.789966
H113  H     H_    0.179999 0.209787 0.210023 0.254743
H114  H     H_    0.113211 0.196331 0.289905 0.191735
H115  H     H_    0.151248 0.274838 0.284490 0.262299
O40   O     O_3   0.623665 0.695419 0.618370 -0.561246
C123  C     C_3   0.566485 0.664706 0.587434 0.079887
H116  H     H_    0.568509 0.652470 0.510461 0.118242
H117  H     H_    0.524012 0.696236 0.601026 0.135831
C124  C     C_3   0.557532 0.602012 0.641960 -0.829453
H118  H     H_    0.554139 0.612136 0.719079 0.270170
H119  H     H_    0.512484 0.577649 0.618287 0.191431
H120  H     H_    0.599060 0.569333 0.628831 0.244775
H121  H     H_    0.820579 0.417584 0.635005 0.185842
H122  H     H_    0.133630 0.658255 0.357597 0.185413
H123  H     H_    0.180019 0.583946 0.635070 0.194081
H124  H     H_    0.864440 0.341713 0.358050 0.184428
H125  H     H_    0.181150 0.418594 0.367173 0.176123
H126  H     H_    0.863020 0.653585 0.644798 0.169013
H127  H     H_    0.822736 0.587711 0.360471 0.172150
H128  H     H_    0.132831 0.340107 0.640799 0.167143
H129  H     H_    0.326210 0.877381 0.627926 0.173590
H130  H     H_    0.570543 0.188305 0.381598 0.182244
H131  H     H_    0.673826 0.122667 0.628907 0.173690
H132  H     H_    0.428536 0.812750 0.379948 0.170599
H133  H     H_    0.677682 0.881549 0.376108 0.171946
H134  H     H_    0.422090 0.182558 0.629992 0.177146
H135  H     H_    0.334147 0.129496 0.364077 0.176538
H136  H     H_    0.569470 0.810546 0.614972 0.170366
H137  H     H_    0.901626 0.474785 0.244190 0.149188
H138  H     H_    0.987333 0.600725 0.755346 0.145615
H139  H     H_    0.098327 0.525206 0.244977 0.150984
H140  H     H_    0.012621 0.399242 0.755512 0.145839
H141  H     H_    0.440747 0.916840 0.242934 0.166500
H142  H     H_    0.456684 0.091801 0.755363 0.150518
H143  H     H_    0.559153 0.083225 0.243201 0.167326
H144  H     H_    0.543241 0.908153 0.755836 0.152772

loop_
_geom_bond_atom_site_label_1
_geom_bond_atom_site_label_2
_ccdc_geom_bond_type
C40   C47   A    
C91   H37   S    
C99   H56   S    
C56   C76   A    
O21   C85   S    
C3    O5    A    
O19   C81   S    
C37   H133  S    
C73   C74   S    
C11   O27   S    
C15   O31   S    
C53   C69   A    
C104  H70   S    
C117  C118  S    
C71   N3    A    
C92   H38   S    
C23   O39   S    
C9    C25   A    
C57   C62   S    
C4    O7    A    
O31   C105  S    
C1    O4    A    
C84   H19   S    
C7    O16   A    
C86   H24   S    
C111  C112  S    
O12   Zn4   S    
C59   C64   S    
C83   H16   S    
C13   O29   S    
O9    Zn3   S    
C60   C63   S    
C24   C40   A    
C7    C45   S    
C13   C29   A    
C21   C37   A    
C10   C58   A    
C68   N2    A    
C108  H78   S    
C116  H98   S    
C52   C74   A    
C50   C74   A    
C121  H111  S    
C49   O17   S    
C123  H116  S    
C116  H99   S    
C96   H50   S    
C105  H72   S    
C121  H112  S    
C98   H54   S    
C95   C96   S    
C4    O6    A    
C26   H122  S    
C19   C62   A    
C106  H75   S    
C6    O11   A    
C22   C38   A    
O16   Zn3   S    
C28   C41   A    
C124  H120  S    
C33   C45   A    
C123  H117  S    
C77   C78   S    
C112  H88   S    
C15   C60   A    
C72   H144  S    
C81   H12   S    
C20   C61   A    
O6    Zn1   S    
C32   C43   A    
C81   H11   S    
C82   H15   S    
C115  H97   S    
O5    Zn2   S    
C99   C100  S    
C29   H125  S    
C95   H46   S    
O22   C87   S    
C55   C71   A    
C1    C43   S    
O24   C91   S    
C21   C63   A    
C2    C44   S    
C56   C72   A    
C121  C122  S    
C67   N1    A    
C99   H57   S    
C66   H138  S    
C119  H107  S    
C55   O23   S    
C101  H61   S    
C34   C46   A    
C90   H34   S    
C11   C58   A    
C110  H83   S    
C113  H91   S    
C115  C116  S    
C38   C48   A    
O8    Zn1   S    
C91   C92   S    
C18   O34   S    
C84   H20   S    
C17   C61   A    
C10   C26   A    
C10   O26   S    
C4    C42   S    
C3    O8    A    
C86   H23   S    
C87   H27   S    
O26   C95   S    
O38   C119  S    
C29   C43   A    
C93   H42   S    
C94   H44   S    
C119  C120  S    
C30   C44   A    
C16   O32   S    
C53   C75   A    
C8    O15   A    
C17   C33   A    
C102  H64   S    
C14   C30   A    
C7    O13   A    
O10   Zn4   S    
C92   H39   S    
O33   C109  S    
C124  H119  S    
C88   H28   S    
C97   H52   S    
C18   C34   A    
C32   H128  S    
C66   N2    A    
C86   H25   S    
C113  H92   S    
C114  H94   S    
C65   N1    A    
C31   C44   A    
C88   H29   S    
C70   N4    A    
C9    O25   S    
O17   C77   S    
C69   H141  S    
N3    Zn4   S    
N1    Zn2   S    
C53   O21   S    
C104  H68   S    
C111  H86   S    
C25   C41   A    
C119  H106  S    
O35   C113  S    
C17   O33   S    
C103  H66   S    
C18   C62   A    
C98   H55   S    
C85   H22   S    
C83   C84   S    
C96   H49   S    
C122  H113  S    
O27   C97   S    
C33   H129  S    
C89   C90   S    
C50   O18   S    
C79   H6    S    
O34   C111  S    
C112  H89   S    
C97   C98   S    
C91   H36   S    
C39   H135  S    
C75   C76   S    
O32   C107  S    
C12   O28   S    
C89   H32   S    
C78   H4    S    
O1    Zn1   S    
C56   O24   S    
C5    C47   S    
O29   C101  S    
C54   C70   A    
C103  C104  S    
C11   C27   A    
C109  H82   S    
C100  H60   S    
C35   H131  S    
C54   O22   S    
N2    Zn1   S    
C100  H59   S    
C120  H108  S    
C114  H93   S    
C8    O14   A    
C36   C45   A    
C94   H43   S    
C51   C67   A    
C78   H5    S    
C85   C86   S    
C77   H2    S    
C110  H84   S    
O13   Zn4   S    
C118  H105  S    
C82   H13   S    
C6    C48   S    
C31   H127  S    
C54   C76   A    
C12   C57   A    
C120  H110  S    
C22   O38   S    
C120  H109  S    
C109  C110  S    
C12   C28   A    
C96   H48   S    
C24   C63   A    
N4    Zn3   S    
O20   C83   S    
C51   O19   S    
C102  H65   S    
C49   C73   A    
C2    O2    A    
C106  H74   S    
C28   H124  S    
C108  H80   S    
C92   H40   S    
C88   H30   S    
C19   O35   S    
C124  H118  S    
C80   H8    S    
C118  H103  S    
C21   O37   S    
O28   C99   S    
O30   C103  S    
C24   O40   S    
C3    C41   S    
C114  H95   S    
C83   H17   S    
C49   C65   A    
C123  C124  S    
C25   H121  S    
C107  H77   S    
O15   Zn4   S    
C122  H115  S    
C103  H67   S    
O7    Zn2   S    
C30   H126  S    
C51   C73   A    
C27   H123  S    
C101  H62   S    
C105  C106  S    
C52   C68   A    
O40   C123  S    
C117  H102  S    
C52   O20   S    
C50   C66   A    
C15   C31   A    
C117  H101  S    
C13   C59   A    
O36   C115  S    
C122  H114  S    
C14   C60   A    
C78   H3    S    
C85   H21   S    
C84   H18   S    
C107  C108  S    
C102  H63   S    
C116  H100  S    
O4    Zn2   S    
C79   C80   S    
C80   H10   S    
C115  H96   S    
C104  H69   S    
C106  H73   S    
C23   C64   A    
C55   C75   A    
C109  H81   S    
C72   N4    A    
C118  H104  S    
C65   H137  S    
O23   C89   S    
C2    O3    A    
C27   C42   A    
C111  H87   S    
C98   H53   S    
O37   C117  S    
C93   H41   S    
C67   H139  S    
O14   Zn3   S    
C58   C61   S    
C40   H136  S    
C16   C32   A    
C38   H134  S    
C105  H71   S    
C90   H35   S    
C108  H79   S    
C95   H47   S    
C20   O36   S    
C34   H130  S    
C37   C47   A    
C101  C102  S    
C9    C57   A    
C87   C88   S    
C16   C59   A    
C26   C42   A    
C77   H1    S    
C110  H85   S    
C79   H7    S    
O2    Zn2   S    
C82   H14   S    
C5    O12   A    
C69   N3    A    
C22   C64   A    
C20   C36   A    
O25   C93   S    
C81   C82   S    
C36   H132  S    
C6    O10   A    
C93   C94   S    
C100  H58   S    
O3    Zn1   S    
C14   O30   S    
O18   C79   S    
C87   H26   S    
C70   H142  S    
C89   H31   S    
C68   H140  S    
C112  H90   S    
C19   C35   A    
C94   H45   S    
C8    C46   S    
O11   Zn3   S    
C90   H33   S    
O39   C121  S    
C35   C46   A    
C1    O1    A    
C107  H76   S    
C23   C39   A    
C5    O9    A    
C97   H51   S    
C71   H143  S    
C39   C48   A    
C80   H9    S    
C113  C114  S    
