data_mof_unit_27643.cif
_audit_creation_date              2012-12-10T19:30:38-0500
_audit_creation_method            fapswitch 2.2
_symmetry_space_group_name_H-M    P1
_symmetry_Int_Tables_number       1
_space_group_crystal_system       triclinic
_cell_length_a                    14.949281
_cell_length_b                    15.730107
_cell_length_c                    16.557315
_cell_angle_alpha                 90.370073
_cell_angle_beta                  84.007246
_cell_angle_gamma                 90.864463
_cell_volume                      3871.75030108

loop_
_atom_site_label
_atom_site_type_symbol
_atom_type_description
_atom_site_fract_x
_atom_site_fract_y
_atom_site_fract_z
_atom_type_partial_charge
C1    C     C_R   0.500482 0.662391 0.501651 0.887502
C2    C     C_R   0.499388 0.337584 0.499684 0.902223
C3    C     C_3   0.479438 0.023697 0.427534 0.317126
C4    C     C_3   0.521868 0.976258 0.574789 0.324023
C5    C     C_3   0.563070 0.972598 0.442650 0.332411
C6    C     C_3   0.438265 0.027341 0.559689 0.335023
C7    C     C_1   0.501957 0.751083 0.503471 -0.167679
C8    C     C_1   0.498036 0.248896 0.498685 -0.163117
C9    C     C_3   0.418905 0.969035 0.488366 0.264427
C10   C     C_3   0.582389 0.030988 0.513991 0.264730
C11   C     C_3   0.502556 0.916847 0.503524 -0.201709
C12   C     C_3   0.498661 0.083142 0.498841 -0.199711
C13   C     C_1   0.502890 0.826218 0.504302 0.163094
C14   C     C_1   0.497669 0.173762 0.498101 0.159214
C15   C     C_3   0.033393 0.576064 0.474448 0.324009
C16   C     C_3   0.967104 0.423750 0.526070 0.323269
C17   C     C_3   0.978842 0.514370 0.424710 0.269380
C18   C     C_3   0.021791 0.485501 0.575704 0.264469
C19   C     C_3   0.966286 0.561352 0.550753 0.341820
C20   C     C_3   0.034156 0.438450 0.449742 0.345249
C21   C     C_3   0.910046 0.499663 0.501013 -0.264963
C22   C     C_3   0.090242 0.500164 0.499320 -0.266763
C23   C     C_R   0.486240 0.497143 0.654077 1.032064
C24   C     C_R   0.513351 0.502256 0.346146 0.996377
C25   C     C_1   0.810045 0.499817 0.500570 0.262412
C26   C     C_1   0.190033 0.500116 0.499574 0.274338
C27   C     C_R   0.471684 0.476067 0.740048 -0.396955
C28   C     C_R   0.523847 0.511346 0.258606 -0.417964
C29   C     C_R   0.520421 0.409570 0.770444 0.289731
C30   C     C_R   0.575523 0.452430 0.210442 0.295500
C31   C     C_R   0.499458 0.383197 0.850892 0.366358
C32   C     C_R   0.578057 0.456440 0.125702 0.389960
C33   C     C_R   0.435593 0.428111 0.901617 -0.284797
C34   C     C_R   0.521846 0.513840 0.091467 -0.317682
C35   C     C_R   0.379207 0.487091 0.869157 0.415756
C36   C     C_R   0.475170 0.576432 0.138877 0.373832
C37   C     C_R   0.398585 0.512437 0.788171 0.398292
C38   C     C_R   0.478208 0.576700 0.222838 0.372134
C39   C     C_2   0.450280 0.436084 0.987151 0.574667
C40   C     C_2   0.502305 0.502654 0.007282 0.569337
N1    N     N_1   0.731990 0.500000 0.499970 -0.105218
N2    N     N_1   0.268010 0.500000 0.500030 -0.101736
O1    O     O_R   0.425540 0.623220 0.500000 -0.585361
O2    O     O_R   0.574460 0.376780 0.500000 -0.598810
O3    O     O_R   0.574480 0.623220 0.499990 -0.619957
O4    O     O_R   0.425520 0.376780 0.500010 -0.623141
O5    O     O_R   0.416730 0.500010 0.615810 -0.609955
O6    O     O_R   0.583270 0.499990 0.384190 -0.586626
O7    O     O_R   0.565670 0.500010 0.615790 -0.603705
O8    O     O_R   0.434330 0.499990 0.384210 -0.588525
Zn1   Zn    Zn3+2 0.400550 0.500000 0.500010 1.013977
Zn2   Zn    Zn3+2 0.599450 0.500000 0.499990 1.008962
O9    O     O_3   0.581994 0.364719 0.719213 -0.581964
C41   C     C_3   0.669783 0.392125 0.731932 0.120974
H1    H     H_    0.685043 0.378751 0.794913 0.168753
H2    H     H_    0.679240 0.461494 0.720121 0.143123
C42   C     C_3   0.736649 0.344246 0.673755 -0.727465
H3    H     H_    0.723862 0.356446 0.610031 0.280049
H4    H     H_    0.805803 0.365820 0.682500 0.199089
H5    H     H_    0.730460 0.274875 0.685620 0.249669
O10   O     O_3   0.621758 0.389680 0.246119 -0.580256
C43   C     C_3   0.565847 0.316583 0.256616 0.148782
H6    H     H_    0.547230 0.292163 0.197210 0.189152
H7    H     H_    0.503397 0.330297 0.297121 0.110956
C44   C     C_3   0.616063 0.247236 0.295781 -0.816123
H8    H     H_    0.637788 0.270279 0.354290 0.267691
H9    H     H_    0.571147 0.190930 0.307489 0.238528
H10   H     H_    0.676211 0.228507 0.254825 0.247621
O11   O     O_3   0.074126 0.653745 0.447154 -0.604228
C45   C     C_3   0.007610 0.714324 0.436903 -0.265242
H11   H     H_    0.982944 0.743706 0.495910 0.197149
H12   H     H_    0.949910 0.687647 0.407127 0.183244
H13   H     H_    0.038514 0.765841 0.397404 0.171676
O12   O     O_3   0.926821 0.345900 0.553311 -0.624445
C46   C     C_3   0.993510 0.285420 0.563320 -0.279974
H14   H     H_    0.052687 0.312562 0.590619 0.185009
H15   H     H_    0.015952 0.254325 0.504589 0.200735
H16   H     H_    0.963512 0.235177 0.604845 0.167553
O13   O     O_3   0.075104 0.374565 0.398850 -0.609603
C47   C     C_3   0.010322 0.333436 0.355480 -0.270265
H17   H     H_    0.997868 0.370879 0.301470 0.191634
H18   H     H_    0.945511 0.320474 0.393106 0.194286
H19   H     H_    0.037347 0.271260 0.333387 0.167080
O14   O     O_3   0.925295 0.625051 0.601827 -0.608203
C48   C     C_3   0.989996 0.665912 0.645459 -0.279934
H20   H     H_    0.055032 0.678631 0.608080 0.190312
H21   H     H_    0.001911 0.628372 0.699543 0.189974
H22   H     H_    0.963153 0.728191 0.667441 0.170823
O15   O     O_3   0.429039 0.636099 0.269989 -0.550599
C49   C     C_3   0.488627 0.700269 0.292853 -0.251166
H23   H     H_    0.537227 0.675009 0.332675 0.142104
H24   H     H_    0.448907 0.750057 0.327416 0.196231
H25   H     H_    0.526408 0.731138 0.239208 0.126677
O16   O     O_3   0.354057 0.580210 0.758133 -0.573511
C50   C     C_3   0.265780 0.555260 0.744038 -0.154673
H26   H     H_    0.258430 0.486344 0.729239 0.133386
H27   H     H_    0.246626 0.591313 0.691248 0.181145
H28   H     H_    0.217843 0.572664 0.797022 0.179685
O17   O     O_3   0.523513 0.567644 0.951714 -0.609676
C51   C     C_3   0.617600 0.579069 0.939843 -0.365572
H29   H     H_    0.644111 0.605618 0.995149 0.159362
H30   H     H_    0.633842 0.625543 0.890190 0.203477
H31   H     H_    0.651752 0.518642 0.920768 0.167046
O18   O     O_3   0.430069 0.367099 0.038143 -0.598329
C52   C     C_3   0.363041 0.388190 0.101554 -0.373426
H32   H     H_    0.308520 0.339396 0.103502 0.190574
H33   H     H_    0.331808 0.451578 0.095874 0.181157
H34   H     H_    0.392265 0.386131 0.160407 0.179021
O19   O     O_3   0.315408 0.530683 0.919227 -0.542766
C53   C     C_3   0.241282 0.475588 0.940214 -0.351043
H35   H     H_    0.260301 0.419100 0.974051 0.168150
H36   H     H_    0.209640 0.454002 0.885628 0.141615
H37   H     H_    0.189948 0.510599 0.980081 0.201302
O20   O     O_3   0.414911 0.627752 0.104749 -0.549836
C54   C     C_3   0.455930 0.707192 0.084150 -0.140694
H38   H     H_    0.530562 0.705141 0.070603 0.115719
H39   H     H_    0.437646 0.753864 0.133376 0.148830
H40   H     H_    0.428696 0.730652 0.028748 0.198114
O21   O     O_3   0.624069 0.396270 0.076918 -0.554150
C55   C     C_3   0.716603 0.417178 0.069696 -0.257259
H41   H     H_    0.729822 0.483870 0.049175 0.118093
H42   H     H_    0.751761 0.374922 0.023197 0.179618
H43   H     H_    0.745926 0.406484 0.127690 0.203749
O22   O     O_3   0.550301 0.321605 0.882895 -0.569262
C56   C     C_3   0.507518 0.242213 0.873778 -0.196182
H44   H     H_    0.504320 0.226105 0.808543 0.162604
H45   H     H_    0.438875 0.240483 0.907163 0.166912
H46   H     H_    0.547496 0.192488 0.900006 0.173349
O23   O     O_3   0.625634 0.935488 0.383451 -0.610982
C57   C     C_3   0.677716 0.999575 0.340906 -0.289595
H47   H     H_    0.730343 0.024771 0.377321 0.195063
H48   H     H_    0.636602 0.052719 0.322047 0.186422
H49   H     H_    0.712374 0.971183 0.284875 0.170422
O24   O     O_3   0.375678 0.063708 0.619317 -0.608563
C58   C     C_3   0.324039 0.999013 0.661478 -0.272353
H50   H     H_    0.364744 0.943930 0.676944 0.196975
H51   H     H_    0.269110 0.976632 0.626290 0.190817
H52   H     H_    0.292346 0.025941 0.719406 0.167558
O25   O     O_3   0.456591 0.055881 0.353106 -0.620574
C59   C     C_3   0.451163 0.988758 0.296746 -0.304374
H53   H     H_    0.415302 0.931437 0.323558 0.185393
H54   H     H_    0.519047 0.971044 0.269033 0.194518
H55   H     H_    0.413108 0.011002 0.247081 0.176754
O26   O     O_3   0.544605 0.944016 0.649246 -0.602934
C60   C     C_3   0.549652 0.011071 0.705760 -0.283239
H56   H     H_    0.481674 0.027834 0.733985 0.192719
H57   H     H_    0.584526 0.068903 0.678967 0.186847
H58   H     H_    0.588484 0.989188 0.755037 0.171290
O27   O     O_3   0.664732 0.072150 0.525592 -0.598778
C61   C     C_3   0.727716 0.012198 0.546427 0.139025
H59   H     H_    0.730868 0.955652 0.505513 0.170733
H60   H     H_    0.710985 0.990538 0.609885 0.179363
C62   C     C_3   0.820546 0.054127 0.540387 -0.871534
H61   H     H_    0.820208 0.109568 0.582317 0.267331
H62   H     H_    0.870785 0.007858 0.557123 0.207027
H63   H     H_    0.840240 0.076098 0.477347 0.254441
O28   O     O_3   0.336283 0.928348 0.476830 -0.596952
C63   C     C_3   0.273559 0.988802 0.456432 0.140557
H64   H     H_    0.290048 0.010488 0.392953 0.180335
H65   H     H_    0.271088 0.045313 0.497374 0.168890
C64   C     C_3   0.180369 0.947588 0.462930 -0.863576
H66   H     H_    0.160930 0.925517 0.525974 0.253577
H67   H     H_    0.130377 0.994338 0.446651 0.204777
H68   H     H_    0.179911 0.892327 0.420861 0.272398
O29   O     O_3   0.950379 0.528086 0.347167 -0.604495
C65   C     C_3   0.025030 0.548071 0.290612 0.151218
H69   H     H_    0.082026 0.504099 0.294655 0.173566
H70   H     H_    0.048914 0.614137 0.299999 0.186189
C66   C     C_3   0.996602 0.541919 0.205169 -0.874915
H71   H     H_    0.941610 0.587176 0.198307 0.262640
H72   H     H_    0.054680 0.557790 0.160105 0.217485
H73   H     H_    0.972573 0.476399 0.193019 0.249607
O30   O     O_3   0.052623 0.472643 0.652444 -0.619236
C67   C     C_3   0.980193 0.450377 0.710320 0.133825
H74   H     H_    0.960142 0.383015 0.702115 0.172813
H75   H     H_    0.920726 0.491469 0.706699 0.163284
C68   C     C_3   0.010329 0.459435 0.794963 -0.914316
H76   H     H_    0.031334 0.526134 0.806030 0.249801
H77   H     H_    0.954047 0.441591 0.841170 0.213493
H78   H     H_    0.067943 0.417046 0.801195 0.256025

loop_
_geom_bond_atom_site_label_1
_geom_bond_atom_site_label_2
_ccdc_geom_bond_type
C58   H52   S    
C63   H65   S    
C16   C21   S    
C27   C29   A    
C54   H39   S    
C66   H71   S    
C50   H26   S    
C59   H55   S    
C36   O20   S    
C60   H58   S    
C6    C9    S    
C7    C13   T    
O20   C54   S    
C49   H23   S    
C50   H28   S    
C39   O18   S    
O30   C67   S    
C2    O4    A    
C15   C19   S    
C52   H33   S    
C38   O15   S    
O29   C65   S    
C16   O12   S    
C29   C31   A    
C35   C37   A    
C59   H54   S    
C31   O22   S    
C5    C11   S    
C10   O27   S    
C6    C12   S    
C23   O7    A    
C54   H38   S    
C11   C13   S    
C17   C20   S    
C15   C17   S    
C18   C19   S    
C53   H35   S    
C43   H7    S    
C3    C12   S    
C63   C64   S    
C64   H67   S    
C67   H74   S    
C1    O1    A    
C15   C22   S    
C2    O2    A    
C68   H77   S    
C61   C62   S    
C56   H46   S    
C31   C33   A    
C45   H11   S    
C23   C27   S    
C62   H62   S    
N1    Zn2   S    
O10   C43   S    
C35   O19   S    
C55   H43   S    
N2    Zn1   S    
C54   H40   S    
O2    Zn2   S    
C5    O23   S    
C1    C7    S    
C65   H70   S    
C66   H72   S    
C65   H69   S    
O11   C45   S    
C40   O17   S    
C47   H19   S    
O18   C52   S    
C60   H57   S    
C55   H42   S    
C60   H56   S    
C67   H75   S    
C48   H21   S    
C24   O8    A    
C15   O11   S    
C52   H34   S    
C41   H2    S    
C23   O5    A    
O12   C46   S    
C24   O6    A    
C58   H50   S    
C44   H10   S    
O14   C48   S    
C4    C6    S    
C25   N1    T    
C39   C40   D    
O26   C60   S    
C42   H5    S    
O5    Zn1   S    
O3    Zn2   S    
C44   H9    S    
C48   H20   S    
O4    Zn1   S    
C51   H31   S    
C17   C21   S    
O28   C63   S    
C62   H63   S    
C32   C34   A    
C57   H48   S    
C46   H14   S    
C43   H6    S    
C3    C9    S    
C61   H60   S    
C9    C11   S    
C49   H24   S    
O17   C51   S    
C67   C68   S    
C28   C38   A    
C16   C20   S    
C68   H78   S    
C45   H13   S    
C51   H30   S    
C9    O28   S    
O8    Zn1   S    
C33   C39   S    
C59   H53   S    
C4    C11   S    
C46   H15   S    
C53   H37   S    
C10   C12   S    
C47   H18   S    
C12   C14   S    
C44   H8    S    
C56   H44   S    
C66   H73   S    
C34   C40   S    
C57   H49   S    
C3    O25   S    
C32   O21   S    
C4    C10   S    
C19   O14   S    
C20   O13   S    
C64   H68   S    
C55   H41   S    
C26   N2    T    
C49   H25   S    
O23   C57   S    
C48   H22   S    
C58   H51   S    
C21   C25   S    
C41   H1    S    
C8    C14   T    
C43   C44   S    
C19   C21   S    
C18   C22   S    
C2    C8    S    
C24   C28   S    
O7    Zn2   S    
C20   C22   S    
C47   H17   S    
C3    C5    S    
C4    O26   S    
C45   H12   S    
O21   C55   S    
C50   H27   S    
O9    C41   S    
O24   C58   S    
C52   H32   S    
C28   C30   A    
C57   H47   S    
C62   H61   S    
C5    C10   S    
C6    O24   S    
C64   H66   S    
O27   C61   S    
C30   C32   A    
O25   C59   S    
C1    O3    A    
C42   H3    S    
C63   H64   S    
C29   O9    S    
O1    Zn1   S    
C36   C38   A    
C51   H29   S    
C33   C35   A    
C37   O16   S    
C34   C36   A    
O16   C50   S    
C46   H16   S    
C53   H36   S    
C42   H4    S    
O13   C47   S    
C18   O30   S    
O6    Zn2   S    
C65   C66   S    
C16   C18   S    
C68   H76   S    
C22   C26   S    
C30   O10   S    
C56   H45   S    
C61   H59   S    
C17   O29   S    
O15   C49   S    
O19   C53   S    
C27   C37   A    
O22   C56   S    
C41   C42   S    
