data_mof_unit_64939.cif
_audit_creation_date              2012-12-11T20:34:24-0500
_audit_creation_method            fapswitch 2.2
_symmetry_space_group_name_H-M    P1
_symmetry_Int_Tables_number       1
_space_group_crystal_system       triclinic
_cell_length_a                    24.770191
_cell_length_b                    28.870057
_cell_length_c                    8.632825
_cell_angle_alpha                 89.771857
_cell_angle_beta                  96.577231
_cell_angle_gamma                 90.005257
_cell_volume                      6132.79778613

loop_
_atom_site_label
_atom_site_type_symbol
_atom_type_description
_atom_site_fract_x
_atom_site_fract_y
_atom_site_fract_z
_atom_type_partial_charge
Ba1   Ba    Ba6+2 0.999910 0.466800 0.844920 1.750749
Ba2   Ba    Ba6+2 0.999910 0.533200 0.344920 1.743240
Ba3   Ba    Ba6+2 0.499910 0.966800 0.844920 1.753207
Ba4   Ba    Ba6+2 0.499910 0.033200 0.344920 1.760087
Br1   Br    Br    0.050267 0.213987 0.541510 -0.514438
Br2   Br    Br    0.203363 0.366955 0.789056 -0.474200
Br3   Br    Br    0.704904 0.131731 0.285524 -0.460803
Br4   Br    Br    0.702667 0.866884 0.790399 -0.469958
Br5   Br    Br    0.149941 0.739865 0.715787 -0.395692
Br6   Br    Br    0.144932 0.257705 0.226848 -0.427494
Br7   Br    Br    0.653004 0.238032 0.710487 -0.431336
Br8   Br    Br    0.644393 0.757523 0.227530 -0.419622
Br9   Br    Br    0.901335 0.252160 0.935877 -0.456615
Br10  Br    Br    0.871310 0.740947 0.403386 -0.488661
Br11  Br    Br    0.401075 0.752297 0.935588 -0.456301
Br12  Br    Br    0.061534 0.793167 0.014391 -0.497040
Br13  Br    Br    0.403882 0.250052 0.476220 -0.477865
Br14  Br    Br    0.122047 0.440652 0.137143 -0.551141
Br15  Br    Br    0.122200 0.558643 0.638863 -0.555658
Br16  Br    Br    0.621917 0.940610 0.137188 -0.550527
Br17  Br    Br    0.622513 0.058845 0.637181 -0.557256
Br18  Br    Br    0.549573 0.713760 0.541630 -0.516264
Br19  Br    Br    0.569947 0.287890 0.102005 -0.535508
Br20  Br    Br    0.793742 0.369890 0.906156 -0.458956
Br21  Br    Br    0.781963 0.621316 0.436345 -0.499333
Br22  Br    Br    0.293285 0.869802 0.906877 -0.455208
Br23  Br    Br    0.284201 0.123361 0.430887 -0.507020
Br24  Br    Br    0.205150 0.631677 0.284938 -0.465422
C1    C     C_3   0.036389 0.251973 0.716668 0.107893
C2    C     C_2   0.858315 0.682160 0.846427 -0.196144
C3    C     C_2   0.348623 0.824762 0.363618 -0.197771
C4    C     C_2   0.359845 0.183129 0.843366 -0.179627
C5    C     C_2   0.822564 0.325683 0.208301 -0.083464
C6    C     C_2   0.822706 0.674198 0.709859 -0.060712
C7    C     C_2   0.321943 0.825986 0.209366 -0.082893
C8    C     C_2   0.324366 0.175220 0.706483 -0.042686
C9    C     C_2   0.835175 0.362910 0.108026 0.220083
C10   C     C_2   0.832010 0.634454 0.617645 0.199996
C11   C     C_2   0.334722 0.863056 0.108726 0.220570
C12   C     C_3   0.016351 0.763853 0.154857 0.075711
C13   C     C_2   0.333333 0.135316 0.615081 0.198000
C14   C     C_1   0.875585 0.395510 0.158626 0.016612
C15   C     C_1   0.875924 0.604220 0.660859 0.002301
C16   C     C_1   0.375335 0.895559 0.158820 0.015626
C17   C     C_1   0.376792 0.104738 0.659271 0.024114
C18   C     C_R   0.206733 0.722067 0.057421 0.555399
C19   C     C_R   0.204726 0.277142 0.563047 0.550203
C20   C     C_R   0.708041 0.221413 0.054696 0.563582
C21   C     C_R   0.703497 0.776446 0.565775 0.556681
C22   C     C_R   0.781850 0.288691 0.155662 0.530860
C23   C     C_3   0.536099 0.751889 0.716828 0.107166
C24   C     C_R   0.779325 0.709981 0.662706 0.540056
C25   C     C_R   0.280974 0.789138 0.157222 0.527697
C26   C     C_R   0.281145 0.211005 0.658112 0.529114
C27   C     C_R   0.158309 0.642359 0.094371 0.180486
C28   C     C_R   0.156754 0.357000 0.597856 0.167477
C29   C     C_R   0.658836 0.142120 0.093335 0.182858
C30   C     C_R   0.656221 0.856771 0.598909 0.166839
C31   C     C_R   0.117701 0.609314 0.042898 0.080257
C32   C     C_R   0.116993 0.390698 0.544431 0.073763
C33   C     C_R   0.618008 0.109237 0.042201 0.075974
C34   C     C_3   0.505956 0.264331 0.184428 0.080703
C35   C     C_R   0.616783 0.890640 0.544750 0.074110
C36   C     C_R   0.096440 0.656436 0.803159 0.008672
C37   C     C_R   0.094640 0.343198 0.307715 0.000066
C38   C     C_R   0.597413 0.156005 0.801022 -0.024175
C39   C     C_R   0.594387 0.843108 0.308232 -0.001251
C40   C     C_3   0.986432 0.284128 0.163114 0.252614
C41   C     C_3   0.971415 0.702447 0.555212 0.303571
C42   C     C_3   0.486062 0.784229 0.163235 0.252510
C43   C     C_3   0.500717 0.223462 0.669639 0.263386
C44   C     C_R   0.136074 0.689904 0.855576 0.207200
C45   C     C_3   0.879966 0.363779 0.423806 0.037581
C46   C     C_R   0.133169 0.308961 0.362361 0.202940
C47   C     C_R   0.637755 0.189006 0.852411 0.182251
C48   C     C_R   0.632644 0.808705 0.363406 0.204678
C49   C     C_R   0.165928 0.685427 0.998356 -0.116727
C50   C     C_R   0.163382 0.313499 0.504256 -0.114202
C51   C     C_R   0.667266 0.184727 0.995802 -0.097057
C52   C     C_R   0.662616 0.813091 0.505838 -0.117171
C53   C     C_R   0.086702 0.617211 0.908406 -0.314760
C54   C     C_R   0.085979 0.383164 0.409860 -0.299012
C55   C     C_R   0.587244 0.117078 0.907220 -0.302866
C56   C     C_3   0.906833 0.655645 0.882514 0.001280
C57   C     C_R   0.585834 0.883156 0.410063 -0.298750
C58   C     C_3   0.953854 0.240134 0.115814 0.276467
C59   C     C_3   0.943002 0.749263 0.516409 0.260774
C60   C     C_3   0.453410 0.740272 0.115944 0.277037
C61   C     C_3   0.466215 0.266444 0.622409 0.288586
C62   C     C_3   0.181514 0.477356 0.210277 0.558368
C63   C     C_3   0.182014 0.522068 0.709933 0.556793
C64   C     C_3   0.681440 0.977265 0.210151 0.557614
C65   C     C_3   0.682050 0.022082 0.709704 0.556255
C66   C     C_3   0.231818 0.455242 0.150847 -0.278581
C67   C     C_3   0.379822 0.863907 0.424216 0.036248
C68   C     C_3   0.231862 0.544299 0.647999 -0.276540
C69   C     C_3   0.731669 0.955144 0.150348 -0.276527
C70   C     C_3   0.732170 0.044089 0.648556 -0.275506
C71   C     C_3   0.842470 0.526987 0.957758 0.313882
C72   C     C_3   0.839876 0.475253 0.446478 0.334315
C73   C     C_3   0.342930 0.027325 0.959480 0.307126
C74   C     C_3   0.339579 0.975339 0.447069 0.332641
C75   C     C_3   0.791174 0.557609 0.938638 0.111438
C76   C     C_3   0.786484 0.447492 0.418365 0.081975
C77   C     C_3   0.292014 0.058488 0.942952 0.117790
C78   C     C_3   0.408012 0.156187 0.881519 -0.002958
C79   C     C_3   0.286251 0.947435 0.420561 0.083950
C80   C     C_3   0.014061 0.299500 0.664641 0.340428
C81   C     C_3   0.994614 0.717879 0.088606 0.269523
C82   C     C_3   0.513865 0.799443 0.664789 0.341538
C83   C     C_3   0.495780 0.214180 0.136176 0.363577
C84   C     C_2   0.904960 0.387783 0.304634 -0.170454
C85   C     C_2   0.909558 0.613191 0.799280 -0.143313
C86   C     C_2   0.404791 0.887792 0.304741 -0.169836
C87   C     C_2   0.410916 0.114002 0.796579 -0.136638
C88   C     C_2   0.849090 0.324510 0.362766 -0.196156
H1    H     H_    0.019195 0.321996 0.769092 0.085741
H2    H     H_    0.243021 0.577006 0.711389 0.140170
H3    H     H_    0.660597 0.002115 0.911743 0.216120
H4    H     H_    0.742776 0.922476 0.214953 0.140482
H5    H     H_    0.743367 0.076795 0.711913 0.140675
H6    H     H_    0.224126 0.445633 0.026154 0.154842
H7    H     H_    0.223627 0.553651 0.522949 0.155111
H8    H     H_    0.723917 0.945706 0.025518 0.154860
H9    H     H_    0.724239 0.053392 0.523395 0.154436
H10   H     H_    0.855912 0.520964 0.841607 -0.017286
H11   H     H_    0.853317 0.484393 0.332226 -0.008823
H12   H     H_    0.356323 0.021882 0.842965 -0.023112
H13   H     H_    0.029181 0.693254 0.087959 0.017410
H14   H     H_    0.352751 0.984287 0.332300 -0.014924
H15   H     H_    0.874306 0.545568 0.034783 0.011477
H16   H     H_    0.870949 0.453585 0.515367 0.003015
H17   H     H_    0.375029 0.045198 0.037585 0.018393
H18   H     H_    0.370821 0.953812 0.515890 0.004117
H19   H     H_    0.802592 0.592437 0.898015 0.038100
H20   H     H_    0.792935 0.418107 0.340531 0.057350
H21   H     H_    0.304444 0.094001 0.911502 0.038222
H22   H     H_    0.292868 0.917477 0.345322 0.055536
H23   H     H_    0.038284 0.313907 0.575519 -0.036477
H24   H     H_    0.519062 0.821944 0.769231 0.085445
H25   H     H_    0.975840 0.724312 0.967225 -0.009638
H26   H     H_    0.538109 0.813797 0.575632 -0.037463
H27   H     H_    0.492511 0.212958 0.006731 -0.133654
H28   H     H_    0.075574 0.256381 0.791683 0.098526
H29   H     H_    0.040776 0.758182 0.269418 0.128027
H30   H     H_    0.575388 0.756240 0.791394 0.097397
H31   H     H_    0.512387 0.266979 0.313053 0.141318
H32   H     H_    0.840065 0.296825 0.441409 0.144549
H33   H     H_    0.852601 0.712541 0.916611 0.134051
H34   H     H_    0.339530 0.797148 0.442444 0.143503
H35   H     H_    0.530841 0.192635 0.185915 0.067367
H36   H     H_    0.354091 0.213580 0.913154 0.121059
H37   H     H_    0.058916 0.590725 0.866271 0.099601
H38   H     H_    0.058285 0.409861 0.366328 0.101861
H39   H     H_    0.559382 0.090648 0.865379 0.097122
H40   H     H_    0.558268 0.909922 0.366246 0.101843
H41   H     H_    0.007582 0.233739 0.785268 0.148278
H42   H     H_    0.982011 0.787547 0.169616 0.119178
H43   H     H_    0.507343 0.733771 0.785894 0.148419
H44   H     H_    0.470510 0.286019 0.139482 0.109810
H45   H     H_    0.957879 0.313272 0.174834 0.004329
H46   H     H_    0.267051 0.479234 0.167965 0.116421
H47   H     H_    0.953456 0.675667 0.472704 0.102927
H48   H     H_    0.457559 0.813427 0.174633 0.004469
H49   H     H_    0.474870 0.197064 0.717903 -0.027943
H50   H     H_    0.011040 0.277777 0.277092 0.029071
H51   H     H_    0.965534 0.691634 0.675467 -0.105385
H52   H     H_    0.510575 0.777886 0.277370 0.028372
H53   H     H_    0.533824 0.233963 0.760499 0.025979
H54   H     H_    0.982058 0.212891 0.082451 0.129498
H55   H     H_    0.966372 0.769546 0.437457 0.122348
H56   H     H_    0.481587 0.712951 0.082996 0.129156
H57   H     H_    0.267279 0.520468 0.665097 0.116107
H58   H     H_    0.491087 0.291754 0.564119 0.111691
H59   H     H_    0.763153 0.538659 0.714747 0.196234
H60   H     H_    0.741066 0.504223 0.853659 0.232472
H61   H     H_    0.751231 0.485091 0.231479 0.225503
H62   H     H_    0.736762 0.505503 0.405264 0.241760
H63   H     H_    0.266267 0.043991 0.713550 0.194429
H64   H     H_    0.241967 0.007252 0.842424 0.231156
H65   H     H_    0.250573 0.982635 0.228872 0.223805
H66   H     H_    0.237228 0.005898 0.399883 0.240696
H67   H     H_    0.738978 0.587911 0.074586 0.248604
H68   H     H_    0.766962 0.979067 0.167708 0.116357
H69   H     H_    0.800438 0.575570 0.167632 0.233681
H70   H     H_    0.760477 0.455434 0.634637 0.213393
H71   H     H_    0.738017 0.407114 0.540354 0.243524
H72   H     H_    0.240660 0.088020 0.083405 0.249686
H73   H     H_    0.299135 0.068274 0.178560 0.232219
H74   H     H_    0.259491 0.957011 0.634952 0.214615
H75   H     H_    0.237856 0.907795 0.545068 0.243628
H76   H     H_    0.906403 0.249873 0.293643 0.191341
H77   H     H_    0.953518 0.208093 0.328092 0.232954
H78   H     H_    0.915631 0.758610 0.730091 0.190741
H79   H     H_    0.767454 0.020131 0.666349 0.116752
H80   H     H_    0.977808 0.780968 0.715385 0.222857
H81   H     H_    0.405691 0.750212 0.293000 0.191305
H82   H     H_    0.452788 0.708462 0.328514 0.232798
H83   H     H_    0.427564 0.264158 0.821014 0.178538
H84   H     H_    0.480850 0.300819 0.830441 0.202977
H85   H     H_    0.946214 0.445111 0.386370 0.190285
H86   H     H_    0.977178 0.413050 0.257874 0.202377
H87   H     H_    0.942046 0.551522 0.883520 0.187338
H88   H     H_    0.979871 0.582075 0.764406 0.207613
H89   H     H_    0.446094 0.945118 0.386217 0.190053
H90   H     H_    0.242996 0.422661 0.215895 0.138785
H91   H     H_    0.477050 0.912951 0.257836 0.201910
H92   H     H_    0.442139 0.052216 0.883650 0.182795
H93   H     H_    0.480638 0.081449 0.763476 0.210207
H94   H     H_    0.226738 0.484114 0.419577 0.182302
H95   H     H_    0.159778 0.497434 0.411373 0.214609
H96   H     H_    0.228095 0.514628 0.917896 0.182128
H97   H     H_    0.161064 0.501882 0.912174 0.216482
H98   H     H_    0.726795 0.983947 0.419342 0.182352
H99   H     H_    0.659877 0.997336 0.411407 0.214741
H100  H     H_    0.727676 0.014870 0.918525 0.182178
N1    N     N_R   0.257932 0.710695 0.120709 -0.161516
N2    N     N_R   0.727875 0.698077 0.604171 -0.145276
N3    N     N_R   0.229665 0.800535 0.095934 -0.152172
N4    N     N_R   0.229163 0.198955 0.605603 -0.152963
N5    N     N_R   0.193491 0.767827 0.047651 -0.132567
N6    N     N_R   0.191906 0.231221 0.559502 -0.139578
N7    N     N_R   0.695207 0.267173 0.040232 -0.128340
N8    N     N_R   0.690890 0.730499 0.557369 -0.138400
N9    N     N_3   0.749018 0.538520 0.824115 -0.436505
N10   N     N_3   0.741598 0.475338 0.341646 -0.448014
N11   N     N_3   0.250823 0.041939 0.820887 -0.436152
N12   N     N_R   0.256466 0.289138 0.618108 -0.164219
N13   N     N_3   0.241398 0.974739 0.341073 -0.448898
N14   N     N_3   0.769440 0.562643 0.087618 -0.442461
N15   N     N_3   0.772016 0.428445 0.565206 -0.436239
N16   N     N_3   0.268314 0.060511 0.089883 -0.440634
N17   N     N_3   0.271581 0.929506 0.568649 -0.433625
N18   N     N_3   0.925201 0.222458 0.242532 -0.432008
N19   N     N_3   0.938854 0.776753 0.656336 -0.433009
N20   N     N_3   0.424576 0.722735 0.242486 -0.432132
N21   N     N_3   0.447179 0.288693 0.757919 -0.447467
N22   N     N_3   0.954596 0.411710 0.350200 -0.499066
N23   N     N_R   0.758637 0.210147 0.123164 -0.162471
N24   N     N_3   0.954718 0.584121 0.851007 -0.493175
N25   N     N_3   0.454452 0.911699 0.350146 -0.499204
N26   N     N_3   0.455501 0.084441 0.849685 -0.496165
N27   N     N_3   0.187512 0.473751 0.376528 -0.481729
N28   N     N_3   0.188857 0.525408 0.876254 -0.481337
N29   N     N_3   0.687542 0.973620 0.376418 -0.481689
N30   N     N_3   0.688495 0.025580 0.876003 -0.481762
N31   N     N_R   0.754628 0.788253 0.627206 -0.159515
N32   N     N_R   0.794541 0.242966 0.173368 -0.184108
N33   N     N_R   0.791400 0.755908 0.675579 -0.192848
N34   N     N_R   0.294044 0.743401 0.170405 -0.182893
N35   N     N_R   0.293575 0.256937 0.665440 -0.180587
N36   N     N_R   0.731138 0.299967 0.089190 -0.147594
O1    O     O_2   0.893910 0.433590 0.874460 -0.425049
O2    O     O_3   0.026956 0.707355 0.540523 -0.593010
O3    O     O_3   0.520238 0.794094 0.048359 -0.602877
O4    O     O_3   0.522554 0.205706 0.538960 -0.567993
O5    O     O_3   0.061740 0.523180 0.062830 -0.460996
O6    O     O_3   0.061740 0.476820 0.562830 -0.461455
O7    O     O_3   0.561740 0.023180 0.062830 -0.461662
O8    O     O_3   0.561740 0.976820 0.562830 -0.462899
O9    O     O_3   0.938210 0.476710 0.126870 -0.517881
O10   O     O_3   0.938210 0.523290 0.626870 -0.509666
O11   O     O_3   0.438210 0.976710 0.126870 -0.519187
O12   O     O_2   0.893910 0.566410 0.374460 -0.441775
O13   O     O_3   0.438210 0.023290 0.626870 -0.512652
O14   O     O_3   0.981570 0.392580 0.636990 -0.493480
O15   O     O_3   0.981570 0.607420 0.136990 -0.463336
O16   O     O_3   0.481570 0.892580 0.636990 -0.493906
O17   O     O_3   0.481570 0.107420 0.136990 -0.472034
O18   O     O_2   0.900155 0.350980 0.753628 -0.381052
O19   O     O_2   0.882720 0.635658 0.190891 -0.425417
O20   O     O_2   0.400118 0.851094 0.753958 -0.381889
O21   O     O_2   0.379040 0.129892 0.176772 -0.430876
O22   O     O_3   0.830889 0.484736 0.026102 -0.621963
O23   O     O_2   0.393910 0.933590 0.874460 -0.424013
O24   O     O_3   0.831259 0.515091 0.531034 -0.636382
O25   O     O_3   0.330881 0.984742 0.024861 -0.620612
O26   O     O_3   0.331043 0.015342 0.530975 -0.641502
O27   O     O_3   0.959058 0.296220 0.602656 -0.590050
O28   O     O_3   0.955847 0.700634 0.181113 -0.587543
O29   O     O_3   0.458854 0.796242 0.602819 -0.589668
O30   O     O_3   0.447903 0.198649 0.193129 -0.545323
O31   O     O_2   0.105800 0.433150 0.815270 -0.401986
O32   O     O_2   0.105800 0.566850 0.315270 -0.400460
O33   O     O_2   0.605800 0.933150 0.815270 -0.402471
O34   O     O_2   0.393910 0.066410 0.374460 -0.433958
O35   O     O_2   0.605800 0.066850 0.315270 -0.401604
O36   O     O_3   0.018000 0.392500 0.052760 -0.455815
O37   O     O_3   0.018000 0.607500 0.552760 -0.481120
O38   O     O_3   0.518000 0.892500 0.052760 -0.456085
O39   O     O_3   0.518000 0.107500 0.552760 -0.450671
O40   O     O_2   0.101607 0.344330 0.985004 -0.389847
O41   O     O_2   0.103924 0.652590 0.481246 -0.360148
O42   O     O_2   0.601528 0.844137 0.985605 -0.389455
O43   O     O_2   0.601921 0.153688 0.475325 -0.362901
O44   O     O_3   0.176905 0.474962 0.665797 -0.608742
O45   O     O_3   0.176667 0.524567 0.165606 -0.610891
O46   O     O_3   0.676914 0.974940 0.665898 -0.608799
O47   O     O_3   0.676624 0.024486 0.165643 -0.611417
O48   O     O_3   0.020493 0.294102 0.048048 -0.602720
P1    P     P_3+3 0.888690 0.449140 0.046940 1.011521
P2    P     P_3+3 0.060807 0.655796 0.597526 1.080645
P3    P     P_3+3 0.558641 0.843392 0.103080 1.054052
P4    P     P_3+3 0.560313 0.156035 0.596236 1.097355
P5    P     P_3+3 0.930047 0.649073 0.097403 1.016410
P6    P     P_3+3 0.929098 0.351441 0.604192 1.049476
P7    P     P_3+3 0.427945 0.147334 0.096938 1.036339
P8    P     P_3+3 0.429008 0.851506 0.604418 1.048611
P9    P     P_3+3 0.888690 0.550860 0.546940 1.000215
P10   P     P_3+3 0.388690 0.949140 0.046940 1.012091
P11   P     P_3+3 0.388690 0.050860 0.546940 1.005199
P12   P     P_3+3 0.111080 0.448680 0.642780 1.089850
P13   P     P_3+3 0.111080 0.551320 0.142780 1.093037
P14   P     P_3+3 0.611080 0.948680 0.642780 1.088449
P15   P     P_3+3 0.611080 0.051320 0.142780 1.090484
P16   P     P_3+3 0.058793 0.343459 0.102708 1.054186

loop_
_geom_bond_atom_site_label_1
_geom_bond_atom_site_label_2
_ccdc_geom_bond_type
C70   H5    S    
C71   C75   S    
C27   C31   A    
C7    C25   S    
C72   H11   S    
O1    P1    D    
O21   P7    D    
C37   P16   S    
C82   O29   S    
Br16  C64   S    
C12   H29   S    
Ba2   O37   S    
H3    N30   S    
C31   P13   S    
C69   H8    S    
H91   N25   S    
C56   P5    S    
H100  N30   S    
C72   C76   S    
C73   H12   S    
C59   N19   S    
C9    C14   A    
H84   N21   S    
C63   C68   S    
Ba2   O12   S    
C19   N12   A    
C64   C69   S    
C26   N35   A    
C1    C80   S    
H71   N15   S    
C75   N14   S    
C79   N17   S    
C16   C86   A    
Ba4   O8    S    
C18   N1    A    
C35   C57   D    
O37   P2    S    
C61   H58   S    
C22   N32   A    
O39   P4    S    
H81   N20   S    
C39   C57   S    
C68   H57   S    
Ba3   P14   S    
C74   H14   S    
Br13  C61   S    
C3    H34   S    
O31   P12   D    
C2    H33   S    
C5    C22   S    
C1    H28   S    
C39   P3    S    
N23   N32   A    
C59   H55   S    
H67   N14   S    
O42   P3    D    
Br12  C12   S    
C66   H6    S    
H99   N29   S    
C84   N22   S    
C79   N13   S    
C21   N8    A    
C83   O30   S    
O14   P6    S    
H77   N18   S    
C81   O28   S    
C22   N36   A    
Ba1   O6    S    
C12   H42   S    
C5    C88   A    
Ba3   O16   S    
C24   N2    A    
O20   P8    D    
C17   C87   A    
C32   P12   S    
C18   C49   S    
C72   H16   S    
C29   C33   A    
H80   N19   S    
C73   H17   S    
C75   N9    S    
H64   N11   S    
C21   C52   S    
C78   C87   A    
C79   H22   S    
Ba4   O39   S    
C10   C15   A    
C37   C54   S    
Br17  C65   S    
O48   P16   S    
Ba3   O7    S    
O3    P3    S    
O4    P4    S    
C13   C17   A    
O38   P3    S    
C47   C51   D    
Br3   C29   S    
Ba1   O36   S    
C40   H50   S    
N7    N36   A    
C66   H90   S    
Br5   C44   S    
O32   P13   D    
H69   N14   S    
C40   O48   S    
C45   C88   A    
C4    C8    A    
Ba4   P11   S    
C55   H39   S    
Ba2   O15   S    
C63   O44   S    
C28   C50   S    
O35   P15   D    
C14   C84   A    
O17   P7    S    
Br19  C34   S    
C34   C83   S    
O13   P11   S    
O2    P2    S    
C83   H27   S    
N12   N35   A    
H61   N10   S    
H89   N25   S    
C71   O22   S    
C41   O2    S    
C71   H10   S    
Ba4   O35   S    
C2    C6    A    
C64   O47   S    
C77   N16   S    
H73   N16   S    
Ba1   O31   S    
C76   N15   S    
Ba2   O32   S    
C37   C46   A    
Br21  C10   S    
C4    H36   S    
Br20  C9    S    
C74   C79   S    
H74   N17   S    
Ba1   P12   S    
C81   H13   S    
Ba3   P10   S    
C34   H44   S    
Ba3   Ba4   S    
O23   P10   D    
C45   C84   A    
O28   P5    S    
C76   H20   S    
C68   H7    S    
C58   H54   S    
C80   H1    S    
H97   N28   S    
C48   C52   D    
O40   P16   D    
H86   N22   S    
C80   H23   S    
Ba3   O23   S    
C11   C16   A    
Br7   C47   S    
O18   P6    D    
H98   N29   S    
C25   N34   A    
C77   N11   S    
H63   N11   S    
C36   C53   S    
C8    C26   S    
C77   H21   S    
Ba1   O10   S    
Ba2   O5    S    
C63   N28   S    
C43   H49   S    
O8    P14   S    
C81   H25   S    
C19   C50   S    
Br11  C60   S    
C14   P1    S    
O7    P15   S    
C25   N3    A    
H78   N19   S    
H88   N24   S    
C20   N23   A    
O46   P14   S    
H85   N22   S    
C40   H45   S    
C38   P4    S    
C58   N18   S    
C72   O24   S    
C60   H56   S    
C20   C51   S    
C73   O25   S    
H92   N26   S    
H94   N27   S    
Br22  C11   S    
C67   C86   A    
Ba4   O17   S    
Br4   C30   S    
C38   C55   S    
C85   N24   S    
Ba1   O14   S    
Ba2   P9    S    
C43   H53   S    
C80   O27   S    
C41   C59   S    
C30   C52   S    
C8    C13   A    
H83   N21   S    
Ba4   P15   S    
Ba1   O1    S    
C62   C66   S    
Ba1   O5    S    
N31   N33   A    
C36   P2    S    
Br14  C62   S    
C61   N21   S    
C33   C55   D    
C88   H32   S    
C1    H41   S    
H70   N15   S    
C23   H30   S    
Ba4   O34   S    
C28   C32   A    
C83   H35   S    
C57   H40   S    
O12   P9    D    
C7    C11   A    
C41   H51   S    
O15   P5    S    
C42   H52   S    
C87   N26   S    
Ba2   P13   S    
C26   N4    A    
C21   N31   A    
C23   C82   S    
Br8   C48   S    
C3    C7    A    
C65   O46   S    
O22   P1    S    
C67   P8    S    
C69   H68   S    
Ba3   O33   S    
C31   C53   D    
C42   O3    S    
C64   N29   S    
N2    N8    A    
C12   C81   S    
H75   N17   S    
C6    C24   S    
H59   N9    S    
H82   N20   S    
H76   N18   S    
C3    C67   A    
C38   C47   A    
C5    C9    A    
Br15  C63   S    
C65   N30   S    
C78   P7    S    
C33   P15   S    
C46   C50   D    
H72   N16   S    
C56   C85   A    
Ba3   O13   S    
C40   C58   S    
C29   C51   S    
C42   C60   S    
N4    N6    A    
C53   H37   S    
H60   N9    S    
C18   N5    A    
C68   H2    S    
Br10  C59   S    
O25   P10   S    
C27   C49   S    
Ba2   O9    S    
Ba3   O8    S    
Ba1   Ba2   S    
C82   H26   S    
C75   H19   S    
C32   C54   D    
H65   N13   S    
O44   P12   S    
Br9   C58   S    
C24   N33   A    
C66   H46   S    
O47   P15   S    
O19   P5    D    
C4    C78   A    
C62   N27   S    
Ba1   P1    S    
C74   O26   S    
C45   P6    S    
O16   P8    S    
Br24  C27   S    
Br1   C1    S    
C70   H9    S    
C73   C77   S    
C60   N20   S    
C16   P10   S    
C17   P11   S    
O27   P6    S    
O9    P1    S    
C74   H18   S    
C44   C49   D    
O5    P13   S    
N3    N5    A    
Br23  C13   S    
H66   N13   S    
C43   C61   S    
H95   N27   S    
O33   P14   D    
H87   N24   S    
C62   O45   S    
Ba2   O6    S    
C19   N6    A    
C34   H31   S    
N1    N34   A    
O36   P16   S    
O10   P9    S    
C30   C35   A    
C6    C10   A    
C15   P9    S    
C41   H47   S    
Br2   C28   S    
O24   P9    S    
C42   H48   S    
H93   N26   S    
C76   N10   S    
O26   P11   S    
C20   N7    A    
Ba4   O7    S    
O34   P11   D    
Ba3   O38   S    
C71   H15   S    
C35   P14   S    
C69   H4    S    
C82   H24   S    
O29   P8    S    
O45   P13   S    
H96   N28   S    
O6    P12   S    
O30   P7    S    
C15   C85   A    
Br6   C46   S    
Ba4   O11   S    
C23   H43   S    
C70   H79   S    
C36   C44   A    
C2    C56   A    
C43   O4    S    
H62   N10   S    
C54   H38   S    
C86   N25   S    
O43   P4    D    
C39   C48   A    
O11   P10   S    
O41   P2    D    
C65   C70   S    
Br18  C23   S    
