data_mof_unit_38037.cif
_audit_creation_date              2013-03-05T15:49:42-0500
_audit_creation_method            fapswitch 2.2
_symmetry_space_group_name_H-M    P1
_symmetry_Int_Tables_number       1
_space_group_crystal_system       triclinic
_cell_length_a                    13.504031
_cell_length_b                    13.484001
_cell_length_c                    27.557545
_cell_angle_alpha                 90.605156
_cell_angle_beta                  90.200483
_cell_angle_gamma                 60.081511
_cell_volume                      4348.94941798

loop_
_atom_site_label
_atom_site_type_symbol
_atom_site_description
_atom_site_fract_x
_atom_site_fract_y
_atom_site_fract_z
_atom_type_partial_charge
O1    O     O_R   0.301780 0.195490 0.553940 -0.506913
O2    O     O_R   0.522450 0.158840 0.550250 -0.495024
C1    C     C_R   0.620427 0.101238 0.569844 0.545763
O3    O     O_R   0.694460 0.003360 0.553820 -0.504498
O4    O     O_R   0.657750 0.819520 0.549120 -0.494005
C2    C     C_R   0.599826 0.779173 0.568415 0.545606
O5    O     O_R   0.501990 0.803120 0.552700 -0.505050
O6    O     O_R   0.318230 0.023430 0.549370 -0.492163
C3    C     C_R   0.277823 0.121637 0.569381 0.546817
O7    O     O_R   0.302950 0.194150 0.446980 -0.515311
O8    O     O_R   0.523540 0.157600 0.451100 -0.501900
C4    C     C_R   0.621379 0.099704 0.431568 0.534497
O9    O     O_R   0.695630 0.002030 0.446860 -0.506323
O10   O     O_R   0.658840 0.818280 0.449970 -0.500138
C5    C     C_R   0.599987 0.779740 0.429670 0.530689
O11   O     O_R   0.503160 0.801780 0.445740 -0.515539
O12   O     O_R   0.319320 0.022190 0.450230 -0.508430
C6    C     C_R   0.277300 0.120951 0.431442 0.535833
Cr1   Cr    Cr6+3 0.417550 0.169090 0.500530 1.025601
Cr2   Cr    Cr6+3 0.669180 0.913420 0.499920 1.032966
Cr3   Cr    Cr6+3 0.413260 0.917540 0.499520 1.026060
O13   O     O_3   0.499990 0.000010 0.499990 -0.251983
C7    C     C_3   0.772866 0.596170 0.736350 -0.101428
C8    C     C_3   0.752593 0.689709 0.774600 -0.100155
H1    H     H_    0.818665 0.707490 0.789561 0.104551
H2    H     H_    0.855724 0.536418 0.718750 0.103542
H3    H     H_    0.620080 0.865991 0.738524 0.100653
C9    C     C_1   0.697048 0.607590 0.898665 -0.015302
C10   C     C_1   0.631591 0.731453 0.615855 -0.015357
C11   C     C_3   0.699948 0.560557 0.767025 -0.101694
C12   C     C_3   0.679427 0.654521 0.804405 0.052698
C13   C     C_3   0.590863 0.647548 0.739800 -0.099118
C14   C     C_3   0.663902 0.682762 0.709920 0.052700
C15   C     C_3   0.570561 0.741043 0.777914 -0.101870
C16   C     C_3   0.643401 0.776735 0.747293 -0.103079
C17   C     C_1   0.688046 0.633822 0.856619 -0.058678
C18   C     C_1   0.650087 0.704078 0.657761 -0.058304
H4    H     H_    0.487641 0.800791 0.795476 0.103439
H5    H     H_    0.524744 0.629740 0.724910 0.104753
H6    H     H_    0.723179 0.471323 0.775786 0.098801
C19   C     C_3   0.091161 0.132602 0.737118 -0.101581
C20   C     C_3   0.182958 0.059192 0.775217 -0.100261
H7    H     H_    0.199365 0.975624 0.789442 0.104544
H8    H     H_    0.031446 0.109924 0.719013 0.103817
H9    H     H_    0.360701 0.014098 0.739687 0.100439
C21   C     C_1   0.097485 0.199983 0.900264 -0.015667
C22   C     C_1   0.229821 0.137658 0.617074 -0.015199
C23   C     C_3   0.055594 0.241121 0.768633 -0.101562
C24   C     C_3   0.147821 0.167541 0.805881 0.052654
C25   C     C_3   0.144076 0.262308 0.742077 -0.099088
C26   C     C_3   0.179246 0.154076 0.711332 0.052539
C27   C     C_3   0.235833 0.188989 0.780024 -0.101738
C28   C     C_3   0.271503 0.080453 0.748556 -0.103053
C29   C     C_1   0.125240 0.180786 0.858191 -0.058380
C30   C     C_1   0.201898 0.146479 0.659079 -0.058270
H10   H     H_    0.295548 0.211738 0.798085 0.103632
H11   H     H_    0.127627 0.345960 0.727927 0.104614
H12   H     H_    0.966411 0.307567 0.777469 0.099222
C31   C     C_3   0.629788 0.276638 0.738943 -0.101645
C32   C     C_3   0.555243 0.258646 0.776614 -0.099938
H13   H     H_    0.471682 0.325973 0.791181 0.104678
H14   H     H_    0.608073 0.358859 0.721481 0.103012
H15   H     H_    0.509807 0.126397 0.739776 0.100675
C33   C     C_1   0.691281 0.206581 0.901437 -0.015282
C34   C     C_1   0.635889 0.133362 0.617752 -0.015021
C35   C     C_3   0.737299 0.203548 0.770143 -0.101548
C36   C     C_3   0.662596 0.185281 0.806970 0.052779
C37   C     C_3   0.758310 0.093959 0.742696 -0.099117
C38   C     C_3   0.651050 0.167197 0.712274 0.052482
C39   C     C_3   0.683851 0.075912 0.780248 -0.101977
C40   C     C_3   0.576309 0.148936 0.749076 -0.103168
C41   C     C_1   0.674187 0.195721 0.859326 -0.058231
C42   C     C_1   0.644231 0.152349 0.659913 -0.058426
H16   H     H_    0.705634 0.993630 0.797671 0.103569
H17   H     H_    0.841943 0.026600 0.728193 0.104856
H18   H     H_    0.803881 0.225997 0.779410 0.099573
C43   C     C_R   0.619151 0.755105 0.378212 0.035923
C44   C     C_R   0.723124 0.668717 0.359587 -0.131666
C45   C     C_R   0.739372 0.656783 0.309391 -0.107894
C46   C     C_R   0.652763 0.733400 0.278075 0.029402
C47   C     C_R   0.551693 0.823188 0.297400 -0.136985
C48   C     C_R   0.534931 0.833268 0.347013 -0.125305
C49   C     C_R   0.568499 0.721824 0.199818 -0.116756
C50   C     C_R   0.581144 0.685146 0.151913 -0.122976
C51   C     C_R   0.778964 0.640274 0.153465 -0.121401
C52   C     C_R   0.766172 0.677249 0.201522 -0.116173
C53   C     C_R   0.662202 0.713677 0.225507 0.031605
C54   C     C_R   0.687945 0.638835 0.129184 0.021959
H19   H     H_    0.790256 0.610552 0.383632 0.109251
H20   H     H_    0.487399 0.749236 0.217633 0.110969
H21   H     H_    0.509402 0.685869 0.133857 0.133240
H22   H     H_    0.817928 0.586313 0.295082 0.112935
H23   H     H_    0.838652 0.672701 0.220533 0.121331
H24   H     H_    0.862128 0.605803 0.136539 0.135209
H25   H     H_    0.485183 0.885041 0.274104 0.111258
H26   H     H_    0.457328 0.904641 0.361317 0.125001
C55   C     C_R   0.216818 0.142330 0.385236 0.019176
C56   C     C_R   0.223344 0.050061 0.358616 -0.126090
C57   C     C_R   0.198640 0.061429 0.309402 -0.104326
C58   C     C_R   0.162101 0.166718 0.286623 0.039186
C59   C     C_R   0.142627 0.262359 0.314656 -0.114742
C60   C     C_R   0.170816 0.250031 0.363596 -0.121364
C61   C     C_R   0.173464 0.248562 0.207256 -0.122427
C62   C     C_R   0.148836 0.265299 0.157925 -0.127376
C63   C     C_R   0.082495 0.128122 0.160007 -0.122532
C64   C     C_R   0.103950 0.113932 0.209328 -0.111636
C65   C     C_R   0.146837 0.176165 0.233701 0.025701
C66   C     C_R   0.099821 0.207750 0.134356 0.020207
H27   H     H_    0.256773 0.966428 0.374691 0.133684
H28   H     H_    0.210510 0.294536 0.224896 0.105642
H29   H     H_    0.163578 0.326526 0.138789 0.126807
H30   H     H_    0.214411 0.986024 0.288889 0.115103
H31   H     H_    0.081683 0.058242 0.228606 0.170597
H32   H     H_    0.044507 0.082475 0.142856 0.141957
H33   H     H_    0.109583 0.345772 0.298440 0.104646
H34   H     H_    0.162617 0.323184 0.383742 0.130938
C67   C     C_R   0.632554 0.127988 0.382214 0.042417
C68   C     C_R   0.601164 0.239987 0.369093 -0.119713
C69   C     C_R   0.602349 0.265662 0.320269 -0.096204
C70   C     C_R   0.631550 0.179891 0.284942 0.054970
C71   C     C_R   0.654825 0.070429 0.298163 -0.070018
C72   C     C_R   0.657606 0.043999 0.346573 -0.094358
C73   C     C_R   0.761430 0.123249 0.214264 0.215010
C74   C     C_R   0.776967 0.130682 0.165103 -0.108989
C75   C     C_R   0.584692 0.292245 0.157854 -0.141021
C76   C     C_R   0.565772 0.281701 0.206799 -0.165032
C77   C     C_R   0.653618 0.197422 0.234985 0.011573
C78   C     C_R   0.690511 0.216237 0.136753 -0.016710
H35   H     H_    0.577586 0.306229 0.396497 0.110966
H36   H     H_    0.860596 0.073635 0.149906 0.162437
H37   H     H_    0.584139 0.350540 0.310173 0.116086
H38   H     H_    0.482880 0.338704 0.222689 0.117171
H39   H     H_    0.517637 0.359829 0.136756 0.133041
H40   H     H_    0.675803 0.004120 0.270983 0.129842
H41   H     H_    0.676710 0.958485 0.356171 0.135075
O14   O     O_R   0.819250 0.149410 0.965240 -0.504775
O15   O     O_R   0.006940 0.180310 0.968270 -0.493909
C79   C     C_R   0.049831 0.234799 0.947968 0.545983
O16   O     O_R   0.028420 0.332670 0.963010 -0.506670
O17   O     O_R   0.810130 0.520390 0.966030 -0.494708
C80   C     C_R   0.711908 0.561874 0.946442 0.545337
O18   O     O_R   0.636050 0.541380 0.962520 -0.507125
O19   O     O_R   0.666480 0.323610 0.968170 -0.494714
C81   C     C_R   0.722505 0.224018 0.949149 0.546265
O20   O     O_R   0.817280 0.156800 0.072180 -0.525467
O21   O     O_R   0.005110 0.187160 0.067410 -0.507548
C82   C     C_R   0.047451 0.243744 0.086517 0.541917
O22   O     O_R   0.026450 0.340060 0.069950 -0.517478
O23   O     O_R   0.808300 0.527240 0.065170 -0.504002
C83   C     C_R   0.709172 0.572654 0.084226 0.543258
O24   O     O_R   0.634070 0.548770 0.069460 -0.518291
O25   O     O_R   0.664650 0.330470 0.067300 -0.496265
C84   C     C_R   0.721414 0.233486 0.088026 0.546263
Cr4   Cr    Cr6+3 0.909770 0.175810 0.018240 1.025521
Cr5   Cr    Cr6+3 0.913300 0.427650 0.016090 1.025003
Cr6   Cr    Cr6+3 0.657770 0.431010 0.016900 1.025545
O26   O     O_3   0.826940 0.344820 0.017080 -0.246980
N1    N     N_R   0.857061 0.043410 0.242952 0.059033
O27   O     O_R   0.933757 0.946220 0.224151 -0.375673
O28   O     O_R   0.876076 0.073631 0.285424 -0.335777

loop_
_geom_bond_atom_site_label_1
_geom_bond_atom_site_label_2
_geom_bond_distance
_ccdc_geom_bond_type
C49   C53   1.403964 A    
O11   Cr3   2.044542 S    
Cr5   O26   1.976961 S    
C19   C20   1.551647 S    
C35   C37   1.547849 S    
C82   O22   1.272708 A    
C55   C56   1.402022 A    
C70   C77   1.456023 S    
C73   C74   1.383948 A    
O4    Cr2   1.922997 S    
C5    C43   1.447424 S    
C51   C52   1.390694 A    
C70   C71   1.399230 A    
C37   H17   1.110150 S    
C4    O9    1.268463 A    
O8    Cr1   1.927719 S    
C76   C77   1.403352 A    
C61   H28   1.082659 S    
Cr6   O26   1.980186 S    
C36   C41   1.463593 S    
C46   C53   1.464543 S    
C12   C17   1.461754 S    
C31   C35   1.549265 S    
C11   C12   1.538648 S    
C47   H25   1.083738 S    
C7    H2    1.110238 S    
C64   C65   1.400312 A    
C5    O11   1.267980 A    
C34   C42   1.204038 T    
C15   C16   1.548499 S    
C13   H5    1.110168 S    
C38   C40   1.538899 S    
C68   C69   1.394965 A    
C73   C77   1.409695 A    
O25   Cr6   1.920620 S    
C32   C36   1.535723 S    
C37   C38   1.535641 S    
C7    C14   1.534782 S    
C39   H16   1.110289 S    
C75   C78   1.401000 A    
C69   H37   1.083172 S    
C7    C8    1.551247 S    
C38   C42   1.463562 S    
C39   C40   1.548938 S    
C50   H21   1.083311 S    
O16   Cr5   2.046188 S    
C71   H40   1.084148 S    
C24   C29   1.464998 S    
C55   C60   1.402254 A    
C21   C79   1.433269 S    
C66   C82   1.462278 S    
O20   C84   1.262899 A    
C23   C25   1.547861 S    
C35   C36   1.539024 S    
H9    C28   1.110644 S    
C31   C32   1.551196 S    
C56   H27   1.083088 S    
Cr3   O13   1.976683 S    
N1    O28   1.301590 A    
C1    C34   1.431925 S    
C47   C48   1.380766 A    
C44   H19   1.083303 S    
C63   C66   1.405357 A    
O1    Cr1   2.046226 S    
C8    C16   1.549968 S    
C48   H26   1.081021 S    
C64   H31   1.082281 S    
C11   H6    1.110642 S    
C59   C60   1.389053 A    
O10   Cr2   1.923549 S    
C63   H32   1.082815 S    
Cr1   O13   1.976096 S    
O1    C3    1.268352 A    
O17   C80   1.274694 A    
Cr4   O26   1.975898 S    
C52   C53   1.400406 A    
O6    C3    1.273299 A    
C33   C81   1.431881 S    
C32   C40   1.550255 S    
H3    C16   1.110667 S    
C43   C44   1.397376 A    
O12   Cr3   1.920480 S    
C45   C46   1.409400 A    
C32   H13   1.110041 S    
C26   C28   1.539067 S    
C13   C15   1.548215 S    
N1    O27   1.301533 A    
C67   C72   1.399419 A    
C7    C11   1.549474 S    
O22   Cr5   2.038035 S    
C52   H23   1.083249 S    
O14   Cr4   2.040768 S    
C51   H24   1.083141 S    
C25   C27   1.548244 S    
C49   C50   1.385669 A    
O21   Cr4   1.922764 S    
C76   H38   1.083324 S    
O7    Cr1   2.039546 S    
C69   C70   1.401703 A    
C24   C27   1.535283 S    
C35   H18   1.110637 S    
C21   C29   1.204848 T    
O12   C6    1.273641 A    
C45   H22   1.083171 S    
C12   C15   1.534568 S    
C74   H36   1.082770 S    
C25   C26   1.535757 S    
O24   Cr6   2.041917 S    
C8    H1    1.110063 S    
C71   C72   1.380029 A    
C78   C84   1.462438 S    
C31   C38   1.534979 S    
O20   Cr4   2.043435 S    
C37   C39   1.548497 S    
C23   C24   1.539172 S    
C6    C55   1.461902 S    
Cr2   O13   1.980468 S    
C3    C22   1.433348 S    
C80   O18   1.268938 A    
C75   C76   1.395515 A    
C59   H33   1.082788 S    
C19   H8    1.110238 S    
C20   H7    1.110042 S    
C1    O3    1.269218 A    
C31   H14   1.110244 S    
C62   C66   1.400296 A    
C27   C28   1.548809 S    
C22   C30   1.204868 T    
O21   C82   1.269214 A    
C63   C64   1.383967 A    
C51   C54   1.405921 A    
C75   H39   1.082968 S    
C49   H20   1.083141 S    
C58   C65   1.470125 S    
O9    Cr2   2.039478 S    
O2    Cr1   1.923081 S    
C15   H4    1.110309 S    
C25   H11   1.110167 S    
C54   C83   1.461983 S    
C50   C54   1.400715 A    
H15   C40   1.110646 S    
C46   C47   1.398331 A    
O6    Cr3   1.927637 S    
C62   H29   1.083134 S    
O8    C4    1.269638 A    
C23   H12   1.110641 S    
C2    O5    1.269136 A    
C73   N1    1.440713 S    
O15   C79   1.274269 A    
C83   O24   1.272013 A    
C57   C58   1.403917 A    
C74   C78   1.404765 A    
C36   C39   1.534869 S    
C13   C14   1.535393 S    
O2    C1    1.274417 A    
O23   Cr5   1.928416 S    
C8    C12   1.535422 S    
C20   C28   1.550567 S    
C68   H35   1.083156 S    
O5    Cr3   2.038425 S    
O23   C83   1.274015 A    
C11   C13   1.547884 S    
C44   C45   1.396296 A    
O19   Cr6   1.924710 S    
O4    C2    1.274393 A    
C43   C48   1.400017 A    
O7    C6    1.268299 A    
C57   H30   1.082317 S    
C58   C59   1.403970 A    
C14   C16   1.538654 S    
C19   C23   1.549542 S    
O15   Cr4   1.927593 S    
C26   C30   1.465008 S    
C33   C41   1.204037 T    
C14   C18   1.461802 S    
C72   H41   1.084120 S    
C60   H34   1.083233 S    
C79   O16   1.267149 A    
O17   Cr5   1.921712 S    
C4    C67   1.444937 S    
O3    Cr2   2.040824 S    
C27   H10   1.110308 S    
C2    C10   1.430261 S    
O25   C84   1.279347 A    
C9    C17   1.203015 T    
O14   C81   1.268778 A    
C56   C57   1.387179 A    
C10   C18   1.203030 T    
C61   C62   1.392155 A    
O10   C5    1.271770 A    
C61   C65   1.407244 A    
C9    C80   1.430249 S    
O18   Cr6   2.038431 S    
C20   C24   1.535874 S    
C67   C68   1.401062 A    
C19   C26   1.535440 S    
O19   C81   1.274737 A    
