data_mof_unit_42125.cif
_audit_creation_date              2012-12-10T17:22:57-0500
_audit_creation_method            fapswitch 2.2
_symmetry_space_group_name_H-M    P1
_symmetry_Int_Tables_number       1
_space_group_crystal_system       triclinic
_cell_length_a                    10.132457
_cell_length_b                    10.498227
_cell_length_c                    10.606575
_cell_angle_alpha                 89.953291
_cell_angle_beta                  95.424885
_cell_angle_gamma                 81.092993
_cell_volume                      1109.51630428

loop_
_atom_site_label
_atom_site_type_symbol
_atom_type_description
_atom_site_fract_x
_atom_site_fract_y
_atom_site_fract_z
_atom_type_partial_charge
C1    C     C_R   0.443639 0.510169 0.265804 0.761516
C2    C     C_3   0.500681 0.122707 0.497852 -0.088600
C3    C     C_3   0.601339 0.942890 0.582097 -0.339580
C4    C     C_3   0.398463 0.057589 0.415299 -0.287033
C5    C     C_2   0.411549 0.527765 0.129302 0.287582
C6    C     C_2   0.586585 0.509532 0.870018 0.311120
C7    C     C_2   0.501152 0.578530 0.067783 -0.220586
C8    C     C_2   0.490785 0.578233 0.931813 -0.209981
C9    C     C_2   0.072824 0.489215 0.489470 -0.135539
C10   C     C_2   0.927005 0.511503 0.509806 -0.134263
C11   C     C_3   0.823937 0.944012 0.398161 0.063363
C12   C     C_R   0.556066 0.495588 0.734208 0.772961
C13   C     C_3   0.953401 0.983548 0.358920 -0.343952
C14   C     C_3   0.052557 0.866606 0.325214 -0.840661
C15   C     C_3   0.223993 0.982425 0.680125 0.070861
C16   C     C_3   0.289997 0.879131 0.778389 -0.348429
C17   C     C_3   0.258881 0.918813 0.911979 -0.966782
C18   C     C_3   0.733835 0.323951 0.926947 0.094630
C19   C     C_3   0.676082 0.264842 0.037857 -0.352190
C20   C     C_3   0.709144 0.117974 0.039918 -0.970765
C21   C     C_3   0.255308 0.385223 0.118181 0.100666
C22   C     C_3   0.170272 0.319905 0.018909 -0.313971
C23   C     C_R   0.499804 0.257503 0.498485 0.899447
C24   C     C_3   0.115889 0.207893 0.077303 -1.021671
C25   C     C_R   0.499863 0.742655 0.500038 0.896800
C26   C     C_3   0.616059 0.021407 0.463545 0.603114
C27   C     C_3   0.383292 0.978775 0.533569 0.625167
C28   C     C_3   0.515677 0.954741 0.380131 -0.354081
C29   C     C_3   0.483988 0.046131 0.616938 -0.369861
C30   C     C_3   0.498849 0.877621 0.499080 -0.106312
H1    H     H_    0.529001 0.913092 0.285126 0.147300
H2    H     H_    0.119486 0.619063 0.614829 0.162062
H3    H     H_    0.777673 0.892254 0.318102 0.143572
H4    H     H_    0.849308 0.878239 0.482367 0.139552
H5    H     H_    0.929517 0.050145 0.275572 0.224090
H6    H     H_    0.000746 0.035529 0.437867 0.245577
H7    H     H_    0.079909 0.799765 0.408035 0.281947
H8    H     H_    0.145218 0.898812 0.297337 0.271880
H9    H     H_    0.008116 0.814673 0.244671 0.247793
H10   H     H_    0.113418 0.989471 0.679786 0.159852
H11   H     H_    0.246887 0.080012 0.705723 0.133250
H12   H     H_    0.474485 0.089147 0.711902 0.149701
H13   H     H_    0.252001 0.787276 0.755509 0.229232
H14   H     H_    0.400582 0.862278 0.775317 0.214216
H15   H     H_    0.299459 0.008784 0.937380 0.269984
H16   H     H_    0.306426 0.841658 0.980785 0.275665
H17   H     H_    0.148802 0.934373 0.918470 0.268703
H18   H     H_    0.844027 0.292652 0.935307 0.174193
H19   H     H_    0.694529 0.285362 0.835412 0.119670
H20   H     H_    0.718029 0.302273 0.128591 0.244894
H21   H     H_    0.565262 0.292706 0.029334 0.220069
H22   H     H_    0.664111 0.078362 0.951737 0.262763
H23   H     H_    0.683817 0.891378 0.648327 0.152392
H24   H     H_    0.667526 0.078583 0.122226 0.278361
H25   H     H_    0.819536 0.086878 0.048657 0.264130
H26   H     H_    0.192385 0.418368 0.195737 0.168109
H27   H     H_    0.342179 0.312056 0.155665 0.104842
H28   H     H_    0.084650 0.391268 0.977098 0.241433
H29   H     H_    0.232562 0.283036 0.941963 0.217910
H30   H     H_    0.199508 0.136348 0.122036 0.271307
H31   H     H_    0.059134 0.159059 0.002346 0.265296
H32   H     H_    0.047446 0.243699 0.149833 0.265874
H33   H     H_    0.315317 0.109340 0.349947 0.149342
H34   H     H_    0.393820 0.618140 0.883676 0.182491
H35   H     H_    0.592176 0.604738 0.116699 0.177337
H36   H     H_    0.890601 0.582754 0.577592 0.163083
H37   H     H_    0.109143 0.418261 0.421401 0.155128
H38   H     H_    0.880551 0.380731 0.385349 0.168374
N1    N     N_2   0.157310 0.552180 0.551120 -0.191203
N2    N     N_2   0.842690 0.447820 0.448880 -0.184427
O1    O     O_R   0.568940 0.489500 0.307530 -0.623930
O2    O     O_3   0.257346 0.946346 0.557591 -0.648402
O3    O     O_3   0.710911 0.460347 0.932358 -0.639452
O4    O     O_3   0.297389 0.492698 0.062120 -0.640112
O5    O     O_R   0.431060 0.510500 0.692470 -0.628796
O6    O     O_R   0.348880 0.522990 0.340350 -0.605614
O7    O     O_R   0.651120 0.477010 0.659650 -0.588209
O8    O     O_R   0.610000 0.297210 0.483560 -0.563872
O9    O     O_R   0.390000 0.702790 0.516440 -0.576971
O10   O     O_R   0.389940 0.330700 0.516390 -0.623924
O11   O     O_R   0.610060 0.669300 0.483610 -0.629732
O12   O     O_3   0.736483 0.055839 0.427237 -0.633632
Zn1   Zn    Zn3+2 0.646930 0.477640 0.478080 0.950364
Zn2   Zn    Zn3+2 0.353070 0.522360 0.521920 0.933565

loop_
_geom_bond_atom_site_label_1
_geom_bond_atom_site_label_2
_ccdc_geom_bond_type
C24   H31   S    
C29   H12   S    
C27   C29   S    
C11   C13   S    
C19   C20   S    
C11   H4    S    
O10   Zn2   S    
O6    Zn2   S    
C7    C8    S    
C15   O2    S    
C4    H33   S    
C1    O1    A    
C2    C29   S    
C1    C5    S    
C17   H15   S    
C13   H5    S    
C6    C12   S    
O9    Zn2   S    
O5    Zn2   S    
C7    H35   S    
O7    Zn1   S    
C15   C16   S    
C18   C19   S    
C5    O4    S    
C3    C29   S    
O11   Zn1   S    
C14   H9    S    
O8    Zn1   S    
C16   C17   S    
C23   O10   A    
C9    C10   S    
C16   H14   S    
C10   H36   S    
C26   O12   S    
C13   C14   S    
C27   C30   S    
C25   O11   A    
C20   H25   S    
C4    C28   S    
O1    Zn1   S    
C28   H1    S    
C11   O12   S    
C11   H3    S    
C17   H16   S    
C15   H11   S    
C13   H6    S    
C20   H24   S    
C22   H29   S    
C5    C7    D    
C6    C8    D    
C21   O4    S    
C3    C30   S    
C2    C4    S    
C9    H37   S    
C21   H27   S    
C14   H8    S    
C24   H30   S    
C12   O7    A    
C2    C26   S    
N2    Zn1   S    
C16   H13   S    
C8    H34   S    
C10   N2    D    
C18   O3    S    
C22   C24   S    
C4    C27   S    
C6    O3    S    
C25   C30   S    
C24   H32   S    
C25   O9    A    
C1    O6    A    
C3    C26   S    
C17   H17   S    
C9    N1    D    
C18   H18   S    
C22   H28   S    
C21   H26   S    
H2    N1    S    
C26   C28   S    
C28   C30   S    
C20   H22   S    
N1    Zn2   S    
C14   H7    S    
C3    H23   S    
C19   H20   S    
C23   O8    A    
C15   H10   S    
C19   H21   S    
H38   N2    S    
C12   O5    A    
C2    C23   S    
C21   C22   S    
C27   O2    S    
C18   H19   S    
