data_mof_unit_17951.cif
_audit_creation_date              2012-12-10T17:02:16-0500
_audit_creation_method            fapswitch 2.2
_symmetry_space_group_name_H-M    P1
_symmetry_Int_Tables_number       1
_space_group_crystal_system       triclinic
_cell_length_a                    10.699869
_cell_length_b                    10.694278
_cell_length_c                    10.024782
_cell_angle_alpha                 88.92655
_cell_angle_beta                  89.792867
_cell_angle_gamma                 91.618754
_cell_volume                      1146.44059612

loop_
_atom_site_label
_atom_site_type_symbol
_atom_type_description
_atom_site_fract_x
_atom_site_fract_y
_atom_site_fract_z
_atom_type_partial_charge
C1    C     C_R   0.489509 0.262625 0.501463 0.905567
C2    C     C_2   0.451064 0.132886 0.507192 -0.076193
C3    C     C_2   0.547130 0.591173 0.923017 -0.175715
C4    C     C_R   0.260465 0.499735 0.500253 0.848363
C5    C     C_2   0.558926 0.585655 0.073709 0.155602
C6    C     C_R   0.493669 0.737202 0.498403 0.890186
C7    C     C_R   0.739635 0.512842 0.499660 0.853912
C8    C     C_R   0.149235 0.714190 0.614053 -0.268913
C9    C     C_R   0.096932 0.819343 0.669131 -0.000066
C10   C     C_R   0.967647 0.835137 0.657957 0.517320
C11   C     C_R   0.892308 0.741664 0.599630 0.010709
C12   C     C_R   0.074596 0.617922 0.557303 0.054417
C13   C     C_R   0.943646 0.627806 0.553520 -0.039858
C14   C     C_R   0.129123 0.512675 0.500614 -0.041586
C15   C     C_R   0.059093 0.419150 0.439760 -0.221442
C16   C     C_R   0.931772 0.424663 0.439742 -0.177633
C17   C     C_R   0.873322 0.525084 0.497986 -0.070021
C18   C     C_2   0.431506 0.932534 0.398642 0.156418
C19   C     C_2   0.494177 0.869917 0.492897 -0.289395
C20   C     C_2   0.444783 0.067846 0.394450 -0.219089
H1    H     H_    0.103271 0.339765 0.395436 0.145814
H2    H     H_    0.334450 0.130676 0.667001 0.202648
H3    H     H_    0.663572 0.748778 0.068477 0.154386
H4    H     H_    0.714837 0.637340 0.172241 0.200020
H5    H     H_    0.268545 0.885641 0.731734 0.210775
H6    H     H_    0.149685 0.908729 0.835719 0.181182
H7    H     H_    0.973643 0.004368 0.730024 0.342580
H8    H     H_    0.738929 0.753761 0.484498 0.168450
H9    H     H_    0.713898 0.718160 0.653458 0.223979
H10   H     H_    0.267388 0.902460 0.304416 0.184373
H11   H     H_    0.394992 0.895425 0.205505 0.182480
H12   H     H_    0.583168 0.674358 0.870779 0.163810
H13   H     H_    0.476124 0.418601 0.899842 0.158624
H14   H     H_    0.440199 0.439725 0.102970 0.138333
H15   H     H_    0.249607 0.709633 0.616129 0.183862
H16   H     H_    0.878020 0.348192 0.396284 0.155287
H17   H     H_    0.552469 0.917214 0.565740 0.163396
H18   H     H_    0.459570 0.112536 0.297214 0.151361
H19   H     H_    0.481890 0.087990 0.701777 0.194654
N1    N     N_2   0.501340 0.501330 0.852150 -0.196694
N2    N     N_2   0.501380 0.501360 0.147810 -0.190501
N3    N     N_3   0.409223 0.078948 0.632834 -0.457610
N4    N     N_3   0.634078 0.679971 0.137952 -0.392647
N5    N     N_3   0.174888 0.910782 0.734815 -0.471887
N6    N     N_3   0.764810 0.770830 0.582918 -0.419556
N7    N     N_3   0.358325 0.869590 0.299148 -0.418206
O1    O     O_R   0.499980 0.319060 0.613040 -0.614825
O2    O     O_R   0.500020 0.319100 0.386900 -0.624599
O3    O     O_R   0.316750 0.499980 0.613090 -0.619049
O4    O     O_R   0.316790 0.500020 0.386950 -0.609096
O5    O     O_R   0.499980 0.680900 0.613100 -0.649044
O6    O     O_R   0.500020 0.680940 0.386960 -0.560513
O7    O     O_R   0.683210 0.499980 0.613050 -0.605307
O8    O     O_R   0.683250 0.500020 0.386910 -0.614879
O9    O     O_3   0.910164 0.941371 0.701700 -0.764163
Zn1   Zn    Zn3+2 0.499970 0.499970 0.650990 0.933233
Zn2   Zn    Zn3+2 0.500030 0.500030 0.349010 0.956752

loop_
_geom_bond_atom_site_label_1
_geom_bond_atom_site_label_2
_ccdc_geom_bond_type
C1    O2    A    
C6    C19   S    
C6    O5    A    
O3    Zn1   S    
C20   H18   S    
C9    C10   A    
C1    C2    S    
C13   C17   A    
C4    O3    A    
C8    C12   A    
O8    Zn2   S    
C5    N4    S    
H6    N5    S    
O2    Zn2   S    
C16   H16   S    
C10   O9    S    
C11   C13   A    
H2    N3    S    
H14   N2    S    
C2    N3    S    
C18   N7    S    
H5    N5    S    
O1    Zn1   S    
C12   C14   A    
C3    N1    D    
O5    Zn1   S    
H19   N3    S    
C18   C20   S    
C4    C14   S    
C3    H12   S    
H7    O9    S    
H8    N6    S    
C11   N6    S    
H13   N1    S    
C10   C11   A    
C7    O7    A    
N2    Zn2   S    
C15   C16   A    
C3    C5    S    
C15   H1    S    
H3    N4    S    
C12   C13   A    
H11   N7    S    
C18   C19   D    
O6    Zn2   S    
O7    Zn1   S    
C4    O4    A    
H4    N4    S    
C5    N2    D    
C14   C15   A    
C8    C9    A    
C9    N5    S    
C19   H17   S    
C7    O8    A    
C6    O6    A    
O4    Zn2   S    
C2    C20   D    
H10   N7    S    
C1    O1    A    
H9    N6    S    
C16   C17   A    
N1    Zn1   S    
C8    H15   S    
C7    C17   S    
