data_mof_unit_42323.cif
_audit_creation_date              2012-12-11T16:32:33-0500
_audit_creation_method            fapswitch 2.2
_symmetry_space_group_name_H-M    P1
_symmetry_Int_Tables_number       1
_space_group_crystal_system       triclinic
_cell_length_a                    6.978951
_cell_length_b                    14.422558
_cell_length_c                    15.903609
_cell_angle_alpha                 90.1314
_cell_angle_beta                  90.474385
_cell_angle_gamma                 89.581104
_cell_volume                      1600.66539966

loop_
_atom_site_label
_atom_site_type_symbol
_atom_type_description
_atom_site_fract_x
_atom_site_fract_y
_atom_site_fract_z
_atom_type_partial_charge
O1    O     O_R   0.361630 0.167340 0.164570 -0.533921
O2    O     O_R   0.638370 0.832660 0.835430 -0.533921
O3    O     O_R   0.690860 0.157560 0.338690 -0.522921
O4    O     O_R   0.309140 0.842440 0.661310 -0.522921
O5    O     O_R   0.861260 0.336420 0.339380 -0.538120
O6    O     O_R   0.138740 0.663580 0.660620 -0.538120
C1    C     C_R   0.522965 0.133022 0.366543 0.721420
C2    C     C_R   0.477035 0.866978 0.633457 0.721420
O7    O     O_R   0.691330 0.156310 0.165190 -0.539124
O8    O     O_R   0.308670 0.843690 0.834810 -0.539124
O9    O     O_R   0.861730 0.335160 0.164640 -0.540249
O10   O     O_R   0.138270 0.664840 0.835360 -0.540249
C3    C     C_R   0.522504 0.134324 0.136452 0.694332
C4    C     C_R   0.477496 0.865676 0.863548 0.694331
O11   O     O_R   0.361150 0.168600 0.339320 -0.520325
O12   O     O_R   0.638850 0.831400 0.660680 -0.520325
O13   O     O_3   0.527950 0.310560 0.252000 -0.376399
O14   O     O_3   0.472050 0.689440 0.748000 -0.376399
V1    V     V_3+5 0.802770 0.240990 0.251980 1.460770
V2    V     V_3+5 0.197230 0.759010 0.748020 1.460770
O15   O     O_R   0.191450 0.346190 0.165260 -0.542350
O16   O     O_R   0.808550 0.653810 0.834740 -0.542350
C5    C     C_R   0.021926 0.367532 0.136478 0.690029
C6    C     C_R   0.978074 0.632468 0.863522 0.690029
O17   O     O_R   0.190980 0.347440 0.338770 -0.543921
O18   O     O_R   0.809020 0.652560 0.661230 -0.543921
C7    C     C_R   0.022344 0.369812 0.367294 0.680194
C8    C     C_R   0.977656 0.630188 0.632706 0.680194
V3    V     V_3+5 0.302780 0.262760 0.251980 1.443805
V4    V     V_3+5 0.697220 0.737240 0.748020 1.443804
O19   O     O_3   0.027730 0.193200 0.251960 -0.344289
O20   O     O_3   0.972270 0.806800 0.748040 -0.344289
C9    C     C_3   0.916590 0.420432 0.522442 -0.130204
C10   C     C_3   0.083409 0.579568 0.477558 -0.130204
C11   C     C_3   0.089380 0.465475 0.568324 -0.140519
C12   C     C_3   0.910620 0.534525 0.431676 -0.140519
H1    H     H_    0.162529 0.437427 0.625169 0.123131
H2    H     H_    0.837471 0.562573 0.374830 0.123131
H3    H     H_    0.847499 0.354066 0.539393 0.107349
H4    H     H_    0.152501 0.645934 0.460607 0.107349
C13   C     C_3   0.987745 0.560349 0.562514 -0.012451
C14   C     C_3   0.012255 0.439651 0.437486 -0.012452
C15   C     C_3   0.814738 0.516098 0.517485 -0.126095
C16   C     C_3   0.185262 0.483902 0.482514 -0.126095
H5    H     H_    0.661954 0.529578 0.532437 0.107130
H6    H     H_    0.338046 0.470422 0.467563 0.107130
C17   C     C_R   0.040568 0.691452 0.034987 -0.220126
C18   C     C_R   0.959432 0.308548 0.965012 -0.220126
C19   C     C_R   0.067373 0.722421 0.117264 -0.127096
C20   C     C_R   0.932627 0.277579 0.882736 -0.127096
C21   C     C_R   0.076111 0.659033 0.184088 0.341477
C22   C     C_R   0.923889 0.340967 0.815912 0.341477
C23   C     C_R   0.058939 0.564284 0.166475 -0.218285
C24   C     C_R   0.941060 0.435716 0.833525 -0.218285
C25   C     C_R   0.031170 0.531272 0.083533 0.027636
C26   C     C_R   0.968830 0.468728 0.916466 0.027636
C27   C     C_R   0.021140 0.596039 0.016581 0.055108
C28   C     C_R   0.978860 0.403961 0.983419 0.055108
C29   C     C_R   0.010300 0.435278 0.066889 -0.146410
C30   C     C_R   0.989700 0.564722 0.933111 -0.146410
H7    H     H_    0.033672 0.743459 0.986084 0.127153
H8    H     H_    0.966328 0.256541 0.013916 0.127153
H9    H     H_    0.081051 0.796203 0.127674 0.140921
H10   H     H_    0.918948 0.203797 0.872325 0.140921
H11   H     H_    0.064386 0.516811 0.219086 0.095887
H12   H     H_    0.935614 0.483189 0.780913 0.095887
C31   C     C_3   0.329686 0.011474 0.463063 0.246528
C32   C     C_3   0.670314 0.988526 0.536937 0.246528
C33   C     C_3   0.439298 0.918234 0.470784 -0.215410
C34   C     C_3   0.560702 0.081766 0.529216 -0.215411
H13   H     H_    0.388257 0.850405 0.446752 0.123941
H14   H     H_    0.611743 0.149595 0.553248 0.123941
C35   C     C_3   0.485387 0.940101 0.563797 -0.075145
C36   C     C_3   0.514613 0.059899 0.436203 -0.075145
C37   C     C_3   0.374709 0.033203 0.556831 -0.151111
C38   C     C_3   0.625291 0.966796 0.443169 -0.151111
H15   H     H_    0.284339 0.066678 0.605162 0.150852
H16   H     H_    0.715661 0.933322 0.394838 0.150852
H17   H     H_    0.628244 0.819978 0.245769 0.122442
H18   H     H_    0.371756 0.180022 0.754231 0.122442
C39   C     C_R   0.449512 0.191184 0.964828 -0.147389
C40   C     C_R   0.550488 0.808816 0.035172 -0.147389
C41   C     C_R   0.413159 0.220797 0.882853 -0.097695
C42   C     C_R   0.586841 0.779203 0.117147 -0.097695
C43   C     C_R   0.399500 0.156592 0.817829 -0.150524
C44   C     C_R   0.600500 0.843408 0.182171 -0.150524
C45   C     C_R   0.423663 0.062311 0.834097 -0.133351
C46   C     C_R   0.576337 0.937689 0.165903 -0.133351
C47   C     C_R   0.460884 0.030108 0.916689 0.072043
C48   C     C_R   0.539116 0.969892 0.083311 0.072043
C49   C     C_R   0.473578 0.095843 0.983459 0.056006
C50   C     C_R   0.526422 0.904157 0.016541 0.056007
C51   C     C_R   0.487664 0.934299 0.933220 -0.181088
C52   C     C_R   0.512336 0.065701 0.066780 -0.181088
H19   H     H_    0.459537 0.243889 0.013170 0.109072
H20   H     H_    0.540463 0.756111 0.986829 0.109072
H21   H     H_    0.395462 0.294006 0.869735 0.130561
H22   H     H_    0.604537 0.705994 0.130264 0.130561
H23   H     H_    0.413752 0.015212 0.781200 0.106994
H24   H     H_    0.586248 0.984788 0.218800 0.106994
N1    N     N_2   0.902097 0.312784 0.730179 -0.542700
H25   H     H_    0.823358 0.357598 0.692862 0.247474
C53   C     C_3   0.884283 0.215713 0.708818 -0.545006
H26   H     H_    0.881826 0.207958 0.639388 0.207067
H27   H     H_    0.749406 0.187517 0.734391 0.209191
H28   H     H_    0.009368 0.175828 0.733207 0.218409
N2    N     N_2   0.097903 0.687216 0.269821 -0.542700
H29   H     H_    0.176642 0.642402 0.307137 0.247474
C54   C     C_3   0.115716 0.784287 0.291182 -0.545005
H30   H     H_    0.118174 0.792042 0.360612 0.207067
H31   H     H_    0.990632 0.824172 0.266793 0.218409
H32   H     H_    0.250594 0.812483 0.265609 0.209191
I1    I     I_    0.077458 0.018038 0.388067 -0.454695
I2    I     I_    0.922542 0.981962 0.611933 -0.454694

loop_
_geom_bond_atom_site_label_1
_geom_bond_atom_site_label_2
_ccdc_geom_bond_type
N1    H25   S    
C19   H9    S    
C48   C52   A    
C25   C29   A    
C20   H10   S    
C12   C14   S    
O4    C2    A    
V1    O19   S    
C40   C50   A    
C17   C19   A    
C5    C29   S    
O9    V1    S    
C9    H3    S    
C36   C38   S    
C10   H4    S    
C9    C14   S    
C11   H1    S    
C42   C44   A    
C18   C20   A    
O3    C1    A    
C54   H31   S    
C39   H19   S    
C44   C46   A    
O12   V4    S    
C8    C13   S    
O13   V3    S    
C33   C38   S    
C2    O12   A    
C33   H13   S    
O7    C3    A    
C50   C51   A    
C9    C11   S    
O5    C7    A    
C18   H8    S    
O7    V1    S    
O6    C8    A    
O8    V2    S    
C19   C21   A    
C34   C36   S    
C20   C22   A    
N2    H29   S    
O3    V1    S    
O14   V4    S    
C47   C49   A    
C23   H11   S    
C4    C51   S    
C10   C12   S    
C43   C45   A    
N1    C53   S    
C47   C51   A    
C13   C15   S    
C10   C13   S    
C14   C16   S    
C11   C13   S    
C39   C41   A    
C22   C24   A    
O11   V3    S    
C1    C36   S    
C45   H23   S    
C23   C25   A    
O15   C5    A    
O17   V3    S    
C24   C26   A    
C22   N1    S    
C40   H20   S    
C9    C15   S    
C10   C16   S    
O8    C4    A    
C54   H32   S    
C27   C30   A    
C1    O11   A    
C16   H6    S    
C28   C29   A    
O15   V3    S    
C26   C30   A    
C21   C23   A    
C39   C49   A    
H18   C43   S    
C17   C27   A    
C15   H5    S    
C48   C50   A    
C6    C30   S    
O10   V2    S    
O1    V3    S    
C53   H27   S    
C31   C36   S    
C32   C38   S    
C33   C35   S    
C11   C16   S    
C37   H15   S    
C46   H24   S    
C24   H12   S    
C32   C34   S    
C41   C43   A    
C46   C48   A    
O18   V4    S    
C40   C42   A    
C25   C27   A    
O16   C6    A    
C31   C37   S    
C35   C37   S    
C12   H2    S    
C34   C37   S    
V2    O20   S    
O16   V4    S    
C38   H16   S    
C17   H7    S    
C18   C28   A    
O5    V1    S    
O17   C7    A    
O6    V2    S    
O10   C6    A    
O18   C8    A    
C3    C52   S    
O2    V4    S    
C42   H22   S    
C45   C47   A    
C32   C35   S    
V3    O19   S    
C54   H30   S    
C49   C52   A    
V4    O20   S    
C7    C14   S    
N2    C54   S    
O9    C5    A    
C2    C35   S    
O13   V1    S    
C26   C28   A    
C53   H28   S    
O14   V2    S    
C31   I1    S    
O2    C4    A    
O4    V2    S    
O1    C3    A    
C21   N2    S    
C41   H21   S    
C53   H26   S    
C12   C15   S    
C34   H14   S    
C31   C33   S    
H17   C44   S    
C32   I2    S    
