data_mof_unit_66033.cif
_audit_creation_date              2012-12-11T15:37:10-0500
_audit_creation_method            fapswitch 2.2
_symmetry_space_group_name_H-M    P1
_symmetry_Int_Tables_number       1
_space_group_crystal_system       triclinic
_cell_length_a                    16.609419
_cell_length_b                    7.046767
_cell_length_c                    15.193585
_cell_angle_alpha                 90.018857
_cell_angle_beta                  95.107233
_cell_angle_gamma                 90.025926
_cell_volume                      1771.23785772

loop_
_atom_site_label
_atom_site_type_symbol
_atom_type_description
_atom_site_fract_x
_atom_site_fract_y
_atom_site_fract_z
_atom_type_partial_charge
O1    O     O_R   0.578230 0.505720 0.424270 -0.548144
O2    O     O_R   0.421770 0.005720 0.575730 -0.534963
O3    O     O_R   0.412470 0.173950 0.404530 -0.530373
O4    O     O_R   0.587530 0.673950 0.595470 -0.523981
C1    C     C_R   0.384853 0.345568 0.381249 0.814700
C2    C     C_R   0.615382 0.845296 0.618417 0.807923
O5    O     O_R   0.577030 0.175880 0.413670 -0.537180
O6    O     O_R   0.422970 0.675880 0.586330 -0.532563
O7    O     O_R   0.587510 0.007580 0.584940 -0.487769
O8    O     O_R   0.412490 0.507580 0.415060 -0.514874
C3    C     C_R   0.603544 0.344798 0.393159 0.735806
C4    C     C_R   0.396456 0.844785 0.606840 0.750091
O9    O     O_3   0.503240 0.339850 0.556180 -0.355025
O10   O     O_3   0.496760 0.839850 0.443820 -0.386382
V1    V     V_3+5 0.499400 0.064230 0.489580 1.673693
V2    V     V_3+5 0.500600 0.564230 0.510420 1.672325
C5    C     C_1   0.333931 0.855084 0.668932 -0.112409
C6    C     C_1   0.666068 0.355106 0.331070 -0.114612
C7    C     C_1   0.281323 0.865769 0.720225 0.059302
C8    C     C_1   0.718679 0.365765 0.279780 0.055507
C9    C     C_1   0.219189 0.879180 0.780391 0.050869
C10   C     C_1   0.780820 0.379143 0.219622 0.047566
C11   C     C_1   0.166527 0.889880 0.831615 -0.143644
C12   C     C_1   0.833487 0.389833 0.168404 -0.147309
C13   C     C_3   0.785496 0.676006 0.796205 -0.373710
C14   C     C_3   0.249906 0.230563 0.162345 -0.383254
H1    H     H_    0.836563 0.594291 0.772205 0.194619
H2    H     H_    0.218793 0.090626 0.161938 0.184439
H3    H     H_    0.771564 0.606933 0.858835 0.199690
H4    H     H_    0.268975 0.250300 0.094684 0.192593
C15   C     C_3   0.711745 0.660443 0.726960 0.393084
C16   C     C_3   0.324929 0.223834 0.231299 0.333613
H5    H     H_    0.727794 0.566188 0.672384 0.190082
H6    H     H_    0.332696 0.075678 0.255891 0.174616
C17   C     C_3   0.833992 0.968977 0.723236 0.387461
C18   C     C_3   0.160160 0.341026 0.276971 0.382308
C19   C     C_3   0.737155 0.002739 0.840703 -0.163320
C20   C     C_3   0.237790 0.582506 0.195065 -0.145310
C21   C     C_3   0.811509 0.887167 0.812926 -0.265588
C22   C     C_3   0.190058 0.390148 0.185137 -0.249065
H7    H     H_    0.755225 0.155034 0.844986 0.199514
H8    H     H_    0.194911 0.694811 0.212896 0.223425
C23   C     C_3   0.686469 0.859663 0.689448 -0.378397
C24   C     C_3   0.313974 0.361053 0.309906 -0.347691
C25   C     C_3   0.761821 0.949815 0.650552 1.010627
C26   C     C_3   0.232712 0.309794 0.348201 1.032525
C27   C     C_3   0.663938 0.983778 0.768901 0.458657
C28   C     C_3   0.306574 0.567735 0.271469 0.443247
H9    H     H_    0.611263 0.917407 0.797406 0.138800
H10   H     H_    0.365725 0.608743 0.247854 0.143595
H11   H     H_    0.850044 0.121609 0.732083 0.098142
H12   H     H_    0.122308 0.460345 0.297861 0.114821
O11   O     O_R   0.087480 0.241090 0.084980 -0.515577
O12   O     O_R   0.912520 0.741090 0.915020 -0.539918
O13   O     O_R   0.922960 0.569060 0.086330 -0.537887
O14   O     O_R   0.077040 0.069060 0.913670 -0.536904
C29   C     C_R   0.896119 0.400164 0.106449 0.728473
C30   C     C_R   0.103897 0.900184 0.893571 0.732357
O15   O     O_R   0.087520 0.570920 0.095480 -0.551210
O16   O     O_R   0.912480 0.070920 0.904520 -0.554949
O17   O     O_R   0.078240 0.739160 0.924260 -0.537669
O18   O     O_R   0.921760 0.239160 0.075740 -0.530574
C31   C     C_R   0.117628 0.402170 0.115882 0.799697
C32   C     C_R   0.883802 0.901345 0.882296 0.816768
O19   O     O_3   0.996740 0.404980 0.943840 -0.377999
O20   O     O_3   0.003260 0.904980 0.056160 -0.360215
V3    V     V_3+5 0.000600 0.680640 0.010420 1.486644
V4    V     V_3+5 0.999400 0.180640 0.989580 1.500907
F1    F     F_    0.639390 0.163459 0.740688 -0.605296
F2    F     F_    0.291193 0.696981 0.336905 -0.610549
F3    F     F_    0.742946 0.128358 0.616263 -0.639917
F4    F     F_    0.222058 0.421420 0.421454 -0.614392
F5    F     F_    0.647989 0.576031 0.765366 -0.631145
F6    F     F_    0.394003 0.270869 0.191152 -0.698369
F7    F     F_    0.901823 0.877514 0.696871 -0.613730
F8    F     F_    0.111367 0.180773 0.270842 -0.611502
F9    F     F_    0.784367 0.837688 0.581791 -0.626844
F10   F     F_    0.234710 0.121908 0.375682 -0.591193
C33   C     C_3   0.712081 0.949550 0.932787 -0.750403
H13   H     H_    0.763313 0.967837 0.984180 0.198322
H14   H     H_    0.662515 0.044502 0.950149 0.234891
H15   H     H_    0.690087 0.801020 0.934343 0.238114
C34   C     C_3   0.272192 0.649978 0.109182 -0.768696
H16   H     H_    0.298325 0.794288 0.119327 0.211765
H17   H     H_    0.320914 0.554698 0.090241 0.259129
H18   H     H_    0.224712 0.658210 0.053277 0.209796

loop_
_geom_bond_atom_site_label_1
_geom_bond_atom_site_label_2
_ccdc_geom_bond_type
C13   C15   S    
C11   C30   S    
O20   V4    S    
C3    C6    S    
C14   C16   S    
C20   C34   S    
C25   F3    S    
O1    C3    A    
O2    C4    A    
C2    O7    A    
C29   O18   A    
C27   H9    S    
O5    C3    A    
C21   C32   S    
C19   C33   S    
C17   F7    S    
C22   C31   S    
C15   C23   S    
C7    C9    S    
C20   H8    S    
C16   F6    S    
C15   F5    S    
O11   V4    S    
C27   F1    S    
C18   F8    S    
O15   V3    S    
C12   C29   S    
O19   V3    S    
C4    C5    S    
C15   H5    S    
C18   C26   S    
C19   C27   S    
C26   F4    S    
C18   H12   S    
C30   O17   A    
O5    V1    S    
O20   V3    S    
O6    V2    S    
C24   C26   S    
C13   H3    S    
C18   C22   S    
O4    C2    A    
C26   F10   S    
O12   V3    S    
O14   V4    S    
C16   H6    S    
O4    V2    S    
C17   C21   S    
O17   V3    S    
C34   H16   S    
O6    C4    A    
O19   V4    S    
C16   C24   S    
O1    V2    S    
O2    V1    S    
C23   C25   S    
C34   H17   S    
C1    C24   S    
C8    C10   S    
C14   H4    S    
C2    C23   S    
O13   C29   A    
C17   H11   S    
C10   C12   T    
O15   C31   A    
C17   C25   S    
O3    V1    S    
C33   H14   S    
C20   C28   S    
C28   F2    S    
O3    C1    A    
C33   H15   S    
O13   V3    S    
C13   H1    S    
C14   H2    S    
O18   V4    S    
O16   C32   A    
C9    C11   T    
O7    V1    S    
C1    O8    A    
C19   C21   S    
O8    V2    S    
C13   C21   S    
C20   C22   S    
O11   C31   A    
C14   C22   S    
O12   C32   A    
C28   H10   S    
C5    C7    T    
O14   C30   A    
C6    C8    T    
C19   H7    S    
C33   H13   S    
C34   H18   S    
O16   V4    S    
O9    V2    S    
O10   V1    S    
C25   F9    S    
C23   C27   S    
C24   C28   S    
