data_mof_unit_65408.cif
_audit_creation_date              2013-03-05T16:11:44-0500
_audit_creation_method            fapswitch 2.2
_symmetry_space_group_name_H-M    P1
_symmetry_Int_Tables_number       1
_space_group_crystal_system       triclinic
_cell_length_a                    44.00594
_cell_length_b                    30.387581
_cell_length_c                    31.987956
_cell_angle_alpha                 89.999219
_cell_angle_beta                  136.173257
_cell_angle_gamma                 89.999475
_cell_volume                      29621.0974771

loop_
_atom_site_label
_atom_site_type_symbol
_atom_site_description
_atom_site_fract_x
_atom_site_fract_y
_atom_site_fract_z
_atom_type_partial_charge
O1    O     O_R   0.564270 0.962770 0.064270 -0.534400
O2    O     O_R   0.435730 0.962770 0.935730 -0.534510
O3    O     O_R   0.064270 0.462770 0.064270 -0.534548
O4    O     O_R   0.935730 0.462770 0.935730 -0.534511
O5    O     O_R   0.564210 0.037160 0.064210 -0.586715
O6    O     O_R   0.435790 0.037160 0.935790 -0.586732
O7    O     O_R   0.064210 0.537160 0.064210 -0.586895
O8    O     O_R   0.935790 0.537160 0.935790 -0.586830
C1    C     C_R   0.585126 0.999855 0.086017 0.811123
C2    C     C_R   0.414873 0.999856 0.913986 0.810240
C3    C     C_R   0.085126 0.499855 0.086020 0.809916
C4    C     C_R   0.914875 0.499856 0.913979 0.810248
O9    O     O_R   0.500000 0.962770 0.060460 -0.558286
O10   O     O_R   0.500000 0.962770 0.939540 -0.558908
O11   O     O_R   0.000000 0.462770 0.060460 -0.558106
O12   O     O_R   0.000000 0.462770 0.939540 -0.557823
O13   O     O_R   0.499940 0.037170 0.060400 -0.562593
O14   O     O_R   0.500060 0.037170 0.939600 -0.562502
O15   O     O_R   0.999940 0.537170 0.060400 -0.562523
O16   O     O_R   0.000060 0.537170 0.939600 -0.562573
C5    C     C_R   0.499978 0.999972 0.080121 0.805507
C6    C     C_R   0.500021 0.999972 0.919878 0.806181
C7    C     C_R   0.999978 0.499971 0.080121 0.805478
C8    C     C_R   0.000022 0.499972 0.919880 0.805200
Cu1   Cu    Cu3+1 0.500000 0.955920 0.000000 1.159730
Cu2   Cu    Cu3+1 0.000000 0.455920 0.000000 1.160389
Cu3   Cu    Cu3+1 0.500000 0.044010 0.000000 1.076782
Cu4   Cu    Cu3+1 0.000000 0.544010 0.000000 1.076636
C9    C     C_3   0.523093 0.965038 0.287222 -0.163881
C10   C     C_3   0.473400 0.967584 0.709305 -0.163002
C11   C     C_3   0.022418 0.464610 0.286554 -0.163977
C12   C     C_3   0.979026 0.463757 0.714879 -0.164327
C13   C     C_3   0.541368 0.002232 0.277700 0.316214
C14   C     C_3   0.459083 0.006486 0.722752 0.316785
C15   C     C_3   0.041404 0.501445 0.277735 0.316117
C16   C     C_3   0.958572 0.499793 0.722239 0.315891
C17   C     C_1   0.500170 0.000009 0.125141 -0.061886
C18   C     C_1   0.499839 0.000012 0.874868 -0.061624
C19   C     C_1   0.000172 0.500009 0.125143 -0.061941
C20   C     C_1   0.999824 0.500010 0.874854 -0.062047
C21   C     C_1   0.500465 0.000161 0.375517 -0.091978
C22   C     C_1   0.499539 0.000170 0.624488 -0.091980
C23   C     C_1   0.000466 0.500159 0.375518 -0.091992
C24   C     C_1   0.999532 0.500157 0.624480 -0.092101
C25   C     C_3   0.481362 0.963564 0.217673 -0.239752
C26   C     C_3   0.514756 0.961769 0.778478 -0.239148
C27   C     C_3   0.980668 0.463939 0.216984 -0.239762
C28   C     C_3   0.020768 0.464773 0.784442 -0.240049
C29   C     C_3   0.500718 0.000555 0.209209 -0.035225
C30   C     C_3   0.499343 0.000582 0.790851 -0.035367
C31   C     C_3   0.000729 0.500550 0.209220 -0.035240
C32   C     C_3   0.999248 0.500543 0.790757 -0.035175
C33   C     C_3   0.458996 0.998847 0.223690 -0.173102
C34   C     C_3   0.540654 0.994524 0.775958 -0.173562
C35   C     C_3   0.958980 0.499647 0.223673 -0.172955
C36   C     C_3   0.041002 0.501330 0.776311 -0.172781
C37   C     C_3   0.500839 0.000546 0.292422 0.048971
C38   C     C_3   0.499210 0.000575 0.707626 0.048690
C39   C     C_3   0.000847 0.500541 0.292430 0.049003
C40   C     C_3   0.999135 0.500531 0.707552 0.049129
C41   C     C_3   0.479133 0.035059 0.216023 0.318634
C42   C     C_3   0.524384 0.032644 0.787459 0.318750
C43   C     C_3   0.979808 0.535464 0.216692 0.318597
C44   C     C_3   0.018748 0.536274 0.781877 0.318593
C45   C     C_3   0.520372 0.037864 0.284771 -0.227825
C46   C     C_3   0.483655 0.039732 0.719222 -0.228399
C47   C     C_3   0.021092 0.537475 0.285486 -0.227826
C48   C     C_3   0.977418 0.536616 0.713035 -0.227601
C49   C     C_1   0.500401 0.000188 0.163039 0.123235
C50   C     C_1   0.499627 0.000198 0.836989 0.123984
C51   C     C_1   0.000406 0.500186 0.163044 0.123149
C52   C     C_1   0.999584 0.500185 0.836946 0.122847
C53   C     C_1   0.500681 0.000322 0.338061 0.058085
C54   C     C_1   0.499338 0.000339 0.661958 0.058262
C55   C     C_1   0.000685 0.500319 0.338064 0.058065
C56   C     C_1   0.999308 0.500314 0.661929 0.057992
C57   C     C_R   0.701895 0.040765 0.198737 -0.103307
C58   C     C_R   0.298104 0.040780 0.801226 -0.103561
C59   C     C_R   0.201895 0.540761 0.198730 -0.104245
C60   C     C_R   0.798104 0.540760 0.801289 -0.104104
C61   C     C_R   0.656234 0.039629 0.152999 -0.182965
C62   C     C_R   0.343766 0.039641 0.846964 -0.183631
C63   C     C_R   0.156234 0.539627 0.152992 -0.184829
C64   C     C_R   0.843765 0.539626 0.847026 -0.184532
C65   C     C_R   0.633595 0.999628 0.135615 -0.156415
C66   C     C_R   0.366403 0.999630 0.864393 -0.156463
C67   C     C_R   0.133594 0.499628 0.135621 -0.156381
C68   C     C_R   0.866406 0.499631 0.864375 -0.156438
C69   C     C_R   0.658011 0.960205 0.165165 0.325106
C70   C     C_R   0.341984 0.960203 0.834890 0.324911
C71   C     C_R   0.158008 0.460207 0.165187 0.324957
C72   C     C_R   0.841995 0.460214 0.834787 0.324989
C73   C     C_R   0.703750 0.961694 0.209103 -0.112808
C74   C     C_R   0.296245 0.961700 0.790945 -0.113586
C75   C     C_R   0.203748 0.461694 0.209124 -0.113365
C76   C     C_R   0.796256 0.461699 0.790853 -0.113075
C77   C     C_R   0.725856 0.001842 0.227357 0.098064
C78   C     C_R   0.274142 0.001854 0.772647 0.098210
C79   C     C_R   0.225855 0.501840 0.227363 0.098229
C80   C     C_R   0.774146 0.501842 0.772635 0.098137
C81   C     C_R   0.797133 0.981582 0.332535 0.265681
C82   C     C_R   0.202870 0.981577 0.667480 0.266164
C83   C     C_R   0.297134 0.481589 0.332545 0.265634
C84   C     C_R   0.702867 0.481604 0.667448 0.265483
C85   C     C_R   0.843218 0.979758 0.377025 0.220667
C86   C     C_R   0.156784 0.979754 0.622987 0.220627
C87   C     C_R   0.343220 0.479764 0.377033 0.220603
C88   C     C_R   0.656782 0.479777 0.622962 0.220630
C89   C     C_R   0.866412 0.001289 0.367492 -0.264939
C90   C     C_R   0.133587 0.001295 0.632508 -0.264983
C91   C     C_R   0.366412 0.501287 0.367492 -0.264939
C92   C     C_R   0.633588 0.501288 0.632508 -0.264898
C93   C     C_R   0.842932 0.024467 0.312968 0.318419
C94   C     C_R   0.157064 0.024490 0.687018 0.318624
C95   C     C_R   0.342929 0.524457 0.312963 0.318728
C96   C     C_R   0.657070 0.524448 0.687042 0.318660
C97   C     C_R   0.797153 0.024087 0.268118 -0.223805
C98   C     C_R   0.202842 0.024116 0.731869 -0.224460
C99   C     C_R   0.297151 0.524075 0.268113 -0.224731
C100  C     C_R   0.702848 0.524066 0.731891 -0.224451
C101  C     C_R   0.774119 0.002924 0.277228 -0.103624
C102  C     C_R   0.225880 0.002937 0.722773 -0.103479
C103  C     C_R   0.274118 0.502921 0.277232 -0.103429
C104  C     C_R   0.725883 0.502924 0.722767 -0.103467
O17   O     O_R   0.537150 0.935610 0.537150 -0.585496
O18   O     O_R   0.462850 0.935610 0.462850 -0.585690
O19   O     O_R   0.037150 0.435610 0.537150 -0.585568
O20   O     O_R   0.962850 0.435610 0.462850 -0.585475
C105  C     C_R   0.500001 0.914785 0.500000 0.809061
C106  C     C_R   0.000001 0.414785 0.500000 0.809264
O21   O     O_R   0.537160 0.999880 0.476700 -0.548063
O22   O     O_R   0.462840 0.999880 0.523300 -0.548419
O23   O     O_R   0.037160 0.499880 0.476700 -0.548059
O24   O     O_R   0.962840 0.499880 0.523300 -0.548044
O25   O     O_R   0.462760 0.999960 0.402300 -0.579283
O26   O     O_R   0.537240 0.999960 0.597700 -0.578854
O27   O     O_R   0.962760 0.499960 0.402300 -0.579318
O28   O     O_R   0.037240 0.499960 0.597700 -0.579504
C107  C     C_R   0.500114 0.999995 0.420003 0.818046
C108  C     C_R   0.499887 0.999997 0.579998 0.817749
C109  C     C_R   0.000114 0.499995 0.420003 0.818138
C110  C     C_R   0.999886 0.499995 0.579997 0.817885
Cu5   Cu    Cu3+1 0.544020 0.999870 0.544020 1.110609
Cu6   Cu    Cu3+1 0.455980 0.999870 0.455980 1.109846
Cu7   Cu    Cu3+1 0.044020 0.499870 0.544020 1.109724
Cu8   Cu    Cu3+1 0.955980 0.499870 0.455980 1.110204
O29   O     O_R   0.537180 0.064140 0.537190 -0.539571
O30   O     O_R   0.462820 0.064140 0.462810 -0.539555
O31   O     O_R   0.037180 0.564140 0.537190 -0.539744
O32   O     O_R   0.962820 0.564140 0.462810 -0.539579
C111  C     C_R   0.499999 0.084974 0.499997 0.910836
C112  C     C_R   0.999998 0.584974 0.499996 0.910863
O33   O     O_R   0.999920 0.064220 0.534910 -0.547214
O34   O     O_R   0.000080 0.064220 0.465090 -0.547200
O35   O     O_R   0.499920 0.564220 0.534910 -0.547237
O36   O     O_R   0.500080 0.564220 0.465090 -0.547239
C113  C     C_R   0.000000 0.085086 0.500000 0.912587
C114  C     C_R   0.500000 0.585086 0.500000 0.912636
O37   O     O_R   0.935700 0.999950 0.470690 -0.544891
O38   O     O_R   0.064300 0.999950 0.529310 -0.544881
O39   O     O_R   0.435700 0.499950 0.470690 -0.544897
O40   O     O_R   0.564300 0.499950 0.529310 -0.544891
O41   O     O_R   0.935690 0.999950 0.400690 -0.544581
O42   O     O_R   0.064310 0.999950 0.599310 -0.544624
O43   O     O_R   0.435690 0.499950 0.400690 -0.544625
O44   O     O_R   0.564310 0.499950 0.599310 -0.544619
C115  C     C_R   0.914784 0.000349 0.414998 0.929959
C116  C     C_R   0.085216 0.000351 0.585002 0.930015
C117  C     C_R   0.414784 0.500348 0.414998 0.930018
C118  C     C_R   0.585216 0.500348 0.585002 0.930004
Cu9   Cu    Cu3+1 0.999970 0.999960 0.541410 1.228555
Cu10  Cu    Cu3+1 0.000030 0.999960 0.458590 1.228625
Cu11  Cu    Cu3+1 0.499970 0.499960 0.541410 1.228338
Cu12  Cu    Cu3+1 0.500030 0.499960 0.458590 1.228387
O45   O     O_R   0.000020 0.935690 0.535010 -0.549332
O46   O     O_R   0.999980 0.935690 0.464990 -0.549350
O47   O     O_R   0.500020 0.435690 0.535010 -0.549389
O48   O     O_R   0.499980 0.435690 0.464990 -0.549357
C119  C     C_R   0.000003 0.914833 0.500003 0.917893
C120  C     C_R   0.500002 0.414833 0.500002 0.917930
C121  C     C_R   0.461224 0.797301 0.451115 0.312319
C122  C     C_R   0.538781 0.797299 0.548885 0.312256
C123  C     C_R   0.961221 0.297301 0.451123 0.312302
C124  C     C_R   0.038783 0.297299 0.548879 0.312348
C125  C     C_R   0.461561 0.843295 0.452389 -0.213186
C126  C     C_R   0.538443 0.843293 0.547611 -0.212928
C127  C     C_R   0.961558 0.343295 0.452397 -0.212804
C128  C     C_R   0.038445 0.343293 0.547605 -0.212918
C129  C     C_R   0.500002 0.866437 0.500000 -0.151670
C130  C     C_R   0.000001 0.366436 0.500001 -0.151662
C131  C     C_R   0.500003 0.774007 0.500000 -0.118097
C132  C     C_R   0.000002 0.274007 0.500001 -0.118056
C133  C     C_R   0.026557 0.202763 0.498236 -0.094938
C134  C     C_R   0.973446 0.202764 0.501765 -0.094945
C135  C     C_R   0.526566 0.702762 0.498252 -0.095028
C136  C     C_R   0.473438 0.702764 0.501750 -0.095135
C137  C     C_R   0.027659 0.156798 0.499544 0.298422
C138  C     C_R   0.972342 0.156799 0.500454 0.298411
C139  C     C_R   0.527668 0.656797 0.499561 0.298410
C140  C     C_R   0.472334 0.656799 0.500440 0.298474
C141  C     C_R   0.000000 0.133394 0.499999 -0.236329
C142  C     C_R   0.500001 0.633394 0.500000 -0.236382
C143  C     C_R   0.000002 0.225656 0.500001 0.052423
C144  C     C_R   0.500002 0.725656 0.500001 0.052546
C145  C     C_R   0.467417 0.203041 0.490036 0.232988
C146  C     C_R   0.532600 0.203038 0.510010 0.233194
C147  C     C_R   0.967419 0.703041 0.490039 0.233153
C148  C     C_R   0.032602 0.703038 0.510014 0.233283
C149  C     C_R   0.467532 0.156819 0.490275 0.213036
C150  C     C_R   0.532463 0.156817 0.509711 0.213245
C151  C     C_R   0.967532 0.656819 0.490272 0.213405
C152  C     C_R   0.032463 0.656817 0.509709 0.213263
C153  C     C_R   0.499994 0.133541 0.499986 -0.339546
C154  C     C_R   0.999993 0.633541 0.499982 -0.339630
C155  C     C_R   0.500014 0.225992 0.500034 -0.202827
C156  C     C_R   0.000018 0.725993 0.500041 -0.202887
C157  C     C_R   0.030247 0.797124 0.554536 -0.089248
C158  C     C_R   0.969789 0.797115 0.445518 -0.089502
C159  C     C_R   0.530251 0.297124 0.554530 -0.089404
C160  C     C_R   0.469777 0.297116 0.445514 -0.089454
C161  C     C_R   0.030881 0.843138 0.555349 0.292894
C162  C     C_R   0.969145 0.843128 0.444686 0.292881
C163  C     C_R   0.530887 0.343137 0.555344 0.292892
C164  C     C_R   0.469135 0.343130 0.444683 0.292943
C165  C     C_R   0.000010 0.866534 0.500012 -0.239030
C166  C     C_R   0.500008 0.366534 0.500009 -0.239056
C167  C     C_R   0.000019 0.774295 0.500031 0.078139
C168  C     C_R   0.500015 0.274295 0.500026 0.078178
N1    N     N_R   0.586808 0.003892 0.308710 0.158798
O49   O     O_R   0.618371 0.005038 0.367365 -0.264127
O50   O     O_R   0.596148 0.004310 0.278321 -0.290806
N2    N     N_R   0.414064 0.012876 0.692161 0.158760
O51   O     O_R   0.382788 0.017308 0.633794 -0.263435
O52   O     O_R   0.404820 0.014257 0.722647 -0.293108
N3    N     N_R   0.086866 0.502229 0.308771 0.158781
O53   O     O_R   0.118446 0.502768 0.367441 -0.264426
O54   O     O_R   0.096214 0.502471 0.278388 -0.290357
N4    N     N_R   0.913114 0.498739 0.691207 0.158784
O55   O     O_R   0.881540 0.498000 0.632540 -0.264650
O56   O     O_R   0.903763 0.498608 0.721585 -0.289404
H1    H     H_    0.722238 0.931439 0.230833 0.197076
H2    H     H_    0.277756 0.931442 0.769246 0.197026
H3    H     H_    0.222235 0.431439 0.230864 0.197104
H4    H     H_    0.777772 0.431446 0.769098 0.197140
N5    N     N_R   0.773866 0.961879 0.343782 0.151000
O57   O     O_R   0.744572 0.984383 0.335182 -0.262100
O58   O     O_R   0.781589 0.921295 0.362144 -0.227200
N6    N     N_R   0.226143 0.961851 0.656254 0.150849
O59   O     O_R   0.255443 0.984339 0.664853 -0.262777
O60   O     O_R   0.218419 0.921262 0.637913 -0.228046
N7    N     N_R   0.273869 0.461896 0.343800 0.151049
O61   O     O_R   0.244578 0.484407 0.335199 -0.261974
O62   O     O_R   0.281592 0.421315 0.362172 -0.227036
N8    N     N_R   0.726132 0.461928 0.656184 0.151107
O63   O     O_R   0.755418 0.484451 0.664785 -0.261838
O64   O     O_R   0.718414 0.421351 0.637803 -0.226719
N9    N     N_R   0.866254 0.956115 0.431957 0.175680
O65   O     O_R   0.889951 0.921947 0.445927 -0.274688
O66   O     O_R   0.861952 0.967465 0.466692 -0.223183
N10   N     N_R   0.133753 0.956100 0.568065 0.175676
O67   O     O_R   0.110053 0.921938 0.554101 -0.274819
O68   O     O_R   0.138064 0.967433 0.533334 -0.223386
N11   N     N_R   0.366256 0.456129 0.431970 0.175670
O69   O     O_R   0.389949 0.421955 0.445944 -0.274697
O70   O     O_R   0.361959 0.467491 0.466707 -0.223359
N12   N     N_R   0.633747 0.456149 0.568021 0.175678
O71   O     O_R   0.610063 0.421968 0.554048 -0.274617
O72   O     O_R   0.638037 0.467527 0.533280 -0.223237
N13   N     N_R   0.864834 0.050075 0.303214 0.157431
O73   O     O_R   0.894857 0.078380 0.343686 -0.300704
O74   O     O_R   0.849550 0.050948 0.250067 -0.280297
N14   N     N_R   0.135156 0.050105 0.696759 0.157392
O75   O     O_R   0.105122 0.078398 0.656268 -0.300786
O76   O     O_R   0.150443 0.050998 0.749906 -0.281139
N15   N     N_R   0.364830 0.550057 0.303200 0.157327
O77   O     O_R   0.394849 0.578370 0.343661 -0.300826
O78   O     O_R   0.349547 0.550917 0.250054 -0.281654
N16   N     N_R   0.635169 0.550039 0.696809 0.157349
O79   O     O_R   0.605152 0.578360 0.656357 -0.300781
O80   O     O_R   0.650449 0.550885 0.749954 -0.281334
H5    H     H_    0.779265 0.040957 0.225850 0.203084
H6    H     H_    0.220729 0.040999 0.774126 0.202700
H7    H     H_    0.279262 0.540938 0.225841 0.202459
H8    H     H_    0.720737 0.540920 0.774168 0.202612
N17   N     N_R   0.421646 0.774961 0.399359 0.137408
O81   O     O_R   0.423393 0.740622 0.376839 -0.293907
O82   O     O_R   0.383530 0.792138 0.369932 -0.292988
N18   N     N_R   0.578360 0.774957 0.600641 0.137450
O83   O     O_R   0.576613 0.740617 0.623162 -0.293858
O84   O     O_R   0.616475 0.792133 0.630068 -0.292568
N19   N     N_R   0.921639 0.274961 0.399374 0.137486
O85   O     O_R   0.923379 0.240622 0.376845 -0.293640
O86   O     O_R   0.883526 0.292139 0.369958 -0.292424
N20   N     N_R   0.078366 0.274957 0.600628 0.137457
O87   O     O_R   0.076626 0.240616 0.623155 -0.293761
O88   O     O_R   0.116478 0.292133 0.630044 -0.292615
H9    H     H_    0.431932 0.861080 0.414943 0.209001
H10   H     H_    0.568071 0.861077 0.585057 0.209073
H11   H     H_    0.931927 0.361080 0.414955 0.209047
H12   H     H_    0.068076 0.361077 0.585046 0.209014
H13   H     H_    0.047427 0.220908 0.497606 0.190786
H14   H     H_    0.952576 0.220910 0.502395 0.190812
H15   H     H_    0.547443 0.720907 0.497634 0.190732
H16   H     H_    0.452562 0.720911 0.502368 0.190637
N21   N     N_R   0.058182 0.134670 0.502739 0.153413
O89   O     O_R   0.066514 0.150573 0.474077 -0.274187
O90   O     O_R   0.082838 0.103177 0.541628 -0.320003
N22   N     N_R   0.941816 0.134673 0.497254 0.153402
O91   O     O_R   0.933482 0.150574 0.525913 -0.274229
O92   O     O_R   0.917161 0.103183 0.458363 -0.320032
N23   N     N_R   0.558201 0.634668 0.502776 0.153357
O93   O     O_R   0.566547 0.650571 0.474132 -0.274548
O94   O     O_R   0.582849 0.603173 0.541665 -0.320153
N24   N     N_R   0.441802 0.634673 0.497226 0.153336
O95   O     O_R   0.433456 0.650577 0.525870 -0.274757
O96   O     O_R   0.417154 0.603179 0.458338 -0.320163
N25   N     N_R   0.435242 0.226648 0.482121 0.166244
O97   O     O_R   0.393605 0.219947 0.434549 -0.226088
O98   O     O_R   0.447434 0.255820 0.521636 -0.276131
N26   N     N_R   0.564769 0.226650 0.517922 0.166342
O99   O     O_R   0.606406 0.220174 0.565703 -0.226294
O100  O     O_R   0.552563 0.255703 0.478285 -0.275665
N27   N     N_R   0.935242 0.726649 0.482123 0.166288
O101  O     O_R   0.893606 0.719909 0.434585 -0.226304
O102  O     O_R   0.947431 0.755839 0.521617 -0.275628
N28   N     N_R   0.064771 0.726650 0.517927 0.166325
O103  O     O_R   0.106408 0.720194 0.565727 -0.226752
O104  O     O_R   0.052565 0.755691 0.478278 -0.275739
H17   H     H_    0.541902 0.936233 0.317485 0.189909
H18   H     H_    0.451705 0.940895 0.676185 0.190458
H19   H     H_    0.040672 0.435448 0.316266 0.189855
H20   H     H_    0.961962 0.433881 0.686346 0.189636
N29   N     N_R   0.436664 0.133680 0.485330 0.177995
O105  O     O_R   0.396344 0.128730 0.432827 -0.237547
O106  O     O_R   0.450120 0.113039 0.531930 -0.322794
N30   N     N_R   0.563311 0.133685 0.514604 0.177788
O107  O     O_R   0.603720 0.129003 0.567024 -0.237285
O108  O     O_R   0.549794 0.112821 0.468093 -0.323132
N31   N     N_R   0.936660 0.633680 0.485320 0.177918
O109  O     O_R   0.896355 0.628682 0.432803 -0.238088
O110  O     O_R   0.950106 0.613082 0.531937 -0.322582
N32   N     N_R   0.063309 0.633685 0.514597 0.177764
O111  O     O_R   0.103726 0.629028 0.567009 -0.237812
O112  O     O_R   0.049786 0.612801 0.468094 -0.323192
H21   H     H_    0.053828 0.778898 0.596473 0.197996
H22   H     H_    0.946210 0.778882 0.403588 0.197951
H23   H     H_    0.553838 0.278897 0.596466 0.197964
H24   H     H_    0.446193 0.278883 0.403585 0.197943
N33   N     N_R   0.063814 0.865313 0.612436 0.152664
O113  O     O_R   0.085302 0.898484 0.618220 -0.329984
O114  O     O_R   0.076974 0.848420 0.660718 -0.271348
N34   N     N_R   0.936205 0.865295 0.387591 0.152694
O115  O     O_R   0.914709 0.898463 0.381795 -0.329866
O116  O     O_R   0.923047 0.848395 0.339314 -0.271216
N35   N     N_R   0.563831 0.365313 0.612428 0.152666
O117  O     O_R   0.585313 0.398483 0.618197 -0.329982
O118  O     O_R   0.577006 0.348420 0.660720 -0.271576
N36   N     N_R   0.436188 0.365297 0.387590 0.152652
O119  O     O_R   0.414701 0.398469 0.381807 -0.330003
O120  O     O_R   0.423018 0.348395 0.339306 -0.271479
H25   H     H_    0.536405 0.068402 0.312064 0.210117
H26   H     H_    0.470872 0.071774 0.695151 0.209728
H27   H     H_    0.037706 0.567699 0.313356 0.210117
H28   H     H_    0.959602 0.566144 0.683971 0.210239
N37   N     N_R   0.454712 0.073571 0.177822 0.153056
O121  O     O_R   0.437826 0.100243 0.188475 -0.279191
O122  O     O_R   0.449695 0.081615 0.133207 -0.313394
N38   N     N_R   0.552667 0.068401 0.829484 0.153040
O123  O     O_R   0.572223 0.093163 0.821474 -0.280315
O124  O     O_R   0.558502 0.075881 0.874909 -0.314726
N39   N     N_R   0.956129 0.574439 0.179226 0.153063
O125  O     O_R   0.939757 0.601432 0.190388 -0.278923
O126  O     O_R   0.951269 0.582578 0.134766 -0.313130
N40   N     N_R   0.040837 0.576175 0.817766 0.153073
O127  O     O_R   0.056110 0.603809 0.805514 -0.278454
O128  O     O_R   0.045361 0.584504 0.861892 -0.312629
H29   H     H_    0.424694 0.998051 0.201308 0.188281
H30   H     H_    0.574685 0.990154 0.798066 0.188416
H31   H     H_    0.924669 0.499512 0.201282 0.188295
H32   H     H_    0.075291 0.502582 0.798683 0.188221
H33   H     H_    0.465385 0.933138 0.190108 0.199077
H34   H     H_    0.527494 0.929842 0.802831 0.199697
H35   H     H_    0.964112 0.433826 0.188844 0.199047
H36   H     H_    0.038523 0.435354 0.813772 0.198771
H37   H     H_    0.718545 0.072101 0.212253 0.174177
H38   H     H_    0.281455 0.072121 0.787675 0.174164
H39   H     H_    0.218546 0.572095 0.212236 0.174018
H40   H     H_    0.781451 0.572092 0.787800 0.174078
H41   H     H_    0.638661 0.070294 0.131407 0.195219
H42   H     H_    0.361340 0.070309 0.868519 0.195172
H43   H     H_    0.138662 0.570290 0.131389 0.195037
H44   H     H_    0.861335 0.570286 0.868648 0.195115
N41   N     N_R   0.637462 0.918819 0.153733 0.146486
O129  O     O_R   0.614639 0.914367 0.165208 -0.272982
O130  O     O_R   0.649499 0.883743 0.145365 -0.288094
N42   N     N_R   0.362530 0.918800 0.846382 0.146409
O131  O     O_R   0.385324 0.914279 0.834871 -0.275030
O132  O     O_R   0.350507 0.883765 0.854836 -0.288608
N43   N     N_R   0.137458 0.418827 0.153775 0.146501
O133  O     O_R   0.114623 0.414399 0.165233 -0.272280
O134  O     O_R   0.149502 0.383736 0.145440 -0.288392
N44   N     N_R   0.862549 0.418842 0.846168 0.146539
O135  O     O_R   0.885397 0.414450 0.834727 -0.271480
O136  O     O_R   0.850500 0.383730 0.854461 -0.288136

loop_
_geom_bond_atom_site_label_1
_geom_bond_atom_site_label_2
_geom_bond_distance
_ccdc_geom_bond_type
O22   Cu6   1.946897 S    
C147  C151  1.404584 A    
C17   C49   1.205001 T    
N19   O85   1.301399 A    
O30   C111  1.297888 A    
O26   C108  1.295996 A    
C83   C103  1.410983 A    
Cu7   Cu8   2.682950 S    
C163  C166  1.419340 A    
N29   O105  1.300705 A    
O25   C107  1.296007 A    
C59   C79   1.398575 A    
C126  H10   1.083241 S    
N42   O132  1.301110 A    
C98   H6    1.083883 S    
C35   C39   1.544590 S    
C75   C79   1.398610 A    
O28   Cu7   1.943378 S    
Cu5   Cu6   2.682950 S    
C6    C18   1.434011 S    
C9    C13   1.539642 S    
N11   O70   1.301106 A    
C155  C168  1.467805 S    
C11   C39   1.544651 S    
C160  H24   1.083766 S    
C64   H44   1.082892 S    
N8    O64   1.301279 A    
Cu8   O32   1.964110 S    
O46   C119  1.286254 A    
N14   O75   1.301369 A    
C12   H20   1.110072 S    
C85   N9    1.435711 S    
C61   H41   1.082894 S    
N28   O103  1.300500 A    
C136  C144  1.395677 A    
C145  N25   1.437458 S    
C59   H39   1.083256 S    
C33   H29   1.110131 S    
N5    O57   1.301315 A    
O35   C114  1.286363 A    
C81   C85   1.406031 A    
C31   C51   1.466916 S    
N38   O123  1.300222 A    
N6    O60   1.301278 A    
C43   C47   1.542217 S    
O43   C117  1.289797 A    
O24   Cu8   1.946897 S    
N4    O56   1.300261 A    
C67   C71   1.420399 A    
N27   O101  1.300508 A    
C139  N23   1.438284 S    
O27   Cu8   1.943377 S    
O42   C116  1.289787 A    
C66   C70   1.420416 A    
C42   C46   1.542207 S    
N32   O111  1.300676 A    
C134  H14   1.083804 S    
C99   H7    1.083883 S    
O16   Cu4   1.945118 S    
O18   C105  1.296975 A    
N24   O95   1.301352 A    
C112  C154  1.475843 S    
C40   C56   1.464929 S    
C149  C153  1.413239 A    
O7    Cu4   1.967782 S    
C9    C25   1.558511 S    
C80   C104  1.472448 S    
O15   C7    1.293882 A    
N1    O49   1.300216 A    
C32   C52   1.466919 S    
C58   C62   1.391945 A    
O4    Cu2   1.969603 S    
N35   O117  1.300762 A    
C148  C152  1.404564 A    
C41   N37   1.456998 S    
N34   O115  1.300766 A    
N2    O52   1.300252 A    
O38   Cu10  1.971031 S    
O9    C5    1.293969 A    
C88   N12   1.435706 S    
O41   Cu10  1.969884 S    
O19   Cu7   1.963903 S    
C36   H32   1.110124 S    
N13   O74   1.301312 A    
C15   C31   1.532211 S    
O8    Cu4   1.967794 S    
O23   Cu7   1.946897 S    
O21   Cu5   1.946897 S    
C23   C55   1.205029 T    
N43   O134  1.301112 A    
C137  N21   1.438286 S    
O3    Cu2   1.969608 S    
C64   C68   1.407114 A    
C25   H33   1.110034 S    
N30   O107  1.300679 A    
C16   C48   1.542356 S    
C99   C103  1.397238 A    
N41   O129  1.301394 A    
C133  C143  1.395675 A    
C83   N7    1.437976 S    
C96   N16   1.437280 S    
C30   C50   1.466922 S    
C123  N19   1.440406 S    
N17   O82   1.301442 A    
N37   O121  1.300226 A    
O36   C114  1.286362 A    
C147  C156  1.408709 A    
O37   C115  1.286497 A    
O38   C116  1.286495 A    
O3    C3    1.294234 A    
O17   C105  1.296973 A    
C28   C32   1.547601 S    
C146  N26   1.437322 S    
C140  C142  1.418816 A    
C111  C153  1.475840 S    
C19   C51   1.204999 T    
C83   C87   1.406030 A    
N24   O96   1.301167 A    
C106  C130  1.469197 S    
N26   O100  1.301108 A    
N33   O113  1.300760 A    
C161  C165  1.419346 A    
C28   H36   1.110033 S    
C11   H19   1.110072 S    
C10   C14   1.539641 S    
C14   C46   1.542339 S    
C21   C53   1.205023 T    
C136  H16   1.083805 S    
C12   C16   1.539641 S    
N19   O86   1.301445 A    
C35   H31   1.110135 S    
C93   N13   1.437284 S    
O26   Cu5   1.943378 S    
C69   N41   1.433857 S    
N43   O133  1.301401 A    
C72   C76   1.395353 A    
C147  N27   1.437479 S    
C128  C130  1.399406 A    
N9    O65   1.301057 A    
C98   C102  1.397224 A    
C37   C53   1.464929 S    
C24   C56   1.205028 T    
N40   O127  1.300225 A    
C77   C101  1.472434 S    
C39   C47   1.545406 S    
O5    Cu3   1.967782 S    
C33   C41   1.539430 S    
C76   H4    1.083670 S    
C3    C67   1.477796 S    
N21   O90   1.301168 A    
C105  C129  1.469197 S    
C139  C142  1.418813 A    
C36   C44   1.539431 S    
C57   C77   1.398572 A    
C145  C149  1.404582 A    
C159  C168  1.394342 A    
C90   C94   1.416086 A    
C16   C32   1.532207 S    
O39   C117  1.286496 A    
C25   C33   1.558414 S    
O33   C113  1.286365 A    
C138  N22   1.438284 S    
C13   N1    1.457022 S    
N22   O92   1.301167 A    
C135  C139  1.397173 A    
C158  H22   1.083768 S    
C4    C68   1.477781 S    
C22   C108  1.434212 S    
O13   Cu3   1.945116 S    
C42   N38   1.456997 S    
C48   H28   1.110136 S    
C162  C165  1.419327 A    
O43   Cu12  1.969884 S    
C72   N44   1.433866 S    
C96   C100  1.395186 A    
N27   O102  1.301112 A    
N18   O84   1.301445 A    
O29   C111  1.297936 A    
O5    C1    1.300919 A    
C41   C45   1.542216 S    
C127  H11   1.083241 S    
C146  C150  1.404567 A    
C15   C47   1.542354 S    
O8    C4    1.300912 A    
N36   O120  1.301402 A    
O15   Cu4   1.945116 S    
C40   C48   1.545404 S    
N12   O72   1.301109 A    
C93   C97   1.395189 A    
N35   O118  1.301401 A    
O44   C118  1.289798 A    
C95   C99   1.395187 A    
N23   O94   1.301167 A    
C113  C141  1.467988 S    
N33   O114  1.301401 A    
C73   C77   1.398606 A    
C92   C96   1.416081 A    
C38   C54   1.464919 S    
N44   O135  1.301399 A    
C15   N3    1.457025 S    
C78   C102  1.472414 S    
C85   C89   1.418422 A    
C2    C66   1.477837 S    
C20   C52   1.205001 T    
O14   C6    1.293881 A    
C87   C91   1.418424 A    
C10   C26   1.558523 S    
N10   O67   1.301054 A    
C94   N14   1.437290 S    
C161  N33   1.438950 S    
C125  C129  1.399403 A    
C84   C104  1.410984 A    
C150  C153  1.413264 A    
C63   H43   1.082891 S    
O10   C6    1.293969 A    
C34   H30   1.110127 S    
C73   H1    1.083673 S    
O20   Cu8   1.963891 S    
C134  C138  1.397170 A    
C46   H26   1.110143 S    
C114  C142  1.467981 S    
C76   C80   1.398610 A    
C120  C166  1.467687 S    
O32   C112  1.297884 A    
C47   H27   1.110137 S    
C69   C73   1.395351 A    
O21   C107  1.296490 A    
C71   C75   1.395354 A    
C128  H12   1.083241 S    
C151  C154  1.413232 A    
C9    H17   1.110070 S    
N14   O76   1.301311 A    
N16   O79   1.301372 A    
C29   C49   1.466914 S    
C61   C65   1.407122 A    
Cu10  O46   1.963877 S    
C146  C155  1.408668 A    
C63   C67   1.407121 A    
C18   C50   1.205001 T    
N15   O77   1.301370 A    
C60   C64   1.391929 A    
C81   N5    1.437977 S    
C123  C132  1.417048 A    
N38   O124  1.300224 A    
N11   O69   1.301061 A    
C57   H37   1.083254 S    
O36   Cu12  1.963580 S    
O37   Cu9   1.971034 S    
C79   C103  1.472436 S    
C86   C90   1.418419 A    
N20   O87   1.301401 A    
N32   O112  1.300931 A    
C74   C78   1.398584 A    
C13   C29   1.532212 S    
N39   O125  1.300222 A    
C160  C168  1.394336 A    
C122  C126  1.398018 A    
N25   O98   1.301112 A    
C127  C130  1.399404 A    
C26   H34   1.110041 S    
C92   C118  1.474410 S    
C152  N32   1.433445 S    
N34   O116  1.301400 A    
N3    O53   1.300217 A    
C124  C132  1.417050 A    
O4    C4    1.294230 A    
Cu12  O48   1.963877 S    
C121  N17   1.440405 S    
C136  C140  1.397173 A    
C27   C35   1.558410 S    
C11   C27   1.558507 S    
N13   O73   1.301370 A    
C157  C161  1.398391 A    
C12   C28   1.558499 S    
C70   C74   1.395346 A    
N29   O106  1.300937 A    
C16   N4    1.457023 S    
C22   C54   1.205025 T    
C29   C41   1.532233 S    
C31   C43   1.532235 S    
N42   O131  1.301391 A    
O34   C113  1.286363 A    
N7    O61   1.301317 A    
C32   C44   1.532228 S    
C124  N20   1.440404 S    
C33   C37   1.544592 S    
C27   C31   1.547602 S    
C135  C144  1.395678 A    
C34   C42   1.539435 S    
C62   C66   1.407135 A    
C81   C101  1.410984 A    
C88   C92   1.418431 A    
C91   C117  1.474402 S    
C119  C165  1.467693 S    
O7    C3    1.300914 A    
N17   O81   1.301401 A    
C60   H40   1.083257 S    
C123  C127  1.398011 A    
O24   C110  1.296483 A    
O39   Cu11  1.971034 S    
N31   O109  1.300713 A    
O40   C118  1.286495 A    
C57   C61   1.391935 A    
C148  N28   1.437312 S    
C26   C34   1.558414 S    
O1    C1    1.294233 A    
C140  N24   1.438283 S    
C157  C167  1.394336 A    
N30   O108  1.300924 A    
C9    C37   1.544650 S    
N5    O58   1.301281 A    
O28   C110  1.296015 A    
C11   C15   1.539642 S    
C23   C109  1.434214 S    
C131  C144  1.469285 S    
C12   C40   1.544653 S    
C44   C48   1.542219 S    
C158  C167  1.394332 A    
C84   C88   1.406026 A    
C44   N40   1.456993 S    
N6    O59   1.301317 A    
O27   C109  1.296009 A    
N4    O55   1.300213 A    
O44   Cu11  1.969884 S    
C65   C69   1.420402 A    
C14   N2    1.457009 S    
C37   C45   1.545403 S    
O20   C106  1.296975 A    
O6    C2    1.300935 A    
O48   C120  1.286247 A    
O22   C108  1.296501 A    
O23   C109  1.296488 A    
C43   N39   1.456995 S    
C126  C129  1.399404 A    
N1    O50   1.300259 A    
N26   O99   1.300501 A    
C59   C63   1.391931 A    
C121  C131  1.417051 A    
N2    O51   1.300218 A    
C132  C143  1.469279 S    
O2    Cu1   1.969603 S    
C125  H9    1.083239 S    
O10   Cu1   1.945162 S    
C97   H5    1.083882 S    
N40   O128  1.300228 A    
C21   C107  1.434218 S    
C87   N11   1.435712 S    
C159  C163  1.398392 A    
C36   C40   1.544587 S    
C100  H8    1.083881 S    
C5    C17   1.434015 S    
C145  C155  1.408706 A    
C24   C110  1.434218 S    
N21   O89   1.301352 A    
C82   C102  1.410974 A    
Cu7   O31   1.964099 S    
O13   C5    1.293881 A    
C62   H42   1.082890 S    
N20   O88   1.301441 A    
Cu9   Cu10  2.651145 S    
Cu6   O30   1.964110 S    
C13   C45   1.542351 S    
Cu11  Cu12  2.651145 S    
Cu5   O29   1.964099 S    
N41   O130  1.301108 A    
N8    O63   1.301313 A    
N15   O78   1.301309 A    
O17   Cu5   1.963903 S    
N37   O122  1.300224 A    
C7    C19   1.434012 S    
N7    O62   1.301279 A    
C84   N8    1.437978 S    
O18   Cu6   1.963891 S    
C97   C101  1.397233 A    
C89   C115  1.474393 S    
C133  H13   1.083802 S    
C90   C116  1.474385 S    
C38   C46   1.545404 S    
O16   C8    1.293883 A    
C135  H15   1.083798 S    
N39   O126  1.300228 A    
C58   C78   1.398565 A    
C70   N42   1.433841 S    
C137  C141  1.418817 A    
C164  N36   1.438954 S    
C89   C93   1.416083 A    
C1    C65   1.477804 S    
C27   H35   1.110036 S    
O35   Cu11  1.963574 S    
O11   C7    1.293971 A    
C58   H38   1.083257 S    
C148  C156  1.408665 A    
C60   C80   1.398578 A    
O1    Cu1   1.969608 S    
N3    O54   1.300257 A    
O9    Cu1   1.945164 S    
N36   O119  1.300766 A    
C150  N30   1.433435 S    
C158  C162  1.398390 A    
N44   O136  1.301112 A    
C159  H23   1.083767 S    
C163  N35   1.438947 S    
C14   C30   1.532212 S    
C156  C167  1.467796 S    
C68   C72   1.420391 A    
C82   N6    1.437977 S    
N10   O68   1.301112 A    
O31   C112  1.297943 A    
C121  C125  1.398014 A    
O11   Cu2   1.945164 S    
O45   C119  1.286248 A    
N23   O93   1.301351 A    
Cu9   O45   1.963882 S    
C151  N31   1.433380 S    
C124  C128  1.398015 A    
C35   C43   1.539433 S    
N9    O66   1.301111 A    
O41   C115  1.289793 A    
O6    Cu3   1.967794 S    
Cu11  O47   1.963882 S    
O47   C120  1.286252 A    
O33   Cu9   1.963574 S    
C138  C141  1.418816 A    
C25   C29   1.547603 S    
O34   Cu10  1.963580 S    
C94   C98   1.395193 A    
O25   Cu6   1.943377 S    
N31   O110  1.300938 A    
C30   C42   1.532232 S    
N16   O80   1.301309 A    
C10   H18   1.110065 S    
O2    C2    1.294232 A    
C39   C55   1.464924 S    
C160  C164  1.398392 A    
N22   O91   1.301352 A    
C149  N29   1.433388 S    
C34   C38   1.544597 S    
C28   C36   1.558410 S    
O14   Cu3   1.945118 S    
C152  C154  1.413260 A    
O12   Cu2   1.945162 S    
C164  C166  1.419325 A    
N28   O104  1.301105 A    
O40   Cu12  1.971031 S    
Cu1   Cu3   2.676842 S    
C26   C30   1.547605 S    
Cu2   Cu4   2.676842 S    
N18   O83   1.301397 A    
C74   H2    1.083677 S    
O19   C106  1.296973 A    
C162  N34   1.438953 S    
C122  N18   1.440404 S    
C133  C137  1.397170 A    
C134  C143  1.395674 A    
C10   C38   1.544633 S    
C45   H25   1.110137 S    
C8    C20   1.434010 S    
C82   C86   1.406034 A    
C71   N43   1.433858 S    
N25   O97   1.300507 A    
N12   O71   1.301057 A    
C157  H21   1.083766 S    
C86   N10   1.435710 S    
C95   N15   1.437284 S    
O12   C8    1.293970 A    
C122  C131  1.417051 A    
O42   Cu9   1.969884 S    
C91   C95   1.416081 A    
C100  C104  1.397240 A    
C75   H3    1.083671 S    
