data_mof_unit_45784.cif
_audit_creation_date              2012-12-11T16:15:05-0500
_audit_creation_method            fapswitch 2.2
_symmetry_space_group_name_H-M    P1
_symmetry_Int_Tables_number       1
_space_group_crystal_system       triclinic
_cell_length_a                    13.599491
_cell_length_b                    13.638618
_cell_length_c                    28.37485
_cell_angle_alpha                 90.386256
_cell_angle_beta                  90.209672
_cell_angle_gamma                 60.02327
_cell_volume                      4558.78509407

loop_
_atom_site_label
_atom_site_type_symbol
_atom_type_description
_atom_site_fract_x
_atom_site_fract_y
_atom_site_fract_z
_atom_type_partial_charge
C1    C     C_R   0.282121 0.619828 0.567172 0.548119
C2    C     C_1   0.654155 0.665494 0.649182 -0.030209
C3    C     C_1   0.630104 0.230629 0.612128 -0.003441
C4    C     C_R   0.622077 0.601498 0.566261 0.548843
C5    C     C_R   0.740447 0.193448 0.727341 0.243276
C6    C     C_R   0.740411 0.199519 0.777035 0.220080
C7    C     C_R   0.573206 0.175836 0.778513 0.235496
C8    C     C_R   0.566017 0.184319 0.728820 0.218640
C9    C     C_R   0.653156 0.187307 0.703457 -0.010579
C10   C     C_R   0.661356 0.181197 0.802366 -0.042683
C11   C     C_1   0.681232 0.146867 0.851072 -0.013871
C12   C     C_1   0.641864 0.639835 0.610071 -0.009521
C13   C     C_1   0.643925 0.203913 0.653074 0.035444
C14   C     C_1   0.700213 0.109998 0.890588 -0.026227
C15   C     C_1   0.245542 0.633168 0.615060 0.005339
C16   C     C_R   0.600356 0.279206 0.565993 0.538506
C17   C     C_R   0.305499 0.582467 0.737368 0.090409
C18   C     C_R   0.286507 0.584538 0.785963 -0.116801
C19   C     C_R   0.094131 0.740221 0.774954 0.300755
C20   C     C_R   0.112164 0.733231 0.726075 -0.118075
C21   C     C_R   0.215416 0.651729 0.707176 0.012156
C22   C     C_R   0.179879 0.661432 0.804488 0.047035
C23   C     C_3   0.696316 0.784289 0.752462 -0.152217
C24   C     C_1   0.156571 0.668731 0.854151 0.007212
C25   C     C_1   0.228513 0.642549 0.656845 -0.029045
C26   C     C_1   0.120161 0.689349 0.893750 0.011305
C27   C     C_1   0.636870 0.633737 0.388717 0.011551
C28   C     C_R   0.277467 0.620739 0.434263 0.546359
C29   C     C_R   0.760151 0.638221 0.278209 0.122968
C30   C     C_R   0.767478 0.642270 0.228786 0.125495
C31   C     C_R   0.563777 0.715907 0.222385 -0.140561
C32   C     C_R   0.556933 0.709708 0.271136 -0.150127
C33   C     C_R   0.654381 0.671054 0.299046 0.016269
C34   C     C_3   0.691433 0.704571 0.789701 0.025678
C35   C     C_R   0.668611 0.681375 0.201099 0.021409
C36   C     C_1   0.674766 0.691858 0.151021 -0.014536
C37   C     C_1   0.645946 0.654568 0.348428 -0.021551
C38   C     C_1   0.691024 0.701971 0.110186 0.021068
C39   C     C_1   0.632605 0.228679 0.388299 0.007842
C40   C     C_R   0.620359 0.600271 0.434170 0.546301
C41   C     C_R   0.562364 0.208687 0.271534 0.240125
C42   C     C_R   0.568569 0.204299 0.222488 -0.101517
C43   C     C_R   0.768659 0.146098 0.226233 -0.091070
C44   C     C_R   0.762629 0.155263 0.275371 0.248945
C45   C     C_3   0.771565 0.678807 0.721699 0.322688
C46   C     C_R   0.659877 0.184146 0.297962 0.041764
C47   C     C_R   0.671716 0.171130 0.200092 -0.054540
C48   C     C_1   0.682064 0.145375 0.151121 -0.037136
C49   C     C_1   0.649783 0.202060 0.347677 0.015204
C50   C     C_1   0.694168 0.111763 0.111400 0.010898
C51   C     C_1   0.229055 0.636646 0.388734 0.012425
C52   C     C_R   0.600282 0.277630 0.433754 0.541239
C53   C     C_R   0.160513 0.750558 0.275225 -0.074674
C54   C     C_R   0.153530 0.755093 0.226271 0.107356
C55   C     C_R   0.200231 0.557988 0.223976 -0.096999
C56   C     C_3   0.667080 0.685905 0.698531 0.025007
C57   C     C_R   0.207223 0.553933 0.272996 -0.068031
C58   C     C_R   0.185603 0.650832 0.298495 0.026464
C59   C     C_R   0.172128 0.658760 0.200654 0.053156
C60   C     C_1   0.145573 0.669000 0.151682 0.006224
C61   C     C_1   0.203044 0.644535 0.348083 -0.028480
C62   C     C_1   0.110556 0.689254 0.112151 0.038208
C63   C     C_R   0.720123 0.055145 0.935274 0.537592
C64   C     C_3   0.589406 0.791659 0.728288 -0.145638
C65   C     C_R   0.733073 0.719627 0.931113 0.543036
C66   C     C_R   0.060021 0.727751 0.937369 0.542592
C67   C     C_3   0.769314 0.600079 0.759536 0.102888
C68   C     C_R   0.714233 0.056610 0.067130 0.550412
C69   C     C_R   0.725063 0.717198 0.064570 0.552130
C70   C     C_R   0.054386 0.727330 0.068267 0.553218
C71   C     C_3   0.585828 0.712602 0.766252 0.108322
C72   C     C_1   0.711157 0.711502 0.882606 0.004653
C73   C     C_3   0.382413 0.289910 0.704102 0.031726
C74   C     C_3   0.275683 0.282385 0.695001 -0.272506
C75   C     C_3   0.170684 0.400414 0.693501 -0.442863
C76   C     C_3   0.962157 0.932135 0.781085 0.016344
C77   C     C_3   0.051265 0.967158 0.793297 -0.238756
C78   C     C_3   0.663481 0.607245 0.736060 -0.111659
C79   C     C_3   0.061972 0.978886 0.846331 -0.372781
C80   C     C_3   0.449282 0.152904 0.308805 0.010589
C81   C     C_3   0.399876 0.111362 0.269986 -0.272047
C82   C     C_3   0.370605 0.024465 0.288807 -0.475793
C83   C     C_3   0.880116 0.221659 0.299707 0.007997
C84   C     C_3   0.995487 0.181957 0.276546 -0.265395
C85   C     C_3   0.027543 0.274323 0.277758 -0.456921
C86   C     C_3   0.876624 0.743899 0.681033 0.007983
C87   C     C_3   0.789869 0.813204 0.642714 -0.287315
C88   C     C_3   0.812033 0.904742 0.623637 -0.470629
C89   C     C_1   0.700895 0.708520 0.840714 -0.011783
C90   C     C_3   0.846123 0.273348 0.701527 0.046917
C91   C     C_3   0.833258 0.316861 0.650972 -0.269586
C92   C     C_3   0.894384 0.383756 0.644062 -0.460605
C93   C     C_3   0.799106 0.279778 0.838129 0.002459
C94   C     C_3   0.691173 0.396252 0.832403 -0.263077
C95   C     C_3   0.673468 0.470738 0.875498 -0.455123
C96   C     C_3   0.481177 0.075582 0.795434 0.040519
C97   C     C_3   0.509452 0.003594 0.839864 -0.258548
C98   C     C_3   0.428721 0.067706 0.880412 -0.361154
Cr1   Cr    Cr6+3 0.413560 0.417690 0.499580 1.040873
Cr2   Cr    Cr6+3 0.418030 0.668340 0.500400 1.040307
Cr3   Cr    Cr6+3 0.668390 0.413960 0.499990 1.028590
Cr4   Cr    Cr6+3 0.919710 0.916540 0.003080 1.044728
Cr5   Cr    Cr6+3 0.665300 0.919470 0.999630 1.023951
Cr6   Cr    Cr6+3 0.916060 0.665490 0.000390 1.056745
H1    H     H_    0.355337 0.529453 0.809169 0.152608
H2    H     H_    0.229502 0.475637 0.290954 0.163106
H3    H     H_    0.652743 0.533998 0.728253 0.147759
H4    H     H_    0.711785 0.855159 0.760463 0.101194
H5    H     H_    0.391951 0.338012 0.674730 0.176691
H6    H     H_    0.369784 0.336697 0.738030 0.179250
H7    H     H_    0.283969 0.238357 0.660890 0.174894
H8    H     H_    0.265143 0.233015 0.723534 0.177119
H9    H     H_    0.176677 0.449530 0.663695 0.155766
H10   H     H_    0.161828 0.446776 0.727002 0.191084
H11   H     H_    0.093665 0.393243 0.688701 0.185225
H12   H     H_    0.047339 0.792328 0.702623 0.082469
H13   H     H_    0.882887 0.989432 0.800018 0.181995
H14   H     H_    0.939782 0.945823 0.743127 0.125413
H15   H     H_    0.135750 0.906224 0.778457 0.172978
H16   H     H_    0.025610 0.049804 0.776533 0.192751
H17   H     H_    0.978044 0.038127 0.862066 0.166190
H18   H     H_    0.120329 0.012255 0.853123 0.141891
H19   H     H_    0.097151 0.895551 0.863611 0.190577
H20   H     H_    0.390219 0.182358 0.339327 0.165521
H21   H     H_    0.531261 0.081435 0.321888 0.131121
H22   H     H_    0.321888 0.184421 0.255413 0.176121
H23   H     H_    0.487467 0.746989 0.201279 0.138691
H24   H     H_    0.462664 0.071706 0.241040 0.164522
H25   H     H_    0.447195 0.951278 0.304118 0.161420
H26   H     H_    0.338496 0.993482 0.259595 0.167480
H27   H     H_    0.303644 0.063467 0.316248 0.149401
H28   H     H_    0.883049 0.248292 0.336539 0.166632
H29   H     H_    0.813691 0.298484 0.281057 0.123782
H30   H     H_    0.061901 0.106043 0.295162 0.189548
H31   H     H_    0.992390 0.158510 0.239268 0.191657
H32   H     H_    0.962773 0.350687 0.258906 0.195503
H33   H     H_    0.110754 0.243215 0.260149 0.159476
H34   H     H_    0.475547 0.734010 0.287109 0.126499
H35   H     H_    0.034523 0.297214 0.314763 0.175991
H36   H     H_    0.962045 0.710770 0.665334 0.157815
H37   H     H_    0.870115 0.798052 0.711681 0.147827
H38   H     H_    0.795636 0.756379 0.613293 0.178202
H39   H     H_    0.702564 0.855129 0.657344 0.166806
H40   H     H_    0.809542 0.960791 0.652749 0.164057
H41   H     H_    0.745878 0.956668 0.597348 0.160738
H42   H     H_    0.896444 0.865716 0.606268 0.151155
H43   H     H_    0.932677 0.247441 0.714796 0.189730
H44   H     H_    0.785043 0.343597 0.724652 0.157244
H45   H     H_    0.514986 0.869744 0.714726 0.137004
H46   H     H_    0.869378 0.244458 0.625766 0.193248
H47   H     H_    0.741613 0.371590 0.642761 0.183289
H48   H     H_    0.864550 0.453557 0.670190 0.202505
H49   H     H_    0.877856 0.419994 0.608108 0.179315
H50   H     H_    0.987241 0.326805 0.648046 0.145453
H51   H     H_    0.871072 0.294866 0.844394 0.186795
H52   H     H_    0.796185 0.236991 0.870585 0.129441
H53   H     H_    0.699362 0.438310 0.800725 0.194632
H54   H     H_    0.614637 0.387769 0.828236 0.177687
H55   H     H_    0.661674 0.431272 0.907489 0.146030
H56   H     H_    0.493730 0.223244 0.202005 0.130778
H57   H     H_    0.596651 0.554770 0.870560 0.190604
H58   H     H_    0.747804 0.482618 0.880706 0.177656
H59   H     H_    0.537573 0.021187 0.766554 0.128471
H60   H     H_    0.392954 0.102026 0.784467 0.162782
H61   H     H_    0.502826 0.927504 0.831670 0.153477
H62   H     H_    0.598198 0.975079 0.850803 0.173273
H63   H     H_    0.436433 0.142184 0.890869 0.201930
H64   H     H_    0.450407 0.010938 0.911281 0.152828
H65   H     H_    0.339660 0.096400 0.869942 0.144857
H66   H     H_    0.848996 0.117698 0.208612 0.162276
H67   H     H_    0.147171 0.824443 0.295047 0.140876
H68   H     H_    0.213586 0.483813 0.204404 0.136480
I1    I     I_    0.432784 0.746823 0.801053 -0.496810
I2    I     I_    0.473189 0.487553 0.711727 -0.525082
I3    I     I_    0.906702 0.583553 0.321914 -0.398434
I4    I     I_    0.926996 0.587785 0.195188 -0.380417
I5    I     I_    0.112900 0.909797 0.193066 -0.450037
I6    I     I_    0.920888 0.454813 0.783651 -0.476604
O1    O     O_R   0.503010 0.303330 0.550820 -0.502876
O2    O     O_R   0.827060 0.642880 0.947470 -0.499412
O3    O     O_R   0.013800 0.673690 0.954100 -0.490256
O4    O     O_R   0.320040 0.522690 0.547470 -0.495486
O5    O     O_R   0.031250 0.825430 0.055080 -0.489740
O6    O     O_R   0.814180 0.011990 0.050320 -0.485685
O7    O     O_R   0.640680 0.032900 0.051920 -0.508417
O8    O     O_R   0.671090 0.815590 0.046300 -0.495727
O9    O     O_R   0.822940 0.642440 0.050310 -0.489863
O10   O     O_R   0.009970 0.673280 0.049430 -0.491885
O11   O     O_3   0.833690 0.833830 0.001040 -0.255657
O12   O     O_R   0.522480 0.657560 0.452870 -0.501078
O13   O     O_R   0.303930 0.694040 0.551750 -0.500367
O14   O     O_R   0.523510 0.657900 0.548240 -0.486508
O15   O     O_R   0.694770 0.503160 0.551780 -0.522419
O16   O     O_R   0.657990 0.319990 0.547370 -0.500988
O17   O     O_R   0.501900 0.302960 0.447930 -0.505520
O18   O     O_R   0.319020 0.522350 0.452090 -0.491071
O19   O     O_R   0.302820 0.693680 0.448870 -0.510704
O20   O     O_3   0.478701 0.180245 0.705128 -0.577301
O21   O     O_3   0.992830 0.821134 0.795257 -0.577760
O22   O     O_3   0.458285 0.246423 0.293087 -0.580099
O23   O     O_R   0.693670 0.502790 0.448900 -0.500030
O24   O     O_3   0.858351 0.130380 0.301518 -0.556520
O25   O     O_3   0.870543 0.648218 0.695204 -0.562433
O26   O     O_3   0.834457 0.176087 0.701719 -0.578604
O27   O     O_3   0.829249 0.206897 0.798180 -0.588132
O28   O     O_3   0.488348 0.173948 0.804867 -0.553648
O29   O     O_R   0.656970 0.319650 0.452000 -0.495964
O30   O     O_3   0.499990 0.499990 0.499990 -0.254075
O31   O     O_R   0.035380 0.825870 0.952240 -0.516308
O32   O     O_R   0.818010 0.012400 0.954990 -0.498625
O33   O     O_R   0.644810 0.033340 0.949080 -0.518520
O34   O     O_R   0.674910 0.816000 0.950960 -0.506283

loop_
_geom_bond_atom_site_label_1
_geom_bond_atom_site_label_2
_ccdc_geom_bond_type
C82   H26   S    
C7    C10   A    
C87   C88   S    
C84   H31   S    
C93   C94   S    
C23   C45   S    
C53   C58   A    
C55   C59   A    
C81   H22   S    
C52   O29   A    
C41   C42   A    
C4    O14   A    
C8    O20   S    
C19   C20   A    
Cr5   O7    S    
C31   H23   S    
C77   H16   S    
C93   O27   S    
C5    O26   S    
C97   C98   S    
Cr2   O30   S    
C7    C8    A    
C31   C32   A    
C53   C54   A    
C17   I2    S    
C32   H34   S    
C79   H17   S    
C46   C49   S    
C84   H30   S    
C5    C9    A    
C90   H43   S    
C30   C35   A    
C83   C84   S    
C95   H55   S    
Cr4   O5    S    
C24   C26   T    
C34   C89   S    
C83   O24   S    
C74   H8    S    
C5    C6    A    
C67   C78   S    
C11   C14   T    
C15   C25   T    
C80   H21   S    
Cr6   O11   S    
C97   H62   S    
C80   O22   S    
Cr1   O17   S    
Cr4   O11   S    
C56   C78   S    
C62   C70   S    
C60   C62   T    
C73   C74   S    
C64   C71   S    
C9    C13   S    
C65   O34   A    
C90   H44   S    
C29   C33   A    
Cr3   O29   S    
C92   H48   S    
C28   O18   A    
C98   H65   S    
C85   H35   S    
C35   C36   S    
C45   C56   S    
C44   C46   A    
C8    C9    A    
Cr1   O4    S    
C51   C61   T    
C45   C67   S    
C41   C46   A    
C56   C64   S    
C92   H49   S    
C1    C15   S    
C4    C12   S    
C69   O9    A    
C98   H63   S    
C3    C13   T    
C16   O1    A    
C70   O10   A    
Cr2   O19   S    
C58   C61   S    
C48   C50   T    
Cr6   O3    S    
C38   C69   S    
C2    C12   T    
C59   C60   S    
C94   H54   S    
C73   O20   S    
C44   O24   S    
Cr2   O14   S    
C52   O17   A    
C29   I3    S    
C41   O22   S    
C30   I4    S    
C43   H66   S    
Cr3   O15   S    
C81   C82   S    
C90   O26   S    
C54   C59   A    
C77   C79   S    
C4    O15   A    
Cr6   O10   S    
C79   H18   S    
Cr2   O12   S    
C74   C75   S    
C26   C66   S    
C73   H6    S    
C19   C22   A    
C84   C85   S    
C95   H58   S    
Cr5   O33   S    
C91   C92   S    
C20   H12   S    
C86   C87   S    
Cr4   O32   S    
C86   O25   S    
C79   H19   S    
Cr1   O18   S    
C67   I6    S    
C33   C37   S    
C96   H60   S    
C78   H3    S    
C66   O31   A    
C34   C67   S    
C43   C44   A    
Cr1   O1    S    
C29   C30   A    
Cr3   O30   S    
C96   O28   S    
C47   C48   S    
C93   H51   S    
C27   C40   S    
C45   O25   S    
C23   C34   S    
C96   C97   S    
C20   C21   A    
C17   C18   A    
C88   H41   S    
C75   H10   S    
C76   C77   S    
C82   H25   S    
C7    O28   S    
C2    C56   S    
C75   H9    S    
Cr5   O11   S    
C1    O13   A    
C23   C64   S    
C39   C49   T    
C66   O3    A    
C68   O7    A    
C94   H53   S    
C23   H4    S    
C55   C57   A    
C81   H24   S    
C31   C35   A    
Cr2   O13   S    
C75   H11   S    
C63   O32   A    
C90   C91   S    
C85   H33   S    
C55   H68   S    
C74   H7    S    
C57   H2    S    
Cr3   O16   S    
C80   H20   S    
Cr6   O9    S    
C21   C25   S    
C68   O6    A    
C18   C22   A    
C6    O27   S    
C93   H52   S    
C42   H56   S    
C76   H13   S    
C63   O33   A    
C80   C81   S    
C77   H15   S    
C76   O21   S    
Cr5   O34   S    
C6    C10   A    
C91   H46   S    
C1    O4    A    
C96   H59   S    
Cr4   O31   S    
C73   H5    S    
C65   O2    A    
C86   H36   S    
C65   C72   S    
Cr1   O30   S    
C19   O21   S    
C28   O19   A    
C54   I5    S    
Cr5   O8    S    
C64   H45   S    
Cr4   O6    S    
C32   C33   A    
C95   H57   S    
C18   H1    S    
C83   H28   S    
Cr3   O23   S    
C91   H47   S    
C72   C89   T    
C57   C58   A    
Cr6   O2    S    
C43   C47   A    
C27   C37   T    
C97   H61   S    
C14   C63   S    
C34   C71   S    
C36   C38   T    
C28   C51   S    
C39   C52   S    
C22   C24   S    
C42   C47   A    
C87   H38   S    
C94   C95   S    
C76   H14   S    
C83   H29   S    
C16   O16   A    
C10   C11   S    
C53   H67   S    
C85   H32   S    
C71   I1    S    
C70   O5    A    
C40   O12   A    
C40   O23   A    
C88   H42   S    
C92   H50   S    
C87   H39   S    
C82   H27   S    
C50   C68   S    
C69   O8    A    
C88   H40   S    
C71   C78   S    
C98   H64   S    
C3    C16   S    
C86   H37   S    
C17   C21   A    
