data_mof_unit_30570.cif
_audit_creation_date              2012-10-26T20:05:04-0400
_audit_creation_method            fapswitch 2.2
_symmetry_space_group_name_H-M    P1
_symmetry_Int_Tables_number       1
_space_group_crystal_system       triclinic
_cell_length_a                    15.877613
_cell_length_b                    15.041886
_cell_length_c                    13.919773
_cell_angle_alpha                 90.544138
_cell_angle_beta                  89.486663
_cell_angle_gamma                 86.422741
_cell_volume                      3317.66982972

loop_
_atom_site_label
_atom_site_type_symbol
_atom_type_description
_atom_site_fract_x
_atom_site_fract_y
_atom_site_fract_z
_atom_type_partial_charge
C1    C     C_R   0.499758 0.329501 0.499572 0.502588
C2    C     C_R   0.499846 0.047025 0.500764 0.007526
C3    C     C_R   0.426547 0.910454 0.471303 0.065444
C4    C     C_R   0.573311 0.089571 0.528693 0.058496
C5    C     C_R   0.641685 0.945002 0.564700 -0.068905
C6    C     C_R   0.358080 0.055109 0.435667 -0.071009
C7    C     C_R   0.640771 0.037592 0.570687 0.023053
C8    C     C_R   0.358978 0.962522 0.429567 0.025939
C9    C     C_R   0.556277 0.443898 0.792873 0.135149
C10   C     C_R   0.446279 0.558811 0.207125 0.135342
C11   C     C_R   0.440929 0.553615 0.795707 0.130296
C12   C     C_R   0.500285 0.670500 0.500417 0.505196
C13   C     C_R   0.551581 0.438338 0.204329 0.131297
C14   C     C_R   0.438161 0.551456 0.898433 -0.018790
C15   C     C_R   0.549779 0.435549 0.101589 -0.018786
C16   C     C_R   0.340165 0.500517 0.500372 0.523809
C17   C     C_R   0.659834 0.499525 0.499632 0.528858
C18   C     C_R   0.494537 0.493570 0.948371 0.018025
C19   C     C_R   0.494074 0.494152 0.051645 0.018007
C20   C     C_R   0.550419 0.434389 0.895312 -0.029868
C21   C     C_R   0.437250 0.552326 0.104701 -0.031365
C22   C     C_R   0.376817 0.603065 0.952342 -0.103981
C23   C     C_R   0.500275 0.767070 0.501334 -0.036932
C24   C     C_R   0.599693 0.371645 0.047673 -0.104663
C25   C     C_R   0.372971 0.601107 0.052930 0.024588
C26   C     C_R   0.597694 0.367340 0.947111 0.025565
C27   C     C_3   0.973204 0.454018 0.574941 -0.029838
C28   C     C_3   0.026781 0.546231 0.425124 -0.021985
C29   C     C_3   0.033495 0.416304 0.494541 -0.031996
C30   C     C_3   0.966487 0.583944 0.505529 -0.031184
C31   C     C_1   0.250705 0.500576 0.501226 0.002610
C32   C     C_1   0.749288 0.499546 0.498808 0.031310
C33   C     C_3   0.023786 0.538285 0.582040 0.046474
C34   C     C_R   0.499713 0.232949 0.498598 -0.053907
C35   C     C_3   0.976200 0.461962 0.418030 0.044832
C36   C     C_3   0.083737 0.500572 0.501650 0.055417
C37   C     C_3   0.916248 0.499674 0.498418 0.052808
C38   C     C_1   0.175321 0.500561 0.501649 0.011517
C39   C     C_1   0.824667 0.499631 0.498413 0.025761
C40   C     C_R   0.424199 0.817635 0.485522 0.006311
C41   C     C_R   0.575791 0.182318 0.514149 -0.021218
C42   C     C_3   0.072000 0.321208 0.488759 -0.371182
C43   C     C_3   0.927974 0.679035 0.511322 -0.369564
C44   C     C_2   0.294695 0.641109 0.099646 0.265722
C45   C     C_R   0.576042 0.808135 0.518368 0.004058
C46   C     C_2   0.636672 0.285127 0.900527 0.267606
C47   C     C_3   0.942110 0.401451 0.659652 -0.376861
C48   C     C_3   0.057847 0.598817 0.340404 -0.394475
C49   C     C_2   0.952080 0.418932 0.325596 0.242205
C50   C     C_2   0.047915 0.581298 0.674480 0.241045
C51   C     C_2   0.343087 0.773894 0.497725 0.212366
C52   C     C_2   0.656993 0.225784 0.501194 0.209255
C53   C     C_2   0.656348 0.752112 0.528330 0.222225
C54   C     C_2   0.343582 0.248016 0.472002 0.214364
C55   C     C_3   0.706768 0.076208 0.633715 -0.345169
C56   C     C_R   0.423869 0.191938 0.481808 0.001592
C57   C     C_3   0.292733 0.924075 0.366764 -0.338302
C58   C     C_2   0.629734 0.402039 0.740425 0.269406
C59   C     C_2   0.406144 0.636212 0.259457 0.269763
C60   C     C_3   0.378046 0.618418 0.747245 -0.301995
C61   C     C_3   0.613130 0.372139 0.252847 -0.299035
C62   C     C_R   0.573742 0.901780 0.525900 0.020140
C63   C     C_R   0.426100 0.098290 0.474298 0.019377
C64   C     C_R   0.499992 0.953012 0.499337 0.007190
Cu1   Cu    Cu3+1 0.500010 0.499990 0.597420 0.939982
Cu2   Cu    Cu3+1 0.499990 0.500010 0.402580 0.940928
H1    H     H_    0.327555 0.642628 0.916764 0.166873
H2    H     H_    0.886432 0.687068 0.575760 0.153641
H3    H     H_    0.270801 0.613131 0.165262 0.074416
H4    H     H_    0.610326 0.259153 0.835146 0.079399
H5    H     H_    0.996723 0.376025 0.702799 0.154066
H6    H     H_    0.899229 0.445240 0.705422 0.167443
H7    H     H_    0.907457 0.344479 0.632958 0.164963
H8    H     H_    0.003223 0.624178 0.297236 0.162321
H9    H     H_    0.092428 0.655841 0.367097 0.154174
H10   H     H_    0.100781 0.555073 0.294644 0.124349
H11   H     H_    0.000921 0.395284 0.274952 0.107349
H12   H     H_    0.638183 0.320433 0.083211 0.164518
H13   H     H_    0.999077 0.604981 0.725112 0.114132
H14   H     H_    0.337583 0.705399 0.474953 0.097665
H15   H     H_    0.662561 0.294639 0.522587 0.098884
H16   H     H_    0.656652 0.688050 0.563363 0.128754
H17   H     H_    0.343258 0.312042 0.436893 0.126280
H18   H     H_    0.716244 0.035236 0.699202 0.127881
H19   H     H_    0.767922 0.076090 0.594474 0.192612
H20   H     H_    0.687191 0.144260 0.660022 0.136856
H21   H     H_    0.282704 0.965421 0.301634 0.128802
H22   H     H_    0.312384 0.856268 0.339828 0.173420
H23   H     H_    0.694170 0.906935 0.596620 0.162006
H24   H     H_    0.231826 0.923729 0.406443 0.184263
H25   H     H_    0.621683 0.356335 0.681460 0.107004
H26   H     H_    0.363071 0.627587 0.318595 0.103270
H27   H     H_    0.384955 0.686712 0.775939 0.117960
H28   H     H_    0.383312 0.625302 0.670183 0.203404
H29   H     H_    0.312940 0.598382 0.761212 0.150170
H30   H     H_    0.595055 0.303295 0.237628 0.111785
H31   H     H_    0.677991 0.380539 0.225267 0.148045
H32   H     H_    0.618617 0.376643 0.330096 0.204913
H33   H     H_    0.305526 0.093222 0.403943 0.160821
H34   H     H_    0.021047 0.274184 0.483705 0.156321
H35   H     H_    0.113548 0.313165 0.424326 0.148908
H36   H     H_    0.109710 0.306434 0.554065 0.188578
H37   H     H_    0.978922 0.726065 0.516375 0.156091
H38   H     H_    0.890257 0.693811 0.446022 0.189267
N1    N     N_R   0.499960 0.499930 0.743810 -0.240239
N2    N     N_R   0.500040 0.500070 0.256190 -0.239683
O1    O     O_R   0.500020 0.370250 0.582280 -0.520889
O2    O     O_2   0.697575 0.244378 0.935795 -0.473096
O3    O     O_2   0.878118 0.410259 0.306834 -0.482794
O4    O     O_2   0.121881 0.589913 0.693266 -0.489565
O5    O     O_2   0.282895 0.812778 0.538416 -0.492196
O6    O     O_2   0.717224 0.186211 0.461291 -0.483060
O7    O     O_2   0.722269 0.775440 0.493720 -0.519687
O8    O     O_2   0.277709 0.224771 0.506815 -0.525837
O9    O     O_2   0.701145 0.418320 0.763845 -0.504367
O10   O     O_2   0.420835 0.711675 0.235654 -0.494656
O11   O     O_R   0.499980 0.629750 0.417720 -0.476344
O12   O     O_R   0.500010 0.370270 0.417740 -0.526174
O13   O     O_R   0.499990 0.629730 0.582260 -0.530196
O14   O     O_R   0.379080 0.499980 0.582260 -0.492642
O15   O     O_R   0.620920 0.500020 0.417740 -0.495826
O16   O     O_R   0.379070 0.500000 0.417710 -0.543853
O17   O     O_R   0.620930 0.500000 0.582290 -0.499929
O18   O     O_2   0.254981 0.704600 0.064233 -0.473009

loop_
_geom_bond_atom_site_label_1
_geom_bond_atom_site_label_2
_ccdc_geom_bond_type
C34   C56   A    
C23   C45   A    
C29   C42   S    
C27   C29   S    
C48   H10   S    
C61   H32   S    
C7    C55   S    
C50   H13   S    
C61   H30   S    
C3    C64   A    
C27   C33   S    
C16   C31   S    
C15   C19   A    
C29   C36   S    
C35   C37   S    
C24   C26   A    
C18   C19   A    
C16   O14   A    
C11   C14   A    
C4    C41   A    
C52   O6    D    
C9    N1    A    
C23   C40   A    
C45   C62   A    
C50   O4    D    
C33   C36   S    
C22   C25   A    
C9    C58   S    
C32   C39   T    
C16   O16   A    
C51   H14   S    
C62   C64   A    
C43   H38   S    
C17   O17   A    
C28   C35   S    
C2    C64   A    
C43   H2    S    
Cu2   O11   S    
C46   O2    D    
C11   N1    A    
Cu2   O16   S    
C58   H25   S    
C41   C52   S    
C1    O12   A    
C60   H27   S    
C45   C53   S    
C48   H9    S    
C34   C41   A    
Cu2   N2    S    
C4    C7    A    
C42   H36   S    
C25   C44   S    
Cu1   N1    S    
C54   H17   S    
C53   O7    D    
C1    C34   S    
C10   C21   A    
C47   H6    S    
C54   C56   S    
C56   C63   A    
C57   H24   S    
C48   H8    S    
C47   H7    S    
C3    C8    A    
C5    C7    A    
C59   O10   D    
C6    C8    A    
C33   C50   S    
C44   O18   D    
C57   H21   S    
C30   C37   S    
C53   H16   S    
C6    C63   A    
C55   H19   S    
C2    C4    A    
C35   C49   S    
C42   H34   S    
C8    C57   S    
C12   O13   A    
C9    C20   A    
C12   C23   S    
Cu1   O13   S    
Cu2   O15   S    
C44   H3    S    
C47   H5    S    
C1    O1    A    
C17   O15   A    
C15   C24   A    
C3    C40   A    
C13   C15   A    
C58   O9    D    
C30   C43   S    
C10   N2    A    
C11   C60   S    
C42   H35   S    
C2    C63   A    
C49   O3    D    
C24   H12   S    
C21   C25   A    
C28   C48   S    
C51   O5    D    
C30   C33   S    
C19   C21   A    
C14   C18   A    
C61   H31   S    
C13   N2    A    
C57   H22   S    
C40   C51   S    
C29   C35   S    
C27   C47   S    
C31   C38   T    
C6    H33   S    
C14   C22   A    
C55   H20   S    
C36   C38   S    
C10   C59   S    
C37   C39   S    
C20   C26   A    
C27   C37   S    
C54   O8    D    
C28   C30   S    
Cu1   O14   S    
C49   H11   S    
C5    C62   A    
C18   C20   A    
C59   H26   S    
Cu1   O17   S    
C52   H15   S    
C43   H37   S    
C22   H1    S    
C46   H4    S    
C26   C46   S    
C12   O11   A    
C60   H29   S    
C13   C61   S    
C28   C36   S    
Cu1   Cu2   S    
Cu2   O12   S    
C17   C32   S    
C55   H18   S    
Cu1   O1    S    
C5    H23   S    
C60   H28   S    
