data_mof_unit_55782.cif
_audit_creation_date              2012-12-11T16:19:18-0500
_audit_creation_method            fapswitch 2.2
_symmetry_space_group_name_H-M    P1
_symmetry_Int_Tables_number       1
_space_group_crystal_system       triclinic
_cell_length_a                    6.956038
_cell_length_b                    31.30758
_cell_length_c                    35.048138
_cell_angle_alpha                 89.999708
_cell_angle_beta                  90.000376
_cell_angle_gamma                 90.000136
_cell_volume                      7632.66840116

loop_
_atom_site_label
_atom_site_type_symbol
_atom_type_description
_atom_site_fract_x
_atom_site_fract_y
_atom_site_fract_z
_atom_type_partial_charge
O1    O     O_R   0.417270 0.211480 0.210950 -0.536865
O2    O     O_R   0.582730 0.788520 0.789050 -0.539494
O3    O     O_R   0.582730 0.788520 0.710950 -0.536822
O4    O     O_R   0.417270 0.211480 0.289050 -0.539394
O5    O     O_R   0.917270 0.288520 0.289050 -0.536922
O6    O     O_R   0.082730 0.711480 0.710950 -0.539584
O7    O     O_R   0.082730 0.711480 0.789050 -0.536823
O8    O     O_R   0.917270 0.288520 0.210950 -0.539603
O9    O     O_R   0.746940 0.206370 0.288750 -0.539926
O10   O     O_R   0.253060 0.793630 0.711250 -0.541512
O11   O     O_R   0.253060 0.793630 0.788750 -0.539862
O12   O     O_R   0.746940 0.206370 0.211250 -0.541377
O13   O     O_R   0.246940 0.293630 0.211250 -0.539875
O14   O     O_R   0.753060 0.706370 0.788750 -0.541603
O15   O     O_R   0.753060 0.706370 0.711250 -0.539861
O16   O     O_R   0.246940 0.293630 0.288750 -0.541605
C1    C     C_R   0.578153 0.196041 0.301869 0.731970
C2    C     C_R   0.421890 0.804017 0.698207 0.730677
C3    C     C_R   0.421849 0.803959 0.801869 0.732006
C4    C     C_R   0.578107 0.195983 0.198207 0.731066
C5    C     C_R   0.078152 0.303958 0.198130 0.731608
C6    C     C_R   0.921891 0.695984 0.801793 0.730423
C7    C     C_R   0.921848 0.696042 0.698130 0.731652
C8    C     C_R   0.078110 0.304014 0.301795 0.730096
O17   O     O_3   0.583760 0.276950 0.250000 -0.369471
O18   O     O_3   0.416240 0.723050 0.750000 -0.369395
O19   O     O_3   0.083760 0.223050 0.250000 -0.369114
O20   O     O_3   0.916240 0.776950 0.750000 -0.369248
V1    V     V_3+5 0.858600 0.245000 0.250000 1.420151
V2    V     V_3+5 0.141400 0.755000 0.750000 1.419946
V3    V     V_3+5 0.358600 0.255000 0.250000 1.419822
V4    V     V_3+5 0.641400 0.745000 0.750000 1.419779
C9    C     C_R   0.929716 0.587691 0.538440 0.649988
C10   C     C_R   0.995098 0.411844 0.460613 0.640677
C11   C     C_R   0.070721 0.412310 0.038447 0.649642
C12   C     C_R   0.004838 0.588154 0.960615 0.641229
C13   C     C_R   0.429329 0.912312 0.961549 0.650338
C14   C     C_R   0.495088 0.088139 0.039400 0.641607
C15   C     C_R   0.570996 0.087700 0.461544 0.648999
C16   C     C_R   0.504878 0.911882 0.539411 0.641762
N1    N     N_R   0.952732 0.573886 0.575119 -0.550246
N2    N     N_R   0.019976 0.426361 0.424188 -0.550771
N3    N     N_R   0.047375 0.426111 0.075118 -0.550172
N4    N     N_R   0.980196 0.573634 0.924185 -0.551002
N5    N     N_R   0.452478 0.926127 0.924875 -0.550988
N6    N     N_R   0.519628 0.073610 0.075833 -0.551926
N7    N     N_R   0.547695 0.073877 0.424878 -0.550216
N8    N     N_R   0.480091 0.926398 0.575837 -0.551003
C17   C     C_R   0.982095 0.531651 0.582940 0.588899
C18   C     C_R   0.025921 0.469142 0.416629 0.592806
C19   C     C_R   0.017759 0.468337 0.082935 0.588958
C20   C     C_R   0.974618 0.530850 0.916625 0.592935
C21   C     C_R   0.481788 0.968369 0.917066 0.589595
C22   C     C_R   0.524997 0.030821 0.083388 0.594093
C23   C     C_R   0.518333 0.031638 0.417080 0.590082
C24   C     C_R   0.474299 0.969181 0.583397 0.592348
C25   C     C_R   0.977884 0.500552 0.553324 -0.087097
C26   C     C_R   0.993280 0.499646 0.446026 -0.087919
C27   C     C_R   0.021986 0.499440 0.053324 -0.087148
C28   C     C_R   0.007481 0.500360 0.946023 -0.087779
C29   C     C_R   0.477329 0.999460 0.946685 -0.088197
C30   C     C_R   0.491992 0.000345 0.053985 -0.089090
C31   C     C_R   0.522797 0.000556 0.446704 -0.088555
C32   C     C_R   0.507171 0.999688 0.554002 -0.088522
C33   C     C_R   0.973731 0.514953 0.514920 -0.005413
C34   C     C_R   0.987471 0.485106 0.484368 -0.006069
C35   C     C_R   0.026572 0.485046 0.014920 -0.005367
C36   C     C_R   0.012850 0.514894 0.984367 -0.006200
C37   C     C_R   0.472982 0.985050 0.985084 -0.005859
C38   C     C_R   0.486694 0.014888 0.015644 -0.006734
C39   C     C_R   0.527081 0.014973 0.485104 -0.005352
C40   C     C_R   0.513112 0.985140 0.515664 -0.006018
C41   C     C_R   0.955948 0.559294 0.507166 -0.099992
C42   C     C_R   0.995430 0.440622 0.492042 -0.098710
C43   C     C_R   0.044775 0.440712 0.007163 -0.099959
C44   C     C_R   0.004477 0.559373 0.992043 -0.098999
C45   C     C_R   0.455277 0.940708 0.992829 -0.099262
C46   C     C_R   0.495380 0.059363 0.007976 -0.098221
C47   C     C_R   0.545141 0.059311 0.492843 -0.098615
C48   C     C_R   0.504626 0.940661 0.507992 -0.098451
C49   C     C_R   0.984685 0.455930 0.560918 -0.100843
C50   C     C_R   0.973091 0.544027 0.438324 -0.097072
C51   C     C_R   0.014797 0.544061 0.060920 -0.100295
C52   C     C_R   0.028356 0.455999 0.938315 -0.097310
C53   C     C_R   0.484212 0.044099 0.939117 -0.100830
C54   C     C_R   0.471066 0.955967 0.061665 -0.097221
C55   C     C_R   0.515998 0.955919 0.439136 -0.100847
C56   C     C_R   0.527454 0.044074 0.561692 -0.100756
C57   C     C_R   0.997600 0.426271 0.530554 -0.106712
C58   C     C_R   0.959432 0.573686 0.468649 -0.108368
C59   C     C_R   0.001897 0.573719 0.030555 -0.106206
C60   C     C_R   0.042009 0.426336 0.968637 -0.108429
C61   C     C_R   0.498206 0.073717 0.969471 -0.103709
C62   C     C_R   0.458520 0.926311 0.031343 -0.105592
C63   C     C_R   0.502005 0.926303 0.469488 -0.103609
C64   C     C_R   0.542211 0.073718 0.531349 -0.107525
O21   O     O_2   0.877930 0.628674 0.532595 -0.489147
O22   O     O_2   0.965847 0.369702 0.466031 -0.490611
O23   O     O_2   0.122503 0.371325 0.032621 -0.489249
O24   O     O_2   0.033891 0.630301 0.966043 -0.489619
O25   O     O_2   0.377604 0.871324 0.967386 -0.488800
O26   O     O_2   0.466086 0.130287 0.033964 -0.489216
O27   O     O_2   0.622613 0.128699 0.467351 -0.493190
O28   O     O_2   0.534095 0.869740 0.533977 -0.489379
O29   O     O_2   0.020387 0.520227 0.619246 -0.505034
O30   O     O_2   0.068595 0.481863 0.380862 -0.502184
O31   O     O_2   0.979192 0.479746 0.119233 -0.505168
O32   O     O_2   0.932060 0.518106 0.880859 -0.501979
O33   O     O_2   0.520307 0.979808 0.880773 -0.501146
O34   O     O_2   0.567513 0.018056 0.119151 -0.497169
O35   O     O_2   0.479727 0.020193 0.380792 -0.500711
O36   O     O_2   0.431656 0.981898 0.619166 -0.501855
C65   C     C_R   0.906828 0.396473 0.362757 -0.184560
C66   C     C_R   0.806893 0.600982 0.634873 -0.181434
C67   C     C_R   0.093254 0.603527 0.862749 -0.184419
C68   C     C_R   0.193145 0.399018 0.134878 -0.181623
C69   C     C_R   0.406666 0.103516 0.137271 -0.181348
C70   C     C_R   0.306790 0.899025 0.865109 -0.179109
C71   C     C_R   0.593192 0.896494 0.637266 -0.183908
C72   C     C_R   0.693279 0.100975 0.365103 -0.178760
H1    H     H_    0.791742 0.419736 0.362381 0.157344
H2    H     H_    0.702568 0.575350 0.633813 0.161696
H3    H     H_    0.208373 0.580272 0.862370 0.157420
H4    H     H_    0.297469 0.424651 0.133821 0.161590
H5    H     H_    0.291508 0.080271 0.137655 0.159050
H6    H     H_    0.202423 0.924649 0.866165 0.162750
H7    H     H_    0.708292 0.919754 0.637648 0.157520
H8    H     H_    0.797665 0.075355 0.366158 0.162908
C73   C     C_R   0.919136 0.366504 0.333258 -0.197251
C74   C     C_R   0.797670 0.630816 0.664584 -0.206762
C75   C     C_R   0.080907 0.633496 0.833251 -0.197069
C76   C     C_R   0.202342 0.369185 0.164589 -0.206813
C77   C     C_R   0.419050 0.133492 0.166763 -0.195179
C78   C     C_R   0.297623 0.869187 0.835402 -0.205662
C79   C     C_R   0.580876 0.866515 0.666757 -0.196394
C80   C     C_R   0.702405 0.130813 0.335396 -0.204982
H9    H     H_    0.813104 0.367221 0.310631 0.146153
H10   H     H_    0.686456 0.627550 0.686015 0.148039
H11   H     H_    0.186941 0.632787 0.810624 0.146170
H12   H     H_    0.313539 0.372450 0.186024 0.147998
H13   H     H_    0.313015 0.132794 0.189390 0.147110
H14   H     H_    0.186417 0.872444 0.813968 0.148588
H15   H     H_    0.686909 0.867224 0.689384 0.146469
H16   H     H_    0.813595 0.127558 0.313958 0.149031
C81   C     C_R   0.067716 0.336180 0.332735 -0.104895
C82   C     C_R   0.931762 0.664251 0.666822 -0.107546
C83   C     C_R   0.932298 0.663813 0.832730 -0.105100
C84   C     C_R   0.068246 0.335751 0.166823 -0.107524
C85   C     C_R   0.567685 0.163803 0.167277 -0.105716
C86   C     C_R   0.431747 0.835759 0.833172 -0.108044
C87   C     C_R   0.432290 0.836192 0.667273 -0.105199
C88   C     C_R   0.568269 0.164240 0.333171 -0.107816
C89   C     C_R   0.203445 0.336240 0.362418 -0.274932
C90   C     C_R   0.074589 0.667429 0.638605 -0.266915
C91   C     C_R   0.796565 0.663742 0.862412 -0.274152
C92   C     C_R   0.925438 0.332572 0.138601 -0.266975
C93   C     C_R   0.703409 0.163718 0.137593 -0.273774
C94   C     C_R   0.574558 0.832592 0.861394 -0.266834
C95   C     C_R   0.296557 0.836265 0.637590 -0.274028
C96   C     C_R   0.425490 0.167406 0.361398 -0.267652
H17   H     H_    0.316577 0.312458 0.362842 0.143462
H18   H     H_    0.177404 0.693412 0.639468 0.145631
H19   H     H_    0.683408 0.687517 0.862837 0.143882
H20   H     H_    0.822624 0.306589 0.139461 0.145613
H21   H     H_    0.816580 0.187490 0.137162 0.143827
H22   H     H_    0.677392 0.806613 0.860538 0.145630
H23   H     H_    0.183418 0.812485 0.637160 0.143869
H24   H     H_    0.322661 0.193387 0.360548 0.145207
C97   C     C_R   0.190128 0.365935 0.392542 0.526940
C98   C     C_R   0.083253 0.637831 0.608433 0.523844
C99   C     C_R   0.809915 0.634044 0.892534 0.527441
C100  C     C_R   0.916804 0.362170 0.108428 0.523905
C101  C     C_R   0.690021 0.134014 0.107476 0.527821
C102  C     C_R   0.583162 0.862194 0.891564 0.524076
C103  C     C_R   0.309882 0.865970 0.607474 0.527415
C104  C     C_R   0.416931 0.137805 0.391571 0.522292
C105  C     C_R   0.038946 0.396014 0.393074 0.276672
C106  C     C_R   0.947134 0.604503 0.606199 0.272827
C107  C     C_R   0.961147 0.603976 0.893068 0.276227
C108  C     C_R   0.052929 0.395497 0.106200 0.273003
C109  C     C_R   0.538764 0.103950 0.106951 0.274561
C110  C     C_R   0.447006 0.895516 0.893789 0.271537
C111  C     C_R   0.461077 0.896047 0.606948 0.276106
C112  C     C_R   0.553089 0.104482 0.393788 0.272616
C113  C     C_2   0.969789 0.439290 0.600520 0.925800
O37   O     O_2   0.104075 0.419658 0.614656 -0.518143
O38   O     O_R   0.801018 0.445983 0.621337 -0.621081
H25   H     H_    0.807523 0.433193 0.647879 0.332539
C114  C     C_2   0.955830 0.560068 0.398551 0.918094
O39   O     O_2   0.077176 0.584350 0.385620 -0.517578
O40   O     O_R   0.799535 0.547410 0.376166 -0.625348
H26   H     H_    0.802993 0.560363 0.349665 0.330235
C115  C     C_2   0.029237 0.560702 0.100527 0.924569
O41   O     O_2   0.894687 0.580282 0.114620 -0.519266
O42   O     O_R   0.197885 0.554070 0.121400 -0.621290
H27   H     H_    0.191060 0.566853 0.147941 0.331695
C116  C     C_2   0.046585 0.440002 0.898542 0.918293
O43   O     O_2   0.926172 0.415536 0.885546 -0.516931
O44   O     O_R   0.202727 0.452918 0.876232 -0.625498
H28   H     H_    0.199979 0.439974 0.849725 0.330712
C117  C     C_2   0.470478 0.060933 0.899578 0.925158
O45   O     O_2   0.322400 0.055929 0.881301 -0.504167
O46   O     O_R   0.625746 0.082998 0.883686 -0.632323
H29   H     H_    0.598685 0.093111 0.856738 0.331367
C118  C     C_2   0.453722 0.939729 0.101363 0.917799
O47   O     O_2   0.316028 0.950207 0.120942 -0.508203
O48   O     O_R   0.593271 0.912057 0.115945 -0.631078
H30   H     H_    0.564969 0.903006 0.143142 0.329531
C119  C     C_2   0.529913 0.939084 0.399599 0.925097
O49   O     O_2   0.678019 0.944119 0.381338 -0.504284
O50   O     O_R   0.374785 0.916984 0.383692 -0.632474
H31   H     H_    0.401965 0.906875 0.356748 0.330895
C120  C     C_2   0.543152 0.060155 0.601474 0.925795
O51   O     O_2   0.420877 0.084317 0.614236 -0.515102
O52   O     O_R   0.699051 0.047688 0.624053 -0.624994
H32   H     H_    0.694462 0.060649 0.650544 0.332091
C121  C     C_2   0.022927 0.380321 0.539917 0.935897
O53   O     O_2   0.894437 0.360736 0.556079 -0.516635
O54   O     O_R   0.194856 0.359801 0.530384 -0.605883
H33   H     H_    0.195546 0.328615 0.538168 0.339458
C122  C     C_2   0.955727 0.619916 0.459155 0.937335
O55   O     O_2   0.091953 0.642627 0.467826 -0.487309
O56   O     O_R   0.798029 0.637060 0.439755 -0.632921
H34   H     H_    0.812719 0.668774 0.434698 0.334835
C123  C     C_2   0.976099 0.619657 0.039911 0.934913
O57   O     O_2   0.104245 0.639291 0.056133 -0.517957
O58   O     O_R   0.804120 0.640112 0.030300 -0.605462
H35   H     H_    0.803093 0.671296 0.038086 0.340938
C124  C     C_2   0.046755 0.380120 0.959122 0.937845
O59   O     O_2   0.910529 0.357304 0.967570 -0.486963
O60   O     O_R   0.205459 0.363111 0.939953 -0.632717
H36   H     H_    0.191446 0.331389 0.934856 0.335314
C125  C     C_2   0.525989 0.119605 0.960117 0.930065
O61   O     O_2   0.399231 0.139452 0.943673 -0.518165
O62   O     O_R   0.698267 0.139772 0.969999 -0.604896
H37   H     H_    0.700735 0.170943 0.962184 0.341063
C126  C     C_2   0.456096 0.880072 0.040835 0.931805
O63   O     O_2   0.592689 0.857525 0.032051 -0.487098
O64   O     O_R   0.299196 0.862730 0.060349 -0.633356
H38   H     H_    0.314802 0.831036 0.065400 0.333155
C127  C     C_2   0.474379 0.880410 0.460131 0.929669
O65   O     O_2   0.601259 0.860579 0.443710 -0.518611
O66   O     O_R   0.302111 0.860222 0.469985 -0.604965
H39   H     H_    0.299756 0.829050 0.462170 0.340778
C128  C     C_2   0.545787 0.120004 0.540667 0.937470
O67   O     O_2   0.682934 0.135221 0.557751 -0.516262
O68   O     O_R   0.390884 0.145866 0.530070 -0.603895
H40   H     H_    0.409380 0.176750 0.537950 0.339203
O69   O     O_3   0.315844 0.363713 0.423012 -0.520594
C129  C     C_3   0.494179 0.380758 0.411742 -0.168293
H41   H     H_    0.478781 0.413885 0.400528 0.124380
H42   H     H_    0.565027 0.359776 0.390373 0.129891
H43   H     H_    0.589169 0.382331 0.437104 0.203568
O70   O     O_3   0.217395 0.643012 0.579748 -0.520041
C130  C     C_3   0.393358 0.625800 0.592238 -0.171241
H44   H     H_    0.378927 0.591326 0.599563 0.127089
H45   H     H_    0.451022 0.644097 0.616915 0.125685
H46   H     H_    0.499275 0.628332 0.568692 0.209764
O71   O     O_3   0.684192 0.636257 0.923003 -0.519970
C131  C     C_3   0.505857 0.619216 0.911729 -0.166580
H47   H     H_    0.521255 0.586093 0.900506 0.123818
H48   H     H_    0.435012 0.640205 0.890365 0.129802
H49   H     H_    0.410863 0.617635 0.937090 0.203561
O72   O     O_3   0.782697 0.356992 0.079736 -0.520084
C132  C     C_3   0.606700 0.374189 0.092223 -0.171307
H50   H     H_    0.621089 0.408661 0.099562 0.127080
H51   H     H_    0.549014 0.355878 0.116890 0.125729
H52   H     H_    0.500819 0.371665 0.068670 0.209807
O73   O     O_3   0.815709 0.136222 0.077001 -0.519905
C133  C     C_3   0.994057 0.119183 0.088268 -0.166078
H53   H     H_    0.978672 0.086057 0.099487 0.124245
H54   H     H_    0.064909 0.140169 0.109633 0.129492
H55   H     H_    0.089036 0.117608 0.062905 0.203426
O74   O     O_3   0.717257 0.857021 0.920259 -0.519963
C134  C     C_3   0.893249 0.874223 0.907776 -0.170931
H56   H     H_    0.878844 0.908694 0.900438 0.127135
H57   H     H_    0.950954 0.855913 0.883110 0.125511
H58   H     H_    0.999121 0.871700 0.931331 0.209711
O75   O     O_3   0.184170 0.863758 0.577003 -0.519946
C135  C     C_3   0.005833 0.880799 0.588275 -0.166197
H59   H     H_    0.021229 0.913922 0.599499 0.123832
H60   H     H_    0.934980 0.859810 0.609638 0.129693
H61   H     H_    0.910849 0.882381 0.562913 0.203620
O76   O     O_3   0.282925 0.142989 0.420281 -0.522025
C136  C     C_3   0.106892 0.125782 0.407825 -0.173504
H62   H     H_    0.121271 0.091308 0.400494 0.128436
H63   H     H_    0.049105 0.144083 0.383161 0.125922
H64   H     H_    0.001101 0.128313 0.431393 0.209872

loop_
_geom_bond_atom_site_label_1
_geom_bond_atom_site_label_2
_ccdc_geom_bond_type
O17   V3    S    
C65   C105  A    
O46   H29   S    
C130  H45   S    
O18   V4    S    
O12   V1    S    
O19   V1    S    
C96   C104  A    
C117  O45   D    
C37   C45   A    
O64   H38   S    
C10   N2    A    
C135  H61   S    
O52   H32   S    
C69   C77   A    
C11   N3    A    
C102  C110  A    
C56   C64   A    
C33   C41   A    
O15   V4    S    
C67   C75   A    
C120  O51   D    
O16   V3    S    
C115  O41   D    
C30   C54   A    
O11   C3    A    
O69   C129  S    
O70   C130  S    
C65   C73   A    
O12   C4    A    
C98   C106  A    
O8    V1    S    
C101  O73   S    
N6    C109  S    
O2    V4    S    
O76   C136  S    
C134  H57   S    
C57   C121  S    
C103  O75   S    
C41   C58   A    
C127  O65   D    
C136  H64   S    
C8    C81   S    
C26   C50   A    
C80   H16   S    
C54   C118  S    
C69   C109  A    
C88   C96   A    
C113  O38   S    
C38   C46   A    
C100  C108  A    
N2    C105  S    
C97   O69   S    
O66   H39   S    
C34   C42   A    
C126  O64   S    
C85   C93   A    
C45   C62   A    
O1    V3    S    
C3    C86   S    
C17   C25   A    
C4    C85   S    
C22   O34   S    
O3    C2    A    
C16   N8    A    
O74   C134  S    
C97   C105  A    
C114  O40   S    
N7    C23   A    
C30   C38   A    
C20   C28   A    
C27   C35   A    
C21   C29   A    
C26   C34   A    
C86   C94   A    
C134  H56   S    
O11   V2    S    
C95   H23   S    
O72   C132  S    
C115  O42   S    
C23   C31   A    
O75   C135  S    
C24   C32   A    
C75   C83   A    
C18   O30   S    
C54   C62   A    
C132  H50   S    
C102  O74   S    
C121  O54   S    
C73   C81   A    
C70   C78   A    
C53   C117  S    
O71   C131  S    
O38   H25   S    
C37   C38   A    
C49   C57   A    
N4    C20   A    
C129  H43   S    
O15   C7    A    
C130  H46   S    
N5    C21   A    
O44   H28   S    
O16   C8    A    
O7    V2    S    
C95   C103  A    
O73   C133  S    
C59   C123  S    
C117  O46   S    
C133  H55   S    
C99   C107  A    
C135  H60   S    
O3    V4    S    
C53   C61   A    
C131  H49   S    
C11   O23   S    
N4    C107  S    
N1    C17   A    
C80   C88   A    
C124  O59   D    
O13   V3    S    
N5    C110  S    
C119  O49   D    
C19   C27   A    
O5    V1    S    
C120  O52   S    
O17   V1    S    
C123  O58   S    
C7    C82   S    
N3    C108  S    
C67   H3    S    
C56   C120  S    
C98   O70   S    
O19   V3    S    
O48   H30   S    
C76   C84   A    
C5    C84   S    
N1    C106  S    
O20   V4    S    
C134  H58   S    
C77   C85   A    
C135  H59   S    
O56   H34   S    
C131  H48   S    
C93   H21   S    
O54   H33   S    
C49   C113  S    
C104  C112  A    
C136  H63   S    
C17   O29   S    
C14   C46   A    
C61   C125  S    
C121  O53   D    
C118  O47   D    
C15   N7    A    
C13   C45   A    
C92   C100  A    
C71   C79   A    
C39   C47   A    
C40   C48   A    
C21   O33   S    
C55   C63   A    
C72   C80   A    
C87   C95   A    
C44   C59   A    
C100  O72   S    
C35   C36   A    
O50   H31   S    
C136  H62   S    
C27   C51   A    
C126  O63   D    
C78   H14   S    
C122  O55   D    
C132  H51   S    
O10   V2    S    
C62   C126  S    
O58   H35   S    
C68   C76   A    
C124  O60   S    
C73   H9    S    
O62   H37   S    
C11   C43   A    
N6    C22   A    
C16   C48   A    
O8    C5    A    
C18   C26   A    
O13   C5    A    
C114  O39   D    
C12   O24   S    
C71   C111  A    
C36   C44   A    
O9    C1    A    
C48   C63   A    
C52   C60   A    
C125  O62   S    
C28   C36   A    
C31   C39   A    
C29   C53   A    
C43   C60   A    
C58   C122  S    
O4    C1    A    
C9    C41   A    
O6    V2    S    
N2    C18   A    
O18   V2    S    
C128  O68   S    
C50   C114  S    
C82   C90   A    
C133  H54   S    
C12   N4    A    
C1    C88   S    
C35   C43   A    
C13   N5    A    
C2    C87   S    
C74   H10   S    
C93   C101  A    
C64   C128  S    
C83   C91   A    
C42   C57   A    
C99   O71   S    
C103  C111  A    
C23   O35   S    
C125  O61   D    
C70   C110  A    
C29   C37   A    
O40   H26   S    
N8    C24   A    
C68   C108  A    
C119  O50   S    
O1    C4    A    
C32   C56   A    
C68   H4    S    
C78   C86   A    
C31   C55   A    
O2    C3    A    
C90   H18   S    
C66   C106  A    
O14   V4    S    
C131  H47   S    
C94   C102  A    
N8    C111  S    
O68   H40   S    
C72   H8    S    
C15   O27   S    
O9    V1    S    
C52   C116  S    
C76   H12   S    
O7    C6    A    
C70   H6    S    
C66   C74   A    
C77   H13   S    
C50   C58   A    
C122  O56   S    
C91   H19   S    
C39   C40   A    
O14   C6    A    
C116  O44   S    
C16   O28   S    
C129  H41   S    
C9    N1    A    
C47   C64   A    
C14   O26   S    
C46   C61   A    
C74   C82   A    
C13   O25   S    
C28   C52   A    
C90   C98   A    
N3    C19   A    
C113  O37   D    
C55   C119  S    
O5    C8    A    
C69   H5    S    
C60   C124  S    
O10   C2    A    
C79   C87   A    
O6    C7    A    
N7    C112  S    
C79   H15   S    
C10   O22   S    
C81   C89   A    
O20   V2    S    
C25   C49   A    
C32   C40   A    
C51   C59   A    
C104  O76   S    
C116  O43   D    
C132  H52   S    
C96   H24   S    
C92   H20   S    
C14   N6    A    
O4    V3    S    
C75   H11   S    
C63   C127  S    
C101  C109  A    
O42   H27   S    
C66   H2    S    
C94   H22   S    
C91   C99   A    
C12   C44   A    
C65   H1    S    
C6    C83   S    
C20   O32   S    
C19   O31   S    
C33   C34   A    
C89   C97   A    
O60   H36   S    
C72   C112  A    
C133  H53   S    
C22   C30   A    
C10   C42   A    
C84   C92   A    
C9    O21   S    
C127  O66   S    
C128  O67   D    
C118  O48   S    
C129  H42   S    
C24   O36   S    
C89   H17   S    
C67   C107  A    
C130  H44   S    
C25   C33   A    
C15   C47   A    
C51   C115  S    
C123  O57   D    
C71   H7    S    
