data_mof_unit_57666.cif
_audit_creation_date              2012-12-11T16:28:14-0500
_audit_creation_method            fapswitch 2.2
_symmetry_space_group_name_H-M    P1
_symmetry_Int_Tables_number       1
_space_group_crystal_system       triclinic
_cell_length_a                    30.25645
_cell_length_b                    22.540803
_cell_length_c                    18.123687
_cell_angle_alpha                 90.038788
_cell_angle_beta                  123.139118
_cell_angle_gamma                 89.972743
_cell_volume                      10349.9579864

loop_
_atom_site_label
_atom_site_type_symbol
_atom_type_description
_atom_site_fract_x
_atom_site_fract_y
_atom_site_fract_z
_atom_type_partial_charge
C1    C     C_R   0.531391 0.608418 0.704627 -0.135001
C2    C     C_R   0.464141 0.401864 0.277924 -0.159465
C3    C     C_R   0.468555 0.608517 0.295537 -0.152840
C4    C     C_R   0.537563 0.399834 0.721947 -0.162363
C5    C     C_R   0.035758 0.104056 0.715751 -0.150805
C6    C     C_R   0.958988 0.910845 0.265397 -0.172610
C7    C     C_R   0.962232 0.093849 0.272196 -0.157183
C8    C     C_R   0.041226 0.911325 0.735074 -0.173614
C9    C     C_R   0.302317 0.600279 0.568619 -0.167170
C10   C     C_R   0.682461 0.365672 0.415832 -0.176337
C11   C     C_R   0.697942 0.599395 0.431131 -0.159836
C12   C     C_R   0.380481 0.263860 0.543189 -0.166291
C13   C     C_R   0.856014 0.208607 0.576030 -0.175235
C14   C     C_R   0.112435 0.763992 0.430823 -0.168743
C15   C     C_R   0.189931 0.105248 0.416862 -0.167295
C16   C     C_R   0.887786 0.763605 0.568671 -0.167098
C17   C     C_R   0.258474 0.621044 0.567123 -0.183026
C18   C     C_R   0.725036 0.343150 0.415756 -0.162611
C19   C     C_R   0.741564 0.620641 0.432316 -0.179857
C20   C     C_R   0.356450 0.209981 0.537142 -0.189104
C21   C     C_R   0.834368 0.262645 0.576649 -0.171418
C22   C     C_R   0.135650 0.710523 0.431500 -0.185859
C23   C     C_R   0.230684 0.129603 0.412828 -0.183877
C24   C     C_R   0.864460 0.710197 0.567954 -0.184194
C25   C     C_R   0.219588 0.654143 0.494817 0.116534
C26   C     C_R   0.775869 0.345986 0.492482 0.120885
C27   C     C_R   0.780614 0.653456 0.504915 0.115232
C28   C     C_R   0.301897 0.204017 0.478220 0.117867
C29   C     C_R   0.814178 0.301134 0.504310 0.110936
C30   C     C_R   0.185518 0.695121 0.504801 0.118192
C31   C     C_R   0.273660 0.155670 0.488051 0.111659
C32   C     C_R   0.814338 0.695073 0.494999 0.117710
C33   C     C_R   0.408034 0.702536 0.232331 0.023906
C34   C     C_R   0.602302 0.310808 0.801528 0.014392
C35   C     C_R   0.592005 0.702353 0.767631 0.077758
C36   C     C_R   0.395295 0.329958 0.170321 0.045802
C37   C     C_R   0.890357 0.157360 0.152698 0.041801
C38   C     C_R   0.115959 0.850870 0.858382 0.040773
C39   C     C_R   0.099321 0.192448 0.788988 0.018666
C40   C     C_R   0.885049 0.848647 0.144130 0.041049
C41   C     C_R   0.419078 0.802300 0.192867 -0.233811
C42   C     C_R   0.593222 0.212226 0.847420 -0.229444
C43   C     C_R   0.582107 0.804782 0.799951 -0.297911
C44   C     C_R   0.398476 0.240565 0.099325 -0.265171
C45   C     C_R   0.893744 0.231541 0.059073 -0.257333
C46   C     C_R   0.113899 0.778323 0.955123 -0.258111
C47   C     C_R   0.094809 0.297953 0.810736 -0.234148
C48   C     C_R   0.887676 0.771837 0.052969 -0.258910
C49   C     C_R   0.442207 0.748740 0.239391 0.219083
C50   C     C_R   0.570190 0.267424 0.807940 0.225745
C51   C     C_R   0.558543 0.750795 0.755996 0.232894
C52   C     C_R   0.423434 0.279297 0.171315 0.230795
C53   C     C_R   0.918736 0.202199 0.140330 0.228240
C54   C     C_R   0.088243 0.806513 0.873152 0.237993
C55   C     C_R   0.068411 0.244510 0.768661 0.214873
C56   C     C_R   0.912892 0.802420 0.133031 0.238817
C57   C     C_R   0.353880 0.713497 0.187082 -0.290288
C58   C     C_R   0.655497 0.298218 0.837822 -0.286374
C59   C     C_R   0.646516 0.711176 0.816787 -0.320020
C60   C     C_R   0.343665 0.340054 0.099706 -0.298554
C61   C     C_R   0.837696 0.146081 0.086884 -0.292556
C62   C     C_R   0.169597 0.861061 0.921962 -0.293603
C63   C     C_R   0.153675 0.194902 0.846916 -0.291463
C64   C     C_R   0.831789 0.859005 0.078774 -0.294487
C65   C     C_R   0.332372 0.768924 0.152869 0.089279
C66   C     C_R   0.676696 0.242181 0.869098 0.089629
C67   C     C_R   0.669000 0.766599 0.848857 0.090062
C68   C     C_R   0.316988 0.298556 0.032104 0.084542
C69   C     C_R   0.810661 0.181425 0.011480 0.082429
C70   C     C_R   0.197247 0.826324 0.998489 0.082702
C71   C     C_R   0.179901 0.248678 0.875899 0.090011
C72   C     C_R   0.804513 0.822543 0.004031 0.084429
C73   C     C_R   0.364382 0.812010 0.148637 0.131391
C74   C     C_R   0.645868 0.199649 0.877881 0.128181
C75   C     C_R   0.637158 0.812447 0.847527 0.163548
C76   C     C_R   0.345258 0.248144 0.032716 0.153529
C77   C     C_R   0.839731 0.224027 0.997355 0.149002
C78   C     C_R   0.168097 0.785332 0.015087 0.150065
C79   C     C_R   0.150267 0.300233 0.863381 0.133144
C80   C     C_R   0.833711 0.779048 0.991397 0.150230
C81   C     C_R   0.278241 0.779772 0.115396 0.083797
C82   C     C_R   0.729749 0.229853 0.899541 0.082479
C83   C     C_R   0.723542 0.775398 0.888248 0.083140
C84   C     C_R   0.261762 0.302452 0.969788 0.078470
C85   C     C_R   0.754784 0.181123 0.956471 0.081025
C86   C     C_R   0.253373 0.826675 0.054370 0.078719
C87   C     C_R   0.235252 0.251380 0.920090 0.083248
C88   C     C_R   0.748530 0.823769 0.946319 0.077901
C89   C     C_R   0.644667 0.580278 0.572928 -0.142883
C90   C     C_R   0.366108 0.399199 0.425422 -0.120003
C91   C     C_R   0.355524 0.580860 0.427147 -0.146547
C92   C     C_R   0.644718 0.419832 0.571270 -0.129985
C93   C     C_R   0.144854 0.079493 0.571753 -0.137106
C94   C     C_R   0.871324 0.893802 0.426017 -0.122611
C95   C     C_R   0.869131 0.104486 0.426928 -0.129337
C96   C     C_R   0.128739 0.893887 0.573999 -0.122372
C97   C     C_R   0.759134 0.266286 0.878113 -0.219790
C98   C     C_R   0.248347 0.744284 0.136676 -0.221833
C99   C     C_R   0.231650 0.353969 0.957985 -0.213650
C100  C     C_R   0.753619 0.736792 0.871129 -0.218399
C101  C     C_R   0.285805 0.869481 0.049019 -0.212271
C102  C     C_R   0.722968 0.137406 0.961524 -0.212896
C103  C     C_R   0.716289 0.869222 0.946735 -0.218176
C104  C     C_R   0.264729 0.204507 0.915548 -0.221532
C105  C     C_R   0.813693 0.262462 0.925685 -0.214485
C106  C     C_R   0.193893 0.748032 0.088079 -0.214580
C107  C     C_R   0.176657 0.353112 0.903316 -0.214004
C108  C     C_R   0.808107 0.739647 0.920926 -0.215372
C109  C     C_R   0.340807 0.863247 0.098501 -0.213317
C110  C     C_R   0.668837 0.146055 0.920464 -0.213662
C111  C     C_R   0.661165 0.864526 0.894880 -0.212514
C112  C     C_R   0.319230 0.203652 0.970143 -0.213961
C113  C     C_R   0.596038 0.581082 0.426692 -0.140369
C114  C     C_R   0.416471 0.395948 0.572407 -0.141298
C115  C     C_R   0.404236 0.581742 0.573428 -0.127092
C116  C     C_R   0.594646 0.418712 0.424838 -0.137848
C117  C     C_R   0.094986 0.081155 0.425327 -0.129733
C118  C     C_R   0.921567 0.891838 0.573146 -0.126290
C119  C     C_R   0.916788 0.103039 0.573844 -0.133815
C120  C     C_R   0.078621 0.891963 0.426855 -0.127480
C121  C     C_R   0.395894 0.610532 0.299610 -0.120377
C122  C     C_R   0.608645 0.394846 0.713636 -0.116655
C123  C     C_R   0.603918 0.610664 0.700142 -0.138833
C124  C     C_R   0.389274 0.399389 0.275496 -0.128697
C125  C     C_R   0.887473 0.096624 0.269811 -0.135934
C126  C     C_R   0.114810 0.908046 0.734979 -0.125942
C127  C     C_R   0.107173 0.107308 0.708107 -0.125577
C128  C     C_R   0.885332 0.907670 0.265324 -0.126440
C129  C     C_R   0.575036 0.643130 0.725400 0.071112
C130  C     C_R   0.416754 0.372656 0.242451 0.076646
C131  C     C_R   0.424694 0.643091 0.274333 0.062638
C132  C     C_R   0.583219 0.366872 0.749610 0.071711
C133  C     C_R   0.080279 0.137045 0.739019 0.060612
C134  C     C_R   0.909472 0.885498 0.223984 0.076799
C135  C     C_R   0.913603 0.120870 0.232422 0.073352
C136  C     C_R   0.090915 0.886243 0.776935 0.076314
C137  C     C_R   0.645543 0.594761 0.500029 0.045768
C138  C     C_R   0.375307 0.368207 0.497665 0.031122
C139  C     C_R   0.354895 0.595895 0.500135 0.040999
C140  C     C_R   0.644514 0.405906 0.496582 0.041849
C141  C     C_R   0.145122 0.093286 0.497630 0.042172
C142  C     C_R   0.883364 0.860620 0.498901 0.033044
C143  C     C_R   0.878725 0.134492 0.501028 0.034298
C144  C     C_R   0.116777 0.860748 0.501098 0.034114
C145  C     C_R   0.222237 0.660507 0.420366 -0.165241
C146  C     C_R   0.784573 0.378828 0.564997 -0.184203
C147  C     C_R   0.778467 0.658802 0.579973 -0.164918
C148  C     C_R   0.272090 0.251280 0.422638 -0.160091
C149  C     C_R   0.819887 0.287013 0.434622 -0.191393
C150  C     C_R   0.208745 0.730326 0.580908 -0.163571
C151  C     C_R   0.279344 0.149669 0.569682 -0.163210
C152  C     C_R   0.790749 0.730745 0.419377 -0.163608
C153  C     C_R   0.265728 0.639745 0.421770 -0.174715
C154  C     C_R   0.741863 0.401615 0.565018 -0.160688
C155  C     C_R   0.735176 0.637614 0.578847 -0.175275
C156  C     C_R   0.296088 0.305186 0.429808 -0.177034
C157  C     C_R   0.841478 0.232731 0.433908 -0.165278
C158  C     C_R   0.185438 0.783347 0.580397 -0.166764
C159  C     C_R   0.238476 0.125892 0.573696 -0.170730
C160  C     C_R   0.814110 0.783739 0.419969 -0.166734
C161  C     C_R   0.307114 0.611794 0.497261 0.143055
C162  C     C_R   0.690295 0.391907 0.492258 0.142669
C163  C     C_R   0.693477 0.610230 0.503010 0.141219
C164  C     C_R   0.350070 0.312194 0.492290 0.142579
C165  C     C_R   0.857860 0.192397 0.503181 0.143959
C166  C     C_R   0.138329 0.801933 0.503948 0.147179
C167  C     C_R   0.192021 0.107003 0.496244 0.143067
C168  C     C_R   0.861648 0.801882 0.496012 0.146151
H1    H     H_    0.501204 0.618355 0.716916 0.099012
H2    H     H_    0.492514 0.397090 0.259670 0.092112
H3    H     H_    0.499090 0.619120 0.284223 0.094051
H4    H     H_    0.511718 0.396240 0.745094 0.087326
H5    H     H_    0.010215 0.111546 0.738856 0.089496
H6    H     H_    0.984906 0.911027 0.241666 0.094418
H7    H     H_    0.989806 0.095738 0.251887 0.092262
H8    H     H_    0.015420 0.912020 0.759028 0.095243
H9    H     H_    0.681195 0.333744 0.844119 0.132158
H10   H     H_    0.327467 0.677126 0.174720 0.133824
H11   H     H_    0.323750 0.378865 0.102376 0.132965
H12   H     H_    0.672148 0.673362 0.832292 0.137564
H13   H     H_    0.189802 0.894008 0.907948 0.129580
H14   H     H_    0.817445 0.111966 0.098811 0.130748
H15   H     H_    0.811485 0.893388 0.090332 0.129849
H16   H     H_    0.175526 0.153652 0.866006 0.137361
H17   H     H_    0.443201 0.836800 0.190812 0.141824
H18   H     H_    0.570873 0.178588 0.855805 0.144272
H19   H     H_    0.557535 0.841334 0.795770 0.127225
H20   H     H_    0.419481 0.201689 0.098877 0.133746
H21   H     H_    0.915283 0.264681 0.047535 0.133924
H22   H     H_    0.092532 0.746226 0.968689 0.133379
H23   H     H_    0.072972 0.338393 0.800792 0.142580
H24   H     H_    0.909106 0.737928 0.042393 0.133520
H25   H     H_    0.740517 0.298927 0.826000 0.128613
H26   H     H_    0.266717 0.712930 0.190632 0.127870
H27   H     H_    0.249655 0.395940 0.988000 0.129288
H28   H     H_    0.735366 0.703881 0.819264 0.127711
H29   H     H_    0.269764 0.908757 0.008834 0.127289
H30   H     H_    0.738903 0.096170 0.996475 0.126015
H31   H     H_    0.732664 0.909445 0.984470 0.128059
H32   H     H_    0.246228 0.168094 0.869704 0.125739
H33   H     H_    0.678679 0.575297 0.639497 0.085849
H34   H     H_    0.335056 0.391276 0.357735 0.090882
H35   H     H_    0.321416 0.576066 0.360621 0.088992
H36   H     H_    0.678900 0.423180 0.637876 0.081683
H37   H     H_    0.179001 0.074388 0.638083 0.084844
H38   H     H_    0.842851 0.883226 0.358088 0.090738
H39   H     H_    0.839660 0.115296 0.359391 0.092580
H40   H     H_    0.157140 0.883342 0.641951 0.090098
H41   H     H_    0.585510 0.578466 0.359386 0.086257
H42   H     H_    0.430545 0.384678 0.639472 0.095568
H43   H     H_    0.414762 0.579364 0.640743 0.083961
H44   H     H_    0.583425 0.422645 0.357275 0.085620
H45   H     H_    0.082937 0.078994 0.357262 0.083249
H46   H     H_    0.938694 0.879293 0.640879 0.087136
H47   H     H_    0.929757 0.111532 0.641066 0.085328
H48   H     H_    0.061670 0.879499 0.359140 0.086001
H49   H     H_    0.360587 0.624211 0.295921 0.095388
H50   H     H_    0.645137 0.382493 0.720315 0.092306
H51   H     H_    0.639317 0.624504 0.704196 0.101094
H52   H     H_    0.348434 0.392164 0.252343 0.092013
H53   H     H_    0.846213 0.101614 0.245640 0.087869
H54   H     H_    0.156180 0.905165 0.758907 0.084789
H55   H     H_    0.143964 0.119905 0.715908 0.100107
H56   H     H_    0.843954 0.904517 0.241268 0.085633
H57   H     H_    0.193431 0.686669 0.364250 0.115732
H58   H     H_    0.823762 0.382055 0.624355 0.114544
H59   H     H_    0.807452 0.684614 0.636415 0.116122
H60   H     H_    0.229639 0.247847 0.378015 0.119966
H61   H     H_    0.804572 0.316279 0.378365 0.119590
H62   H     H_    0.247535 0.720149 0.637987 0.115434
H63   H     H_    0.312259 0.169968 0.628395 0.118921
H64   H     H_    0.751751 0.720839 0.362638 0.115979
H65   H     H_    0.268346 0.649127 0.365688 0.108098
H66   H     H_    0.749251 0.423920 0.623583 0.106551
H67   H     H_    0.732906 0.646441 0.635414 0.108811
H68   H     H_    0.272285 0.341872 0.388499 0.113968
H69   H     H_    0.844330 0.221901 0.378436 0.117806
H70   H     H_    0.206434 0.811228 0.638223 0.107735
H71   H     H_    0.241828 0.127142 0.636212 0.108397
H72   H     H_    0.792911 0.811931 0.362558 0.108201
H73   H     H_    0.332979 0.577083 0.626492 0.109199
H74   H     H_    0.643219 0.358103 0.358392 0.108332
H75   H     H_    0.667099 0.576565 0.372992 0.108360
H76   H     H_    0.422631 0.267645 0.586572 0.131777
H77   H     H_    0.868844 0.178516 0.630638 0.112679
H78   H     H_    0.075388 0.776514 0.372052 0.117203
H79   H     H_    0.155700 0.088808 0.356540 0.107444
H80   H     H_    0.925205 0.775774 0.627051 0.117113
H81   H     H_    0.829494 0.271977 0.630439 0.121757
H82   H     H_    0.116743 0.683575 0.372381 0.114840
H83   H     H_    0.226176 0.133686 0.349477 0.118882
H84   H     H_    0.883640 0.682927 0.626709 0.113758
H85   H     H_    0.256826 0.615127 0.624881 0.115594
H86   H     H_    0.717221 0.317609 0.359167 0.116801
H87   H     H_    0.742861 0.615399 0.374115 0.115049
H88   H     H_    0.379831 0.173818 0.580411 0.122486
H89   H     H_    0.835513 0.293406 0.911477 0.126832
H90   H     H_    0.171909 0.718229 0.103493 0.126075
H91   H     H_    0.154769 0.393477 0.894308 0.129162
H92   H     H_    0.830169 0.707734 0.908585 0.126281
H93   H     H_    0.364631 0.897173 0.094105 0.127897
H94   H     H_    0.645576 0.112211 0.926539 0.126460
H95   H     H_    0.637474 0.900530 0.895040 0.129040
H96   H     H_    0.340610 0.165966 0.967516 0.127076
N1    N     N_R   0.532910 0.558440 0.665240 -0.041789
N2    N     N_R   0.467090 0.441560 0.334760 -0.035972
N3    N     N_R   0.467090 0.558440 0.334760 -0.037649
N4    N     N_R   0.532910 0.441560 0.665240 -0.035507
N5    N     N_R   0.032910 0.058440 0.665240 -0.035476
N6    N     N_R   0.967090 0.941560 0.334760 -0.033441
N7    N     N_R   0.967090 0.058440 0.334760 -0.034907
N8    N     N_R   0.032910 0.941560 0.665240 -0.033713
N9    N     N_R   0.597030 0.558910 0.545540 -0.035312
N10   N     N_R   0.402970 0.441090 0.454460 -0.037005
N11   N     N_R   0.402970 0.558910 0.454460 -0.037091
N12   N     N_R   0.597030 0.441090 0.545540 -0.036496
N13   N     N_R   0.097030 0.058910 0.545540 -0.038321
N14   N     N_R   0.902970 0.941090 0.454460 -0.040358
N15   N     N_R   0.902970 0.058910 0.454460 -0.039035
N16   N     N_R   0.097030 0.941090 0.545540 -0.039107
N17   N     N_R   0.566200 0.559270 0.454460 -0.036393
N18   N     N_R   0.433800 0.440730 0.545540 -0.035829
N19   N     N_R   0.433800 0.559270 0.545540 -0.037956
N20   N     N_R   0.566200 0.440730 0.454460 -0.035235
N21   N     N_R   0.066200 0.059270 0.454460 -0.038245
N22   N     N_R   0.933800 0.940730 0.545540 -0.039050
N23   N     N_R   0.933800 0.059270 0.545540 -0.037829
N24   N     N_R   0.066200 0.940730 0.454460 -0.037977
N25   N     N_R   0.421050 0.559750 0.334770 -0.042563
N26   N     N_R   0.578950 0.440250 0.665230 -0.041646
N27   N     N_R   0.578950 0.559750 0.665230 -0.042158
N28   N     N_R   0.421050 0.440250 0.334770 -0.040393
N29   N     N_R   0.921050 0.059750 0.334770 -0.038601
N30   N     N_R   0.078950 0.940250 0.665230 -0.038557
N31   N     N_R   0.078950 0.059750 0.665230 -0.041569
N32   N     N_R   0.921050 0.940250 0.334770 -0.038020
Ni1   Ni    Ni4+2 0.483090 0.500000 0.604440 0.210592
Ni2   Ni    Ni4+2 0.516910 0.500000 0.395560 0.209489
Ni3   Ni    Ni4+2 0.983090 1.000000 0.604440 0.215293
Ni4   Ni    Ni4+2 0.016910 0.000000 0.395560 0.211962
Ni5   Ni    Ni4+2 0.586780 0.500000 0.604440 0.208554
Ni6   Ni    Ni4+2 0.413220 0.500000 0.395560 0.210327
Ni7   Ni    Ni4+2 0.086780 1.000000 0.604440 0.209824
Ni8   Ni    Ni4+2 0.913220 0.000000 0.395560 0.213119
C169  C     C_3   0.513157 0.280609 0.775660 -0.368790
C170  C     C_3   0.480256 0.228532 0.774345 -0.955371
H97   H     H_    0.480344 0.191464 0.733998 0.261738
H98   H     H_    0.495391 0.213141 0.842373 0.261306
H99   H     H_    0.438811 0.243237 0.744560 0.259200
H100  H     H_    0.512585 0.315705 0.818133 0.186935
H101  H     H_    0.493342 0.297099 0.707440 0.186160
C171  C     C_3   0.501836 0.740745 0.294736 -0.373146
C172  C     C_3   0.533881 0.798295 0.325447 -0.908770
H102  H     H_    0.531913 0.821112 0.269456 0.251134
H103  H     H_    0.519377 0.828206 0.356541 0.264808
H104  H     H_    0.575968 0.787774 0.374983 0.257089
H105  H     H_    0.513092 0.715972 0.355588 0.203340
H106  H     H_    0.513871 0.714536 0.256636 0.182809
C173  C     C_3   0.477696 0.261921 0.249099 -0.405263
C174  C     C_3   0.474692 0.207030 0.295594 -0.864856
H107  H     H_    0.448005 0.215514 0.318741 0.262946
H108  H     H_    0.460047 0.168082 0.250785 0.251297
H109  H     H_    0.514627 0.196400 0.353562 0.249373
H110  H     H_    0.504081 0.252717 0.225530 0.185704
H111  H     H_    0.496837 0.297072 0.299367 0.201736
C175  C     C_3   0.498879 0.747923 0.697501 -0.394371
C176  C     C_3   0.479182 0.743224 0.600004 -0.848527
H112  H     H_    0.493093 0.781929 0.580158 0.255635
H113  H     H_    0.493149 0.701962 0.585826 0.262392
H114  H     H_    0.435351 0.742890 0.559612 0.248446
H115  H     H_    0.483564 0.711111 0.717554 0.176133
H116  H     H_    0.481191 0.788723 0.705433 0.189035
C177  C     C_3   0.033565 0.784053 0.802633 -0.415908
C178  C     C_3   0.034667 0.718424 0.781919 -0.882425
H117  H     H_    0.063129 0.711222 0.762115 0.266391
H118  H     H_    0.045820 0.690055 0.839612 0.251146
H119  H     H_    0.994899 0.704389 0.726756 0.244827
H120  H     H_    0.006340 0.790398 0.825209 0.184875
H121  H     H_    0.016561 0.807467 0.739370 0.198487
C179  C     C_3   0.973519 0.223328 0.212355 -0.404669
C180  C     C_3   0.972867 0.288074 0.237038 -0.875925
H122  H     H_    0.961893 0.318144 0.181055 0.250973
H123  H     H_    0.944442 0.293908 0.257224 0.262155
H124  H     H_    0.012797 0.300887 0.293126 0.249771
H125  H     H_    0.990447 0.197919 0.274093 0.203866
H126  H     H_    0.000709 0.218461 0.189435 0.186171
C181  C     C_3   0.967119 0.780382 0.205851 -0.419085
C182  C     C_3   0.964954 0.716200 0.231238 -0.877537
H127  H     H_    0.936117 0.712153 0.250828 0.266259
H128  H     H_    0.953653 0.685403 0.175828 0.251138
H129  H     H_    0.004393 0.702570 0.287815 0.246148
H130  H     H_    0.994747 0.783531 0.183610 0.184142
H131  H     H_    0.984142 0.806291 0.267099 0.199167
C183  C     C_3   0.009054 0.242245 0.701260 -0.354232
C184  C     C_3   0.981134 0.302380 0.672655 -0.915378
H132  H     H_    0.981909 0.324225 0.728291 0.252001
H133  H     H_    0.999847 0.331427 0.647728 0.261162
H134  H     H_    0.939290 0.295812 0.618476 0.271807
H135  H     H_    0.001562 0.219808 0.640797 0.203548
H136  H     H_    0.990401 0.215408 0.728475 0.180234

loop_
_geom_bond_atom_site_label_1
_geom_bond_atom_site_label_2
_ccdc_geom_bond_type
C124  H52   S    
N2    Ni2   S    
N6    N32   A    
C119  C143  A    
N10   N18   A    
C125  N29   A    
C128  H56   S    
C177  C178  S    
C3    C131  A    
C127  N31   A    
C121  C131  A    
C1    C129  A    
C57   H10   S    
C96   H40   S    
C6    N6    A    
C169  H100  S    
C99   H27   S    
C62   C70   A    
N3    Ni2   S    
C97   H25   S    
C64   H15   S    
C114  N18   A    
C120  C144  A    
C37   C135  S    
C175  C176  S    
C38   C136  S    
C92   N12   A    
C147  C155  A    
C93   N13   A    
C81   C86   A    
C97   C105  A    
C125  C135  A    
C83   C88   A    
C126  C136  A    
C10   C162  A    
C89   N9    A    
N25   Ni6   S    
N10   Ni6   S    
C41   C49   A    
C100  H28   S    
C43   C75   A    
C153  H65   S    
C96   N16   A    
C174  H109  S    
C179  C180  S    
C6    H6    S    
C145  H57   S    
C153  C161  A    
C23   C31   A    
C24   C32   A    
C36   C130  S    
C96   C144  A    
C184  H132  S    
C146  C154  A    
C43   H19   S    
C154  H66   S    
C170  H97   S    
N24   Ni4   S    
C13   C21   A    
N29   Ni8   S    
C117  H45   S    
N1    Ni1   S    
N8    Ni3   S    
N30   Ni7   S    
C112  H96   S    
C19   H87   S    
C63   C71   A    
C83   C100  A    
C35   C51   A    
C113  C137  A    
C25   C145  A    
C50   C169  S    
C99   C107  A    
C137  C163  S    
C128  N32   A    
N15   Ni8   S    
C75   C111  A    
C56   C181  S    
C124  N28   A    
C150  H62   S    
N17   Ni2   S    
C74   C110  A    
C51   C175  S    
C82   C85   A    
C98   C106  A    
C78   C106  A    
C17   C25   A    
C62   H13   S    
C178  H119  S    
N13   N21   A    
C10   C18   A    
C183  H136  S    
C7    N7    A    
C182  H127  S    
C159  C167  A    
C160  C168  A    
N5    N31   A    
C142  C168  S    
C34   C58   A    
N1    N27   A    
C33   C49   A    
C151  C159  A    
C90   H34   S    
C67   C83   A    
C11   H75   S    
C69   C77   A    
C94   H38   S    
C9    H73   S    
C71   C79   A    
C4    C132  A    
C18   H86   S    
C60   H11   S    
C5    C133  A    
C61   H14   S    
C35   C59   A    
C59   H12   S    
N7    Ni4   S    
C22   H82   S    
C101  H29   S    
C172  H103  S    
C177  H121  S    
C140  C162  S    
C2    N2    A    
C171  C172  S    
C107  H91   S    
C26   C146  A    
C59   C67   A    
C181  H130  S    
C151  H63   S    
C12   H76   S    
C122  H50   S    
C14   C166  A    
N11   N19   A    
N12   Ni5   S    
C36   C52   A    
C114  H42   S    
C37   C53   A    
C44   C52   A    
C45   C53   A    
C104  H32   S    
C15   C167  A    
C90   C138  A    
C180  H123  S    
C100  C108  A    
C48   H24   S    
C94   C142  A    
C157  C165  A    
C176  H113  S    
C147  H59   S    
C178  H117  S    
N12   N20   A    
C115  N19   A    
C38   C62   A    
C40   C134  S    
C182  H129  S    
C87   C104  A    
N15   N23   A    
C128  C134  A    
C94   N14   A    
C31   C151  A    
N19   Ni1   S    
C32   C152  A    
C11   C163  A    
C90   N10   A    
N26   Ni5   S    
C9    C161  A    
C42   C50   A    
C184  H133  S    
N21   Ni4   S    
C175  H116  S    
C171  H106  S    
N22   Ni3   S    
C67   C75   A    
C179  H125  S    
C117  N21   A    
C69   C85   A    
C119  N23   A    
C9    C17   A    
N32   Ni8   S    
C123  H51   S    
C4    H4    S    
N16   Ni7   S    
C5    H5    S    
C154  C162  A    
N2    N28   A    
C8    H8    S    
C125  H53   S    
C68   C76   A    
C80   C108  A    
C77   C105  A    
C115  H43   S    
C149  H61   S    
C14   C22   A    
C113  H41   S    
C8    N8    A    
C156  H68   S    
N20   Ni2   S    
C114  C138  A    
C41   C73   A    
C155  C163  A    
C183  C184  S    
C45   C77   A    
C126  N30   A    
C85   C102  A    
N18   Ni1   S    
N8    N30   A    
C152  H64   S    
C13   H77   S    
C95   C143  A    
C8    C136  A    
C89   H33   S    
C18   C26   A    
N11   Ni6   S    
C11   C19   A    
N23   Ni3   S    
N31   Ni7   S    
C30   C150  A    
C81   C98   A    
C101  C109  A    
C98   H26   S    
C103  C111  A    
N7    N29   A    
C23   H83   S    
C39   C55   A    
C173  H111  S    
C40   C56   A    
C52   C173  S    
C148  H60   S    
C170  H98   S    
C49   C171  S    
C22   C30   A    
C92   H36   S    
C16   H80   S    
C47   C55   A    
C121  H49   S    
C20   H88   S    
C95   H39   S    
C141  C167  S    
C170  H99   S    
C3    N3    A    
C68   C84   A    
C139  C161  S    
C181  C182  S    
C46   C78   A    
C146  H58   S    
C36   C60   A    
C169  H101  S    
C144  C166  S    
C174  H108  S    
C117  C141  A    
N16   N24   A    
C12   C164  A    
C13   C165  A    
C38   C54   A    
C24   H84   S    
C46   C54   A    
C182  H128  S    
C79   C107  A    
C118  H46   S    
C2    H2    S    
C53   C179  S    
C91   C139  A    
C157  H69   S    
C15   H79   S    
C89   C137  A    
C82   C97   A    
C116  N20   A    
C109  H93   S    
N27   Ni5   S    
C93   C141  A    
C158  C166  A    
C39   C133  S    
C25   C30   S    
C173  H110  S    
C105  H89   S    
C63   H16   S    
N14   N22   A    
C27   C32   S    
C84   C99   A    
C28   C31   S    
C120  N24   A    
C127  C133  A    
C57   C65   A    
C73   C109  A    
C4    N4    A    
C20   C28   A    
C150  C158  A    
C5    N5    A    
N9    N17   A    
C91   N11   A    
C176  H112  S    
C116  H44   S    
C43   C51   A    
C172  H102  S    
C21   C29   A    
C177  H120  S    
C2    C130  A    
C47   H23   S    
C118  N22   A    
C173  C174  S    
C60   C68   A    
C72   C80   A    
C169  C170  S    
C159  H71   S    
C148  C156  A    
C149  C157  A    
C91   H35   S    
C113  N17   A    
N13   Ni7   S    
C66   C74   A    
N14   Ni8   S    
C152  C160  A    
C119  H47   S    
C70   C78   A    
C10   H74   S    
C84   C87   A    
C47   C79   A    
C93   H37   S    
C180  H122  S    
C17   H85   S    
N9    Ni5   S    
C102  H30   S    
C21   H81   S    
C178  H118  S    
C66   C82   A    
C183  H135  S    
C65   C73   A    
C44   C76   A    
C104  C112  A    
C58   C66   A    
C143  C165  S    
C7    H7    S    
N28   Ni6   S    
C19   C27   A    
C35   C129  S    
C127  H55   S    
C145  C153  A    
C33   C131  S    
C15   C23   A    
C34   C132  S    
C16   C24   A    
C123  C129  A    
C123  N27   A    
C12   C20   A    
C179  H126  S    
C46   H22   S    
C55   C183  S    
C122  C132  A    
C72   C88   A    
C34   C50   A    
C95   N15   A    
C124  C130  A    
N3    N25   A    
C172  H104  S    
C7    C135  A    
N4    Ni1   S    
C122  N26   A    
C155  H67   S    
C76   C112  A    
C41   H17   S    
C103  H31   S    
C181  H131  S    
C111  H95   S    
C42   C74   A    
C44   H20   S    
C45   H21   S    
C158  H70   S    
C71   C87   A    
C108  H92   S    
N4    N26   A    
C70   C86   A    
N5    Ni3   S    
C88   C103  A    
N6    Ni4   S    
C180  H124  S    
C61   C69   A    
C48   C56   A    
C33   C57   A    
C160  H72   S    
C171  H105  S    
C28   C148  A    
C115  C139  A    
C118  C142  A    
C176  H114  S    
C37   C61   A    
C126  H54   S    
C120  H48   S    
C39   C63   A    
C40   C64   A    
C54   C177  S    
C121  N25   A    
C174  H107  S    
C48   C80   A    
C6    C134  A    
C3    H3    S    
C16   C168  A    
C1    H1    S    
C58   H9    S    
C64   C72   A    
C110  H94   S    
C29   C149  A    
C102  C110  A    
C184  H134  S    
C1    N1    A    
C156  C164  A    
C26   C29   S    
C27   C147  A    
C42   H18   S    
C175  H115  S    
C106  H90   S    
C65   C81   A    
C138  C164  S    
C116  C140  A    
C86   C101  A    
C14   H78   S    
C92   C140  A    
