data_mof_unit_14070.cif
_audit_creation_date              2012-12-11T16:08:37-0500
_audit_creation_method            fapswitch 2.2
_symmetry_space_group_name_H-M    P1
_symmetry_Int_Tables_number       1
_space_group_crystal_system       triclinic
_cell_length_a                    12.984839
_cell_length_b                    13.311969
_cell_length_c                    27.644841
_cell_angle_alpha                 94.824472
_cell_angle_beta                  90.5013
_cell_angle_gamma                 119.137781
_cell_volume                      4152.22643335

loop_
_atom_site_label
_atom_site_type_symbol
_atom_type_description
_atom_site_fract_x
_atom_site_fract_y
_atom_site_fract_z
_atom_type_partial_charge
C1    C     C_R   0.627422 0.894241 0.427289 0.554780
C2    C     C_R   0.609395 0.391445 0.235825 0.257265
C3    C     C_R   0.603165 0.376049 0.285416 -0.056862
C4    C     C_R   0.678274 0.344742 0.308350 -0.000574
C5    C     C_R   0.690579 0.371152 0.208366 0.008289
C6    C     C_1   0.699681 0.384057 0.157004 -0.026179
C7    C     C_1   0.658621 0.313682 0.357508 0.015690
C8    C     C_1   0.707209 0.403210 0.114951 0.032122
C9    C     C_R   0.159682 0.746260 0.352138 0.209551
C10   C     C_R   0.145732 0.737788 0.301312 -0.026820
C11   C     C_R   0.141775 0.726096 0.199683 0.105012
C12   C     C_R   0.601153 0.222854 0.440910 0.548688
C13   C     C_R   0.108853 0.625258 0.222863 0.275884
C14   C     C_R   0.108109 0.631715 0.273455 -0.126316
C15   C     C_R   0.147137 0.724331 0.149374 0.272094
C16   C     C_R   0.133068 0.807995 0.126133 -0.049222
C17   C     C_R   0.210265 0.949299 0.356335 0.220826
C18   C     C_R   0.207263 0.944827 0.305268 0.072415
C19   C     C_R   0.173459 0.837971 0.277901 -0.083974
C20   C     C_R   0.241265 0.045467 0.281160 0.305072
C21   C     C_R   0.223547 0.035392 0.230001 0.093156
C22   C     C_R   0.183994 0.927331 0.203078 -0.018924
C23   C     C_R   0.266711 0.875683 0.426110 0.565006
C24   C     C_R   0.166623 0.830685 0.226982 -0.062022
C25   C     C_R   0.156582 0.911152 0.152788 -0.133101
C26   C     C_R   0.201590 0.854245 0.379052 0.000262
C27   C     C_R   0.750414 0.928281 0.357046 -0.119187
C28   C     C_R   0.758991 0.916112 0.306886 -0.012971
C29   C     C_R   0.758130 0.912874 0.205392 0.027568
C30   C     C_R   0.858671 0.996254 0.234411 0.270233
C31   C     C_R   0.860352 0.995171 0.285203 0.092638
C32   C     C_R   0.753662 0.914207 0.154924 0.126326
C33   C     C_R   0.675895 0.812902 0.126031 -0.020038
C34   C     C_R   0.627643 0.898704 0.564739 0.545510
C35   C     C_R   0.562308 0.751215 0.351832 0.066871
C36   C     C_R   0.565051 0.742858 0.300565 0.004702
C37   C     C_R   0.662086 0.827076 0.277969 0.007124
C38   C     C_R   0.470842 0.654446 0.271468 -0.080711
C39   C     C_R   0.468985 0.647385 0.220851 0.143076
C40   C     C_R   0.564634 0.732645 0.196946 0.013052
C41   C     C_R   0.662328 0.822784 0.226702 -0.057637
C42   C     C_R   0.571828 0.731226 0.145355 0.063259
C43   C     C_R   0.649365 0.852641 0.379268 -0.000728
C44   C     C_R   0.742273 0.294347 0.649720 -0.149407
C45   C     C_R   0.605402 0.230273 0.577447 0.535735
C46   C     C_R   0.763580 0.327523 0.699596 -0.044639
C47   C     C_R   0.775373 0.359164 0.801957 -0.023917
C48   C     C_R   0.859397 0.337666 0.777294 0.240113
C49   C     C_R   0.848877 0.315499 0.726580 0.149371
C50   C     C_R   0.767708 0.360901 0.853247 0.221879
C51   C     C_R   0.696665 0.401063 0.875776 0.049037
C52   C     C_R   0.601664 0.365059 0.645413 0.255952
C53   C     C_R   0.615720 0.391186 0.695948 0.062510
C54   C     C_R   0.693521 0.368388 0.723315 -0.020570
C55   C     C_R   0.547063 0.432452 0.719774 -0.041926
C56   C     C_R   0.271619 0.879361 0.563251 0.546912
C57   C     C_R   0.546881 0.442251 0.770101 0.089400
C58   C     C_R   0.621039 0.415808 0.797594 0.027380
C59   C     C_R   0.697433 0.381978 0.774343 -0.028151
C60   C     C_R   0.622630 0.425599 0.847856 -0.119428
C61   C     C_R   0.654470 0.303255 0.623572 -0.007595
C62   C     C_1   0.221109 0.862207 0.609757 0.032149
C63   C     C_R   0.093571 0.741874 0.718732 -0.134939
C64   C     C_R   0.079892 0.732682 0.768364 -0.119098
C65   C     C_R   0.218040 0.938349 0.785956 0.146881
C66   C     C_R   0.232604 0.947428 0.735614 0.128320
C67   C     C_1   0.636383 0.278073 0.396938 0.051629
C68   C     C_R   0.170040 0.848388 0.702151 0.018139
C69   C     C_R   0.142535 0.829798 0.802070 0.039377
C70   C     C_1   0.124312 0.815584 0.852922 0.022980
C71   C     C_1   0.192106 0.853477 0.651164 -0.000626
C72   C     C_1   0.100364 0.797427 0.894432 0.043902
C73   C     C_1   0.644222 0.864420 0.610518 0.028189
C74   C     C_R   0.724619 0.781367 0.719863 0.261999
C75   C     C_R   0.725785 0.767384 0.770331 0.237182
C76   C     C_R   0.589733 0.843619 0.782436 0.069744
C77   C     C_R   0.584735 0.851942 0.732683 -0.139218
C78   C     C_R   0.763338 0.331923 0.281683 0.085788
C79   C     C_R   0.652141 0.822130 0.701588 0.032151
C80   C     C_R   0.661054 0.802544 0.801413 0.065931
C81   C     C_1   0.669402 0.795734 0.852878 0.075882
C82   C     C_1   0.650714 0.841896 0.651297 0.044469
C83   C     C_1   0.684539 0.788437 0.895145 0.054570
C84   C     C_R   0.067262 0.772837 0.078683 0.535441
C85   C     C_R   0.717615 0.442322 0.067573 0.556762
C86   C     C_R   0.718646 0.784550 0.080144 0.565614
C87   C     C_R   0.056269 0.766069 0.941288 0.543795
C88   C     C_R   0.711457 0.438070 0.927946 0.587359
C89   C     C_R   0.768106 0.343573 0.231850 -0.109170
C90   C     C_R   0.716122 0.776064 0.943036 0.550732
Cr1   Cr    Cr6+3 0.416430 0.829200 0.492370 1.104619
Cr2   Cr    Cr6+3 0.674630 0.087020 0.504170 1.069448
Cr3   Cr    Cr6+3 0.408920 0.083740 0.503490 1.096870
Cr4   Cr    Cr6+3 0.914010 0.832750 0.013970 1.098170
Cr5   Cr    Cr6+3 0.922310 0.578600 0.003000 1.124214
Cr6   Cr    Cr6+3 0.656280 0.574630 0.003870 1.095496
H1    H     H_    0.818191 0.003047 0.378835 0.186856
H2    H     H_    0.395243 0.589443 0.287843 0.168974
H3    H     H_    0.832472 0.331055 0.211420 0.171959
H4    H     H_    0.786305 0.251835 0.631764 0.175726
H5    H     H_    0.569191 0.457472 0.865820 0.183132
H6    H     H_    0.487807 0.451099 0.699397 0.205096
H7    H     H_    0.045965 0.665273 0.693287 0.141296
H8    H     H_    0.020555 0.649193 0.780548 0.133567
H9    H     H_    0.529945 0.884491 0.718330 0.154362
H10   H     H_    0.538335 0.387507 0.306020 0.167854
H11   H     H_    0.078770 0.552914 0.290590 0.152648
H12   H     H_    0.149256 0.975640 0.134100 0.189438
O1    O     O_R   0.296680 0.802170 0.437540 -0.443742
O2    O     O_R   0.662610 0.183990 0.557860 -0.510650
O3    O     O_R   0.500730 0.201280 0.562180 -0.473217
O4    O     O_R   0.312500 0.978850 0.548170 -0.483506
O5    O     O_3   0.499990 0.999990 0.500010 -0.277184
O6    O     O_R   0.820790 0.857990 0.068830 -0.474319
O7    O     O_R   0.016700 0.827330 0.062850 -0.492732
O8    O     O_R   0.041970 0.673520 0.060040 -0.478941
O9    O     O_R   0.817980 0.483660 0.048840 -0.471208
O10   O     O_R   0.637200 0.461990 0.052510 -0.490685
O11   O     O_R   0.664790 0.681920 0.057970 -0.475535
O12   O     O_R   0.525380 0.838530 0.443500 -0.469582
O13   O     O_R   0.815840 0.852920 0.961840 -0.488202
O14   O     O_R   0.012100 0.822630 0.963670 -0.489805
O15   O     O_R   0.037010 0.668460 0.953040 -0.495567
O16   O     O_R   0.813390 0.478970 0.949660 -0.447704
O17   O     O_R   0.632250 0.456930 0.945520 -0.520417
O18   O     O_R   0.660200 0.677230 0.958780 -0.493713
O19   O     O_3   0.830870 0.661990 0.006950 -0.290864
O20   O     O_R   0.702130 0.995190 0.446810 -0.508435
O21   O     O_R   0.661770 0.181390 0.458760 -0.488645
O22   O     O_R   0.499820 0.198480 0.455280 -0.474885
O23   O     O_R   0.311660 0.976250 0.449080 -0.497359
O24   O     O_R   0.297580 0.804960 0.544440 -0.498529
O25   O     O_R   0.526220 0.841130 0.542590 -0.490213
O26   O     O_R   0.703030 0.997990 0.553710 -0.495519
I1    I     I_    0.887122 0.296437 0.315115 -0.349243
I2    I     I_    0.259394 0.183451 0.193198 -0.230110
O27   O     O_3   0.293427 0.151914 0.308482 -0.593773
H13   H     H_    0.336646 0.214211 0.287516 0.347436
O28   O     O_3   0.224272 0.047487 0.383455 -0.575264
H14   H     H_    0.176433 0.022880 0.412309 0.334037
I3    I     I_    0.835344 0.073722 0.121531 -0.187131
O29   O     O_3   0.958411 0.070270 0.212121 -0.636710
H15   H     H_    0.002503 0.143241 0.233538 0.375780
I4    I     I_    0.021239 0.103691 0.328519 -0.234838
I5    I     I_    0.427172 0.643084 0.091915 -0.226021
I6    I     I_    0.317529 0.493811 0.190216 -0.148094
I7    I     I_    0.433383 0.608028 0.387439 -0.289086
O30   O     O_3   0.823096 0.319553 0.882069 -0.666281
H16   H     H_    0.821224 0.251717 0.863422 0.369441
O31   O     O_3   0.955832 0.342796 0.801147 -0.638569
H17   H     H_    0.983212 0.405104 0.828326 0.359543
I8    I     I_    0.970166 0.270146 0.692765 -0.220371
I9    I     I_    0.425498 0.491038 0.800490 -0.268430
O32   O     O_3   0.530150 0.393305 0.619013 -0.668672
H18   H     H_    0.556305 0.402180 0.585311 0.342245
O33   O     O_3   0.534688 0.425782 0.216251 -0.666030
H19   H     H_    0.548776 0.436695 0.181518 0.350253
I10   I     I_    0.308805 0.086502 0.837925 -0.218816
I11   I     I_    0.350589 0.108693 0.709436 -0.265256
O34   O     O_3   0.794730 0.759668 0.688136 -0.689207
H20   H     H_    0.865460 0.769916 0.706569 0.335942
O35   O     O_3   0.787955 0.719633 0.790293 -0.715928
H21   H     H_    0.794346 0.665914 0.765047 0.324258
I12   I     I_    0.487846 0.894542 0.827133 -0.309878
O36   O     O_3   0.160142 0.638002 0.123730 -0.568277
H22   H     H_    0.205455 0.670495 0.094989 0.347209
O37   O     O_3   0.137291 0.651581 0.376333 -0.641717
H23   H     H_    0.177466 0.612512 0.359723 0.346811
O38   O     O_3   0.070240 0.520115 0.195537 -0.598756
H24   H     H_    0.051771 0.458977 0.217479 0.335139

loop_
_geom_bond_atom_site_label_1
_geom_bond_atom_site_label_2
_ccdc_geom_bond_type
Cr5   O16   S    
C66   C68   A    
O36   H22   S    
C48   O31   S    
C11   C13   A    
O38   H24   S    
Cr6   O11   S    
C35   C36   A    
C1    O20   A    
C38   H2    S    
Cr4   O6    S    
Cr4   O19   S    
Cr5   O9    S    
C46   C49   A    
C29   C30   A    
C12   O22   A    
C89   H3    S    
C75   O35   S    
C5    C6    S    
C33   C42   A    
Cr6   O10   S    
C36   C37   A    
C8    C85   S    
C29   C32   A    
C52   C61   A    
C38   C39   A    
C65   C69   A    
C34   O26   A    
C58   C60   A    
C15   C16   A    
C11   C24   A    
C16   C84   S    
C18   C19   A    
C23   C26   S    
C45   C61   S    
C31   I4    S    
C11   C15   A    
C1    C43   S    
C22   C25   A    
C62   C71   T    
C86   O11   A    
C35   C43   A    
C78   I1    S    
Cr5   O8    S    
C21   I2    S    
C18   C20   A    
C88   O16   A    
C60   H5    S    
C40   C42   A    
C3    H10   S    
C21   C22   A    
C85   O10   A    
Cr1   O12   S    
C4    C7    S    
Cr2   O20   S    
C66   I11   S    
C81   C83   T    
C44   C46   A    
C9    C26   A    
C17   C18   A    
C47   C50   A    
C54   C59   A    
C53   C55   A    
C78   C89   A    
C23   O1    A    
C12   C67   S    
C55   H6    S    
C47   C59   A    
C12   O21   A    
C23   O23   A    
C9    O37   S    
C76   C77   A    
C63   H7    S    
C10   C14   A    
O37   H23   S    
C45   O2    A    
C65   I10   S    
C35   I7    S    
Cr1   O24   S    
Cr3   O4    S    
C34   O25   A    
C58   C59   A    
C53   C54   A    
C57   I9    S    
Cr1   O5    S    
Cr6   O19   S    
C1    O12   A    
O33   H19   S    
C20   O27   S    
C33   C86   S    
Cr2   O21   S    
C4    C78   A    
C88   O17   A    
Cr2   O5    S    
C27   C43   A    
C79   C82   S    
C32   I3    S    
C47   C48   A    
Cr1   O25   S    
C10   C19   A    
Cr4   O7    S    
C46   C54   A    
C50   C51   A    
C90   O18   A    
C77   C79   A    
Cr6   O18   S    
C17   O28   S    
Cr3   O5    S    
C64   C69   A    
O30   H16   S    
C85   O9    A    
O32   H18   S    
C56   O24   A    
Cr3   O3    S    
Cr4   O14   S    
C40   C41   A    
C84   O7    A    
C74   C79   A    
C55   C57   A    
C90   O13   A    
C22   C24   A    
C76   I12   S    
C2    C5    A    
C17   C26   A    
Cr3   O22   S    
C14   H11   S    
C73   C82   T    
C39   C40   A    
C72   C87   S    
C52   C53   A    
O35   H21   S    
C9    C10   A    
C50   O30   S    
C16   C25   A    
C64   H8    S    
C83   C90   S    
C63   C68   A    
C27   H1    S    
C2    O33   S    
C49   I8    S    
C29   C41   A    
C20   C21   A    
O29   H15   S    
C28   C31   A    
Cr2   O26   S    
C76   C80   A    
C80   C81   S    
C51   C88   S    
C87   O14   A    
C6    C8    T    
O28   H14   S    
C45   O3    A    
C44   C61   A    
O27   H13   S    
C30   O29   S    
C74   O34   S    
C86   O6    A    
O34   H20   S    
Cr1   O1    S    
C77   H9    S    
C2    C3    A    
Cr3   O23   S    
C32   C33   A    
C36   C38   A    
C87   O15   A    
C44   H4    S    
Cr2   O2    S    
C57   C58   A    
C30   C31   A    
C28   C37   A    
C68   C71   S    
C48   C49   A    
C39   I6    S    
C13   O38   S    
Cr6   O17   S    
C19   C24   A    
C56   C62   S    
C37   C41   A    
C69   C70   S    
C34   C73   S    
C7    C67   T    
C63   C64   A    
Cr4   O13   S    
Cr5   O19   S    
C75   C80   A    
C74   C75   A    
C84   O8    A    
C65   C66   A    
C27   C28   A    
O31   H17   S    
C15   O36   S    
C70   C72   T    
C51   C60   A    
C13   C14   A    
C42   I5    S    
C52   O32   S    
C56   O4    A    
C5    C89   A    
C3    C4    A    
C25   H12   S    
Cr5   O15   S    
