data_mof_unit_57123.cif
_audit_creation_date              2012-12-10T20:48:48-0500
_audit_creation_method            fapswitch 2.2
_symmetry_space_group_name_H-M    P1
_symmetry_Int_Tables_number       1
_space_group_crystal_system       triclinic
_cell_length_a                    15.782076
_cell_length_b                    9.020087
_cell_length_c                    8.095388
_cell_angle_alpha                 89.991437
_cell_angle_beta                  89.718819
_cell_angle_gamma                 89.898953
_cell_volume                      1152.40893286

loop_
_atom_site_label
_atom_site_type_symbol
_atom_type_description
_atom_site_fract_x
_atom_site_fract_y
_atom_site_fract_z
_atom_type_partial_charge
C1    C     C_R   0.500061 0.217774 0.500007 0.926895
C2    C     C_3   0.046606 0.438046 0.338199 0.292184
C3    C     C_3   0.951528 0.477593 0.666293 0.294340
C4    C     C_3   0.949041 0.424794 0.347085 0.275964
C5    C     C_1   0.750496 0.508905 0.497903 -0.231850
C6    C     C_1   0.249389 0.507522 0.500645 -0.198639
C7    C     C_3   0.083322 0.523070 0.493190 -0.242384
C8    C     C_3   0.916595 0.527045 0.491901 -0.232046
C9    C     C_3   0.950277 0.693412 0.455879 0.701396
C10   C     C_3   0.051524 0.693596 0.488611 0.733961
C11   C     C_3   0.077813 0.899770 0.671837 -0.124844
C12   C     C_1   0.825413 0.518756 0.495056 0.136151
C13   C     C_3   0.128478 0.746780 0.225041 -0.380054
C14   C     C_3   0.826765 0.837274 0.540066 -0.314819
C15   C     C_3   0.936737 0.882032 0.246445 -0.177520
C16   C     C_3   0.886715 0.237551 0.699233 -0.095073
C17   C     C_3   0.858834 0.237772 0.250800 -0.368937
C18   C     C_3   0.102361 0.274407 0.840908 -0.312046
C19   C     C_3   0.108159 0.196240 0.367955 -0.098237
C20   C     C_1   0.174448 0.515097 0.497966 0.135336
C21   C     C_R   0.337858 0.500298 0.500364 0.892076
C22   C     C_R   0.662130 0.499996 0.499542 0.880524
C23   C     C_1   0.500106 0.934994 0.499986 -0.198044
C24   C     C_1   0.500106 0.064976 0.500008 -0.198738
C25   C     C_R   0.500058 0.782200 0.499991 0.928795
C26   C     C_3   0.048825 0.453592 0.660408 0.268001
H1    H     H_    0.052901 0.516418 0.237207 0.089118
H2    H     H_    0.165619 0.839673 0.171977 0.188681
H3    H     H_    0.799927 0.795677 0.422539 0.189175
H4    H     H_    0.822360 0.959889 0.538355 0.156820
H5    H     H_    0.786735 0.797582 0.644015 0.185293
H6    H     H_    0.975812 0.898009 0.133891 0.164462
H7    H     H_    0.962658 0.953857 0.345088 0.208665
H8    H     H_    0.872367 0.919699 0.212865 0.147142
H9    H     H_    0.941886 0.184134 0.640210 0.223533
H10   H     H_    0.831827 0.244207 0.614938 0.172849
H11   H     H_    0.867268 0.162589 0.801122 0.125003
H12   H     H_    0.076039 0.519566 0.764423 0.132936
H13   H     H_    0.888060 0.207736 0.130241 0.201353
H14   H     H_    0.810967 0.326915 0.232846 0.183351
H15   H     H_    0.823390 0.141432 0.299615 0.161514
H16   H     H_    0.121804 0.157097 0.850029 0.162165
H17   H     H_    0.052014 0.295189 0.934699 0.230909
H18   H     H_    0.159716 0.341605 0.867947 0.180367
H19   H     H_    0.051300 0.159010 0.434814 0.217609
H20   H     H_    0.162004 0.219272 0.451361 0.180655
H21   H     H_    0.128092 0.101970 0.288927 0.153193
H22   H     H_    0.924237 0.471891 0.228387 0.136445
H23   H     H_    0.944376 0.579979 0.741539 0.156076
H24   H     H_    0.030458 0.965811 0.603893 0.183502
H25   H     H_    0.143205 0.929982 0.633328 0.174544
H26   H     H_    0.070418 0.926726 0.804618 0.139647
H27   H     H_    0.077495 0.725853 0.134871 0.192876
H28   H     H_    0.173442 0.653302 0.232553 0.187617
N1    N     N_1   0.500000 0.500030 0.073640 -0.033297
N2    N     N_1   0.500000 0.500030 0.926360 -0.033203
O1    O     O_R   0.500000 0.285340 0.636850 -0.616049
O2    O     O_3   0.096928 0.794117 0.380042 -0.631746
O3    O     O_3   0.912071 0.796470 0.570003 -0.628259
O4    O     O_3   0.932925 0.729192 0.286570 -0.687082
O5    O     O_3   0.904740 0.377098 0.768243 -0.615444
O6    O     O_3   0.922796 0.275653 0.365134 -0.613884
O7    O     O_3   0.072025 0.302837 0.679798 -0.632890
O8    O     O_3   0.091922 0.317749 0.264698 -0.629320
O9    O     O_R   0.500000 0.285340 0.363150 -0.615972
O10   O     O_R   0.377140 0.500000 0.636930 -0.614960
O11   O     O_R   0.377140 0.500000 0.363070 -0.613940
O12   O     O_R   0.622860 0.500000 0.636930 -0.607562
O13   O     O_R   0.622860 0.500000 0.363070 -0.617767
O14   O     O_R   0.500000 0.714650 0.636900 -0.615985
O15   O     O_R   0.500000 0.714650 0.363100 -0.615380
O16   O     O_3   0.064580 0.746100 0.654058 -0.676765
Zn1   Zn    Zn3+2 0.500000 0.499990 0.682780 0.992123
Zn2   Zn    Zn3+2 0.500000 0.499990 0.317220 0.989488

loop_
_geom_bond_atom_site_label_1
_geom_bond_atom_site_label_2
_ccdc_geom_bond_type
C8    C9    S    
O15   Zn2   S    
C2    C4    S    
N1    N2    T    
C19   H19   S    
C13   H2    S    
C2    H1    S    
C25   O15   A    
C18   H18   S    
C17   O6    S    
C7    C10   S    
C3    C26   S    
C6    C20   T    
C9    C10   S    
C19   O8    S    
C15   H8    S    
C1    O9    A    
C2    C7    S    
C26   O7    S    
C4    C8    S    
C14   H5    S    
C8    C12   S    
C9    O4    S    
C25   O14   A    
O14   Zn1   S    
C18   H16   S    
C3    H23   S    
C19   H20   S    
C15   H6    S    
O11   Zn2   S    
C18   H17   S    
C21   O11   A    
C14   O3    S    
C6    C21   S    
C22   O12   A    
C7    C26   S    
C1    C24   S    
N2    Zn1   S    
C10   O2    S    
C2    O8    S    
C7    C20   S    
C13   H27   S    
C3    O5    S    
C16   H9    S    
C4    H22   S    
O10   Zn1   S    
C21   O10   A    
C19   H21   S    
C18   O7    S    
C3    C8    S    
C17   H15   S    
C11   H25   S    
C16   O5    S    
O9    Zn2   S    
C23   C24   T    
C4    O6    S    
O13   Zn2   S    
C23   C25   S    
C5    C12   T    
C13   H28   S    
C17   H13   S    
O1    Zn1   S    
C11   H24   S    
C11   O16   S    
C26   H12   S    
C11   H26   S    
C22   O13   A    
O12   Zn1   S    
C14   H4    S    
N1    Zn2   S    
C15   H7    S    
C15   O4    S    
C16   H10   S    
C5    C22   S    
C13   O2    S    
C16   H11   S    
C10   O16   S    
C14   H3    S    
C9    O3    S    
C17   H14   S    
C1    O1    A    
