data_mof_unit_47381.cif
_audit_creation_date              2012-12-10T17:07:08-0500
_audit_creation_method            fapswitch 2.2
_symmetry_space_group_name_H-M    P1
_symmetry_Int_Tables_number       1
_space_group_crystal_system       triclinic
_cell_length_a                    10.057161
_cell_length_b                    10.670551
_cell_length_c                    13.60848
_cell_angle_alpha                 90.378255
_cell_angle_beta                  82.082108
_cell_angle_gamma                 90.545922
_cell_volume                      1446.39112886

loop_
_atom_site_label
_atom_site_type_symbol
_atom_type_description
_atom_site_fract_x
_atom_site_fract_y
_atom_site_fract_z
_atom_type_partial_charge
C1    C     C_R   0.501388 0.737265 0.498685 0.935082
C2    C     C_R   0.497480 0.263022 0.509943 0.925931
C3    C     C_R   0.524999 0.500196 0.314220 0.933090
C4    C     C_1   0.545524 0.502317 0.210091 -0.064151
C5    C     C_2   0.562436 0.506679 0.016559 0.400326
C6    C     C_2   0.444063 0.501463 0.981787 0.311044
C7    C     C_1   0.444184 0.501035 0.877865 0.073568
C8    C     C_1   0.558354 0.504476 0.122003 -0.071018
C9    C     C_3   0.797803 0.523055 0.996446 0.149940
C10   C     C_3   0.920349 0.532242 0.917559 -0.734777
C11   C     C_3   0.829083 0.031745 0.529967 0.117643
C12   C     C_1   0.455050 0.500668 0.789862 -0.104504
C13   C     C_3   0.963202 0.094866 0.494634 -0.683940
C14   C     C_3   0.098830 0.639176 0.619907 0.196921
C15   C     C_3   0.009239 0.750368 0.652165 -0.812563
C16   C     C_2   0.596381 0.064676 0.547457 0.409896
C17   C     C_2   0.487179 0.136633 0.547365 0.146964
C18   C     C_2   0.569323 0.931423 0.561673 0.158952
C19   C     C_2   0.509836 0.869412 0.493097 0.165744
C20   C     C_2   0.083264 0.424502 0.446475 -0.005039
C21   C     C_2   0.937378 0.439285 0.435093 0.432561
C22   C     C_R   0.475042 0.500283 0.685761 0.899703
Cl1   Cl    Cl    0.287208 0.493947 0.058387 -0.574299
Cl2   Cl    Cl    0.323603 0.083375 0.597946 -0.590296
Cl3   Cl    Cl    0.601763 0.861471 0.673672 -0.626546
Cl4   Cl    Cl    0.470787 0.937319 0.382245 -0.551476
Cl5   Cl    Cl    0.881676 0.363136 0.333404 -0.533401
H1    H     H_    0.882380 0.520603 0.566021 0.174712
H2    H     H_    0.971792 0.184130 0.535774 0.237847
H3    H     H_    0.046604 0.032612 0.507965 0.244566
H4    H     H_    0.971897 0.114510 0.413976 0.284951
H5    H     H_    0.202244 0.665505 0.630906 0.208572
H6    H     H_    0.064641 0.558167 0.668587 0.106717
H7    H     H_    0.903257 0.727931 0.644026 0.268396
H8    H     H_    0.015406 0.773624 0.731065 0.231142
H9    H     H_    0.042575 0.833204 0.605992 0.274942
H10   H     H_    0.137265 0.347224 0.407714 0.149780
H11   H     H_    0.808921 0.439006 0.042600 0.181791
H12   H     H_    0.794225 0.609377 0.043162 0.167135
H13   H     H_    0.912552 0.615733 0.870460 0.250570
H14   H     H_    0.012706 0.541039 0.953469 0.251996
H15   H     H_    0.927648 0.446913 0.869994 0.254660
H16   H     H_    0.825074 0.941600 0.488786 0.175897
H17   H     H_    0.824392 0.014209 0.610864 0.190795
N1    N     N_2   0.147970 0.498670 0.498970 0.037138
N2    N     N_2   0.852310 0.498640 0.498940 -0.193102
O1    O     O_R   0.386960 0.680940 0.500020 -0.581554
O2    O     O_3   0.724238 0.111588 0.511301 -0.589962
O3    O     O_3   0.090754 0.611451 0.519424 -0.535540
O4    O     O_R   0.613100 0.680900 0.499980 -0.608331
O5    O     O_R   0.370650 0.500000 0.640370 -0.656100
O6    O     O_R   0.596800 0.499960 0.640330 -0.597433
O7    O     O_R   0.386900 0.319100 0.500020 -0.599014
O8    O     O_R   0.613040 0.319060 0.499980 -0.552316
O9    O     O_R   0.403200 0.500040 0.359670 -0.581140
O10   O     O_R   0.629350 0.500000 0.359630 -0.567021
O11   O     O_3   0.681364 0.512198 0.949483 -0.625923
Zn1   Zn    Zn3+2 0.349000 0.500030 0.500020 1.040139
Zn2   Zn    Zn3+2 0.651000 0.499970 0.499980 1.050337

loop_
_geom_bond_atom_site_label_1
_geom_bond_atom_site_label_2
_ccdc_geom_bond_type
C2    C17   S    
C5    C8    S    
O7    Zn1   S    
C11   H16   S    
C6    C7    S    
O6    Zn2   S    
N1    O3    S    
N2    Zn2   S    
C10   H15   S    
C22   O5    A    
C1    O4    A    
C15   H9    S    
C15   H7    S    
C20   N1    D    
O10   Zn2   S    
C5    O11   S    
C4    C8    T    
C16   O2    S    
C14   H6    S    
C21   Cl5   S    
C11   H17   S    
O5    Zn1   S    
O1    Zn1   S    
C20   H10   S    
C11   C13   S    
H1    N2    S    
C11   O2    S    
C5    C6    D    
C18   Cl3   S    
C6    Cl1   S    
C9    C10   S    
C13   H2    S    
C9    H11   S    
C18   C19   D    
C9    O11   S    
O8    Zn2   S    
C2    O8    A    
C7    C12   T    
N1    Zn1   S    
C1    C19   S    
C14   O3    S    
O4    Zn2   S    
C3    C4    S    
C17   Cl2   S    
C12   C22   S    
C13   H3    S    
C9    H12   S    
C20   C21   S    
C22   O6    A    
C21   N2    D    
C3    O10   A    
O9    Zn1   S    
C15   H8    S    
C19   Cl4   S    
C14   C15   S    
C1    O1    A    
C10   H13   S    
C3    O9    A    
C13   H4    S    
C16   C18   S    
C14   H5    S    
C16   C17   D    
C10   H14   S    
C2    O7    A    
