data_mof_unit_22584.cif
_audit_creation_date              2012-12-11T14:28:23-0500
_audit_creation_method            fapswitch 2.2
_symmetry_space_group_name_H-M    P1
_symmetry_Int_Tables_number       1
_space_group_crystal_system       triclinic
_cell_length_a                    11.246281
_cell_length_b                    19.133582
_cell_length_c                    18.355053
_cell_angle_alpha                 90.263988
_cell_angle_beta                  89.946196
_cell_angle_gamma                 90.220646
_cell_volume                      3949.59751524

loop_
_atom_site_label
_atom_site_type_symbol
_atom_type_description
_atom_site_fract_x
_atom_site_fract_y
_atom_site_fract_z
_atom_type_partial_charge
C1    C     C_R   0.321191 0.968962 0.646400 0.476555
C2    C     C_3   0.195899 0.712702 0.047916 0.271383
C3    C     C_3   0.061454 0.203111 0.967694 -0.109890
C4    C     C_3   0.654357 0.317283 0.452973 -0.187638
C5    C     C_3   0.567028 0.297923 0.033188 -0.108196
C6    C     C_3   0.543380 0.692282 0.521825 -0.118484
C7    C     C_3   0.561454 0.703111 0.967694 -0.109890
C8    C     C_3   0.243184 0.771753 0.496660 -0.156220
C9    C     C_3   0.200192 0.787190 0.013186 -0.161306
C10   C     C_3   0.175324 0.179154 0.501726 -0.150701
C11   C     C_3   0.195123 0.213185 0.987459 -0.174446
C12   C     C_3   0.743185 0.271753 0.496660 -0.156220
C13   C     C_3   0.213049 0.238076 0.554900 0.219696
C14   C     C_3   0.700192 0.287190 0.013186 -0.161306
C15   C     C_3   0.675323 0.679154 0.501726 -0.150699
C16   C     C_3   0.695124 0.713185 0.987459 -0.174446
C17   C     C_3   0.153105 0.767465 0.558970 0.022821
C18   C     C_3   0.155709 0.755392 0.940920 -0.009480
C19   C     C_3   0.163510 0.234354 0.441435 -0.004968
C20   C     C_3   0.151436 0.245587 0.059482 -0.003444
C21   C     C_3   0.653105 0.267465 0.558970 0.022822
C22   C     C_3   0.655709 0.255392 0.940920 -0.009480
C23   C     C_3   0.663510 0.734355 0.441435 -0.004968
C24   C     C_3   0.193304 0.287556 0.952435 0.216926
C25   C     C_3   0.651436 0.745587 0.059482 -0.003444
C26   C     C_3   0.065296 0.813968 0.517375 -0.086971
C27   C     C_3   0.026367 0.762415 0.961633 -0.063552
C28   C     C_3   0.033686 0.247365 0.461077 -0.086209
C29   C     C_3   0.021794 0.239396 0.039113 -0.064697
C30   C     C_3   0.565296 0.313968 0.517375 -0.086970
C31   C     C_3   0.526367 0.262415 0.961633 -0.063552
C32   C     C_3   0.533686 0.747365 0.461077 -0.086209
C33   C     C_3   0.521794 0.739396 0.039113 -0.064697
C34   C     C_3   0.009971 0.746609 0.485180 -0.112139
C35   C     C_3   0.686376 0.205699 0.463726 0.279602
C36   C     C_3   0.026414 0.690729 0.996896 -0.207427
C37   C     C_3   0.074138 0.305257 0.513296 -0.175532
C38   C     C_3   0.024131 0.310673 0.003131 -0.169027
C39   C     C_3   0.509972 0.246609 0.485180 -0.112140
C40   C     C_3   0.526414 0.190729 0.996896 -0.207427
C41   C     C_3   0.574138 0.805257 0.513296 -0.175532
C42   C     C_3   0.524131 0.810673 0.003131 -0.169027
C43   C     C_3   0.098694 0.700825 0.526791 -0.021193
C44   C     C_3   0.156887 0.681576 0.974756 -0.076419
C45   C     C_3   0.205600 0.293025 0.493873 -0.113963
C46   C     C_3   0.695899 0.212702 0.047916 0.271383
C47   C     C_3   0.154429 0.319172 0.025424 -0.088123
C48   C     C_3   0.598695 0.200825 0.526791 -0.021193
C49   C     C_3   0.656888 0.181576 0.974756 -0.076419
C50   C     C_3   0.705600 0.793025 0.493873 -0.113963
C51   C     C_3   0.654429 0.819172 0.025424 -0.088123
C52   C     C_2   0.519049 0.923300 0.344998 0.289078
C53   C     C_2   0.554312 0.940211 0.141060 0.289216
C54   C     C_2   0.583064 0.034211 0.635735 0.312940
C55   C     C_2   0.548115 0.061377 0.853580 0.273739
C56   C     C_2   0.019048 0.423300 0.344998 0.289078
C57   C     C_3   0.713048 0.738076 0.554900 0.219699
C58   C     C_2   0.054312 0.440211 0.141060 0.289217
C59   C     C_2   0.083064 0.534211 0.635735 0.312941
C60   C     C_2   0.048115 0.561377 0.853580 0.273739
C61   C     C_3   0.693304 0.787555 0.952435 0.216926
C62   C     C_3   0.097959 0.750696 0.421856 0.008910
C63   C     C_3   0.064222 0.726240 0.067433 0.042117
C64   C     C_3   0.083838 0.250515 0.573103 0.023419
C65   C     C_R   0.319886 0.970124 0.852905 0.495978
C66   C     C_3   0.061331 0.274614 0.932864 0.040869
C67   C     C_3   0.597959 0.250696 0.421856 0.008910
C68   C     C_3   0.564222 0.226240 0.067433 0.042117
C69   C     C_3   0.583837 0.750515 0.573103 0.023419
C70   C     C_3   0.561331 0.774613 0.932864 0.040869
C71   C     C_R   0.320675 0.991425 0.422493 -0.064122
C72   C     C_R   0.327192 0.993557 0.075153 0.011373
C73   C     C_R   0.332183 0.003004 0.574480 -0.055472
C74   C     C_R   0.326637 0.008740 0.922998 -0.064441
C75   C     C_R   0.820674 0.491425 0.422493 -0.064122
C76   C     C_R   0.318655 0.030235 0.352933 0.507372
C77   C     C_R   0.827192 0.493557 0.075153 0.011373
C78   C     C_R   0.832183 0.503004 0.574480 -0.055468
C79   C     C_R   0.826637 0.508740 0.922998 -0.064440
C80   C     C_R   0.530146 0.954646 0.418760 0.042549
C81   C     C_R   0.545170 0.977269 0.070467 0.031147
C82   C     C_R   0.556710 0.999321 0.564712 0.028636
C83   C     C_R   0.543929 0.025740 0.925477 0.032690
C84   C     C_R   0.030146 0.454646 0.418760 0.042549
C85   C     C_R   0.045170 0.477269 0.070467 0.031146
C86   C     C_R   0.056711 0.499321 0.564712 0.028637
C87   C     C_R   0.319932 0.030516 0.146401 0.550547
C88   C     C_R   0.043929 0.525740 0.925477 0.032690
C89   C     C_R   0.640440 0.951703 0.453235 -0.056102
C90   C     C_R   0.650453 0.988634 0.032484 -0.108771
C91   C     C_R   0.653738 0.974284 0.524560 -0.053418
C92   C     C_R   0.649966 0.013720 0.962198 -0.039048
C93   C     C_R   0.140440 0.451703 0.453235 -0.056102
C94   C     C_R   0.150453 0.488634 0.032484 -0.108771
C95   C     C_R   0.153738 0.474283 0.524560 -0.053418
C96   C     C_R   0.149966 0.513720 0.962198 -0.039048
C97   C     C_R   0.439962 0.995625 0.533436 -0.041263
C98   C     C_R   0.821191 0.468962 0.646400 0.476554
C99   C     C_R   0.435409 0.009815 0.960929 -0.072155
C100  C     C_R   0.430413 0.980847 0.457560 -0.041557
C101  C     C_R   0.435867 0.993600 0.036534 -0.013579
C102  C     C_R   0.939962 0.495625 0.533436 -0.041261
C103  C     C_R   0.935409 0.509815 0.960929 -0.072154
C104  C     C_R   0.930413 0.480847 0.457560 -0.041557
C105  C     C_R   0.935867 0.493600 0.036534 -0.013579
C106  C     C_R   0.222855 0.011071 0.537804 0.013494
C107  C     C_R   0.220372 0.011817 0.963039 0.006303
C108  C     C_R   0.214973 0.993000 0.464363 0.010983
C109  C     C_R   0.819886 0.470124 0.852905 0.495977
C110  C     C_R   0.220772 0.989851 0.035482 0.000220
C111  C     C_R   0.722855 0.511071 0.537804 0.013495
C112  C     C_R   0.720372 0.511817 0.963039 0.006303
C113  C     C_R   0.714974 0.493000 0.464363 0.010982
C114  C     C_R   0.720772 0.489851 0.035482 0.000220
C115  C     C_R   0.117998 0.031943 0.574523 -0.084123
C116  C     C_R   0.111763 0.030464 0.930679 -0.063189
C117  C     C_R   0.100540 0.980067 0.434323 -0.092670
C118  C     C_R   0.112647 0.970940 0.068421 -0.090110
C119  C     C_R   0.617998 0.531944 0.574523 -0.084123
C120  C     C_R   0.818655 0.530235 0.352933 0.507372
C121  C     C_R   0.611763 0.530464 0.930679 -0.063189
C122  C     C_R   0.600540 0.480067 0.434323 -0.092670
C123  C     C_R   0.612647 0.470940 0.068421 -0.090110
C124  C     C_R   0.007349 0.014920 0.546413 -0.086708
C125  C     C_R   0.005453 0.017056 0.966199 -0.014497
C126  C     C_R   0.998376 0.988329 0.476136 -0.113243
C127  C     C_R   0.006079 0.986050 0.034662 -0.083805
C128  C     C_R   0.507349 0.514921 0.546413 -0.086708
C129  C     C_R   0.505453 0.517056 0.966199 -0.014496
C130  C     C_R   0.498376 0.488330 0.476137 -0.113243
C131  C     C_R   0.819932 0.530516 0.146401 0.550547
C132  C     C_R   0.506079 0.486050 0.034662 -0.083805
C133  C     C_R   0.184062 0.771951 0.636237 0.572418
C134  C     C_R   0.186103 0.771043 0.864302 0.530115
C135  C     C_R   0.188820 0.227580 0.363290 0.560620
C136  C     C_R   0.184470 0.229465 0.135365 0.542709
C137  C     C_R   0.684062 0.271951 0.636237 0.572418
C138  C     C_R   0.686103 0.271043 0.864302 0.530115
C139  C     C_R   0.688820 0.727580 0.363290 0.560619
C140  C     C_R   0.684469 0.729465 0.135365 0.542709
C141  C     C_R   0.538077 0.770740 0.643414 0.596186
C142  C     C_3   0.186376 0.705699 0.463727 0.279602
C143  C     C_R   0.505661 0.786481 0.863439 0.523621
C144  C     C_R   0.548403 0.232528 0.351536 0.558770
C145  C     C_R   0.507145 0.214026 0.136565 0.519963
C146  C     C_R   0.038077 0.270740 0.643414 0.596185
C147  C     C_R   0.005661 0.286481 0.863439 0.523621
C148  C     C_R   0.048403 0.732528 0.351536 0.558771
C149  C     C_R   0.007145 0.714025 0.136565 0.519963
C150  C     C_3   0.154357 0.817283 0.452973 -0.187638
C151  C     C_3   0.067028 0.797923 0.033188 -0.108196
C152  C     C_3   0.043381 0.192282 0.521825 -0.118483
Cr1   Cr    Cr6+3 0.488160 0.884660 0.750000 1.128947
Cr2   Cr    Cr6+3 0.333410 0.272740 0.250000 1.031391
Cr3   Cr    Cr6+3 0.833410 0.227260 0.750000 1.094251
Cr4   Cr    Cr6+3 0.833410 0.772740 0.250000 1.031391
Cr5   Cr    Cr6+3 0.488160 0.115340 0.250000 1.147370
Cr6   Cr    Cr6+3 0.988160 0.384660 0.750000 1.128947
Cr7   Cr    Cr6+3 0.988160 0.615340 0.250000 1.147370
Cr8   Cr    Cr6+3 0.173480 0.883120 0.750000 1.115078
Cr9   Cr    Cr6+3 0.173480 0.116880 0.250000 1.051461
Cr10  Cr    Cr6+3 0.673480 0.383120 0.750000 1.115079
Cr11  Cr    Cr6+3 0.673480 0.616880 0.250000 1.051461
Cr12  Cr    Cr6+3 0.333410 0.727260 0.750000 1.094251
H1    H     H_    0.335032 0.786807 0.509199 0.093461
H2    H     H_    0.923411 0.030909 0.940207 0.155652
H3    H     H_    0.912549 0.975150 0.453457 0.140632
H4    H     H_    0.924755 0.975791 0.063488 0.114024
H5    H     H_    0.429321 0.522474 0.579840 0.185119
H6    H     H_    0.423411 0.530909 0.940207 0.155652
H7    H     H_    0.412549 0.475150 0.453457 0.140633
H8    H     H_    0.424755 0.475791 0.063488 0.114024
H9    H     H_    0.185500 0.858890 0.416319 0.123192
H10   H     H_    0.026539 0.843245 0.060835 0.138497
H11   H     H_    0.978190 0.153978 0.541211 0.204097
H12   H     H_    0.267265 0.828913 0.020030 0.111675
H13   H     H_    0.017641 0.157747 0.941581 0.166930
H14   H     H_    0.685500 0.358890 0.416319 0.123192
H15   H     H_    0.526539 0.343245 0.060835 0.138497
H16   H     H_    0.478189 0.653979 0.541211 0.204097
H17   H     H_    0.517641 0.657747 0.941581 0.166930
H18   H     H_    0.016000 0.858845 0.540590 0.174123
H19   H     H_    0.963462 0.765550 0.917547 0.240813
H20   H     H_    0.964143 0.256300 0.419534 0.197422
H21   H     H_    0.958502 0.237822 0.083356 0.240597
H22   H     H_    0.516000 0.358845 0.540590 0.174124
H23   H     H_    0.228200 0.132429 0.489677 0.132686
H24   H     H_    0.463462 0.265550 0.917547 0.240813
H25   H     H_    0.464143 0.756300 0.419534 0.197422
H26   H     H_    0.458502 0.737822 0.083356 0.240597
H27   H     H_    0.915590 0.733097 0.477316 0.132569
H28   H     H_    0.956209 0.650412 0.992680 0.101294
H29   H     H_    0.023407 0.353721 0.522754 0.120252
H30   H     H_    0.956637 0.352259 0.006594 0.123718
H31   H     H_    0.415590 0.233096 0.477316 0.132569
H32   H     H_    0.456210 0.150412 0.992680 0.101294
H33   H     H_    0.523408 0.853721 0.522754 0.120253
H34   H     H_    0.262263 0.171555 0.981410 0.097944
H35   H     H_    0.456637 0.852259 0.006594 0.123718
H36   H     H_    0.082195 0.651005 0.555066 0.199059
H37   H     H_    0.205547 0.639231 0.947507 0.169307
H38   H     H_    0.276103 0.332052 0.482321 0.110191
H39   H     H_    0.198906 0.361985 0.054579 0.104890
H40   H     H_    0.582195 0.151005 0.555066 0.199059
H41   H     H_    0.705547 0.139232 0.947507 0.169307
H42   H     H_    0.776103 0.832052 0.482321 0.110192
H43   H     H_    0.698906 0.861985 0.054579 0.104890
H44   H     H_    0.717546 0.932499 0.424247 0.153414
H45   H     H_    0.835032 0.286807 0.509198 0.093460
H46   H     H_    0.734348 0.977428 0.057729 0.111768
H47   H     H_    0.741500 0.972192 0.548353 0.168356
H48   H     H_    0.733561 0.023892 0.935890 0.174807
H49   H     H_    0.217546 0.432498 0.424247 0.153415
H50   H     H_    0.234348 0.477428 0.057729 0.111768
H51   H     H_    0.241500 0.472192 0.548353 0.168356
H52   H     H_    0.233561 0.523892 0.935890 0.174807
H53   H     H_    0.089667 0.959786 0.379554 0.138499
H54   H     H_    0.110395 0.946933 0.121778 0.139319
H55   H     H_    0.121805 0.056384 0.627879 0.146911
H56   H     H_    0.767265 0.328914 0.020030 0.111675
H57   H     H_    0.109120 0.054375 0.877290 0.135715
H58   H     H_    0.589667 0.459786 0.379555 0.138499
H59   H     H_    0.610395 0.446933 0.121778 0.139319
H60   H     H_    0.621806 0.556384 0.627880 0.146911
H61   H     H_    0.609120 0.554375 0.877290 0.135715
H62   H     H_    0.423751 0.605741 0.373385 0.372167
H63   H     H_    0.460836 0.609152 0.092770 0.378390
H64   H     H_    0.352083 0.123876 0.640855 0.328574
H65   H     H_    0.367553 0.382120 0.995499 0.298626
H66   H     H_    0.923751 0.105742 0.373385 0.372167
H67   H     H_    0.728199 0.632429 0.489676 0.132688
H68   H     H_    0.960836 0.109152 0.092770 0.378390
H69   H     H_    0.852084 0.623876 0.640858 0.328577
H70   H     H_    0.867553 0.882120 0.995499 0.298626
H71   H     H_    0.433023 0.906798 0.324324 0.119325
H72   H     H_    0.637968 0.941014 0.170414 0.163499
H73   H     H_    0.513646 0.058879 0.667177 0.140161
H74   H     H_    0.468757 0.085147 0.831216 0.106745
H75   H     H_    0.933022 0.406798 0.324324 0.119325
H76   H     H_    0.137968 0.441014 0.170414 0.163499
H77   H     H_    0.013647 0.558879 0.667177 0.140159
H78   H     H_    0.762263 0.671555 0.981410 0.097944
H79   H     H_    0.968757 0.585147 0.831216 0.106744
H80   H     H_    0.929321 0.022473 0.579840 0.185118
O1    O     O_R   0.575450 0.828820 0.667950 -0.448823
O2    O     O_R   0.416860 0.942890 0.825320 -0.505817
O3    O     O_R   0.416860 0.057110 0.325320 -0.469044
O4    O     O_R   0.416860 0.057110 0.174680 -0.494966
O5    O     O_R   0.916860 0.442890 0.674680 -0.526253
O6    O     O_R   0.916860 0.442890 0.825320 -0.505816
O7    O     O_R   0.916860 0.557110 0.325320 -0.469044
O8    O     O_R   0.916860 0.557110 0.174680 -0.494966
O9    O     O_R   0.213790 0.953680 0.668330 -0.521691
O10   O     O_R   0.213790 0.953680 0.831670 -0.507211
O11   O     O_R   0.213790 0.046320 0.331670 -0.538092
O12   O     O_R   0.575450 0.828820 0.832050 -0.391521
O13   O     O_R   0.213790 0.046320 0.168330 -0.541228
O14   O     O_R   0.713790 0.453680 0.668330 -0.521691
O15   O     O_R   0.713790 0.453680 0.831670 -0.507210
O16   O     O_R   0.713790 0.546320 0.331670 -0.538092
O17   O     O_R   0.713790 0.546320 0.168330 -0.541228
O18   O     O_R   0.121360 0.817890 0.672660 -0.427924
O19   O     O_R   0.121360 0.817890 0.827340 -0.419126
O20   O     O_R   0.121360 0.182110 0.327340 -0.452975
O21   O     O_R   0.121360 0.182110 0.172660 -0.461250
O22   O     O_R   0.621360 0.317890 0.672660 -0.427923
O23   O     O_R   0.575450 0.171180 0.332050 -0.411954
O24   O     O_R   0.621360 0.317890 0.827340 -0.419126
O25   O     O_R   0.621360 0.682110 0.327340 -0.452975
O26   O     O_R   0.621360 0.682110 0.172660 -0.461250
O27   O     O_R   0.206850 0.711370 0.665820 -0.454855
O28   O     O_R   0.206850 0.711370 0.834180 -0.483369
O29   O     O_R   0.206850 0.288630 0.334180 -0.464693
O30   O     O_R   0.206850 0.288630 0.165820 -0.499524
O31   O     O_R   0.706850 0.211370 0.665820 -0.454854
O32   O     O_R   0.706850 0.211370 0.834180 -0.483369
O33   O     O_R   0.706850 0.788630 0.334180 -0.464693
O34   O     O_R   0.575450 0.171180 0.167950 -0.403913
O35   O     O_R   0.706850 0.788630 0.165820 -0.499524
O36   O     O_R   0.457710 0.733190 0.672630 -0.527144
O37   O     O_R   0.457710 0.733190 0.827370 -0.522978
O38   O     O_R   0.457710 0.266810 0.327370 -0.543998
O39   O     O_R   0.457710 0.266810 0.172630 -0.541743
O40   O     O_R   0.957710 0.233190 0.672630 -0.527144
O41   O     O_R   0.957710 0.233190 0.827370 -0.522978
O42   O     O_R   0.957710 0.766810 0.327370 -0.543998
O43   O     O_R   0.957710 0.766810 0.172630 -0.541743
O44   O     O_3   0.331690 0.831680 0.750000 -0.369387
O45   O     O_R   0.075450 0.328820 0.667950 -0.448823
O46   O     O_3   0.331690 0.168320 0.250000 -0.354829
O47   O     O_3   0.831690 0.331680 0.750000 -0.369387
O48   O     O_3   0.831690 0.668320 0.250000 -0.354829
O49   O     O_2   0.309672 0.595594 0.501351 -0.385063
O50   O     O_2   0.184295 0.579418 0.395728 -0.247288
O51   O     O_3   0.377212 0.649422 0.377584 -0.499099
O52   O     O_2   0.331302 0.692744 0.169866 -0.246538
O53   O     O_2   0.222629 0.590492 0.128079 -0.275527
O54   O     O_3   0.401354 0.621914 0.055389 -0.620484
O55   O     O_2   0.387239 0.297316 0.635088 -0.229743
O56   O     O_R   0.075450 0.328820 0.832050 -0.391520
O57   O     O_2   0.248511 0.223410 0.701364 -0.242444
O58   O     O_3   0.399489 0.162131 0.619270 -0.582295
O59   O     O_2   0.333541 0.306242 0.831718 -0.184470
O60   O     O_2   0.225068 0.408871 0.870856 -0.228464
O61   O     O_3   0.400605 0.378162 0.945959 -0.557792
O62   O     O_2   0.809673 0.095594 0.501351 -0.385063
O63   O     O_2   0.684295 0.079418 0.395728 -0.247288
O64   O     O_3   0.877212 0.149422 0.377584 -0.499098
O65   O     O_2   0.831302 0.192744 0.169866 -0.246538
O66   O     O_2   0.722629 0.090492 0.128079 -0.275526
O67   O     O_R   0.075450 0.671180 0.332050 -0.411954
O68   O     O_3   0.901354 0.121914 0.055389 -0.620484
O69   O     O_2   0.887240 0.797314 0.635087 -0.229743
O70   O     O_2   0.748511 0.723410 0.701364 -0.242446
O71   O     O_3   0.899487 0.662130 0.619270 -0.582299
O72   O     O_2   0.833541 0.806242 0.831718 -0.184470
O73   O     O_2   0.725068 0.908871 0.870856 -0.228464
O74   O     O_3   0.900605 0.878162 0.945958 -0.557792
O75   O     O_2   0.606346 0.915934 0.306294 -0.466231
O76   O     O_2   0.471857 0.905423 0.164881 -0.494758
O77   O     O_2   0.684092 0.036287 0.660072 -0.450715
O78   O     O_R   0.075450 0.671180 0.167950 -0.403913
O79   O     O_2   0.640344 0.064611 0.818598 -0.441104
O80   O     O_2   0.106346 0.415934 0.306293 -0.466231
O81   O     O_2   0.971857 0.405423 0.164881 -0.494758
O82   O     O_2   0.184092 0.536287 0.660071 -0.450716
O83   O     O_2   0.140344 0.564611 0.818598 -0.441105
O84   O     O_R   0.416860 0.942890 0.674680 -0.526253
S1    S     S_3+6 0.264811 0.629844 0.434065 -0.018142
S2    S     S_3+6 0.288335 0.654319 0.103103 -0.016195
S3    S     S_3+6 0.313577 0.232072 0.630360 0.017449
S4    S     S_3+6 0.288629 0.345238 0.897454 0.015620
S5    S     S_3+6 0.764811 0.129844 0.434065 -0.018142
S6    S     S_3+6 0.788335 0.154319 0.103103 -0.016194
S7    S     S_3+6 0.813577 0.732071 0.630360 0.017448
S8    S     S_3+6 0.788629 0.845238 0.897454 0.015620

loop_
_geom_bond_atom_site_label_1
_geom_bond_atom_site_label_2
_ccdc_geom_bond_type
C6    C32   S    
O69   S7    D    
C21   C137  S    
C110  C118  A    
C139  O25   A    
C64   C152  S    
C85   C105  A    
C133  O27   A    
C72   C101  A    
C121  H61   S    
C9    H12   S    
C116  H57   S    
C76   O11   A    
C5    H15   S    
C113  C122  A    
Cr8   O19   S    
C58   O81   D    
C117  H53   S    
C149  O78   A    
C124  H80   S    
C117  C126  A    
C21   C48   S    
C119  C128  A    
C98   O14   A    
C148  O42   A    
C71   C108  A    
C7    C33   S    
C14   H56   S    
C11   C20   S    
C94   H50   S    
C79   C109  S    
C59   O82   D    
C25   C140  S    
C54   H73   S    
Cr4   O35   S    
C126  H3    S    
O71   S7    S    
C120  O16   A    
C123  H59   S    
C137  O31   A    
C82   C91   A    
C37   H29   S    
Cr8   O9    S    
C109  O15   A    
Cr2   O29   S    
C8    C150  S    
O63   S5    D    
C18   C44   S    
C90   C92   A    
C130  H7    S    
Cr1   O2    S    
Cr11  O17   S    
O61   S4    S    
C111  C113  A    
C94   C96   A    
C22   C49   S    
C81   C90   A    
C26   H18   S    
C91   H47   S    
C99   C101  A    
C17   C133  S    
C107  C110  A    
C36   C44   S    
C144  O23   A    
C37   C45   S    
C41   C69   S    
C21   C30   S    
C16   C25   S    
O49   S1    D    
C9    C151  S    
C60   H79   S    
C62   C150  S    
C64   C146  S    
C50   C57   S    
C139  O33   A    
Cr3   O32   S    
C96   H52   S    
C98   O5    A    
C8    C17   S    
C2    S2    S    
C106  C115  A    
Cr7   O7    S    
C13   C45   S    
C12   C21   S    
O52   S2    D    
C84   C93   A    
Cr5   O4    S    
C27   H19   S    
C20   C47   S    
C3    C11   S    
C86   C95   A    
Cr10  O14   S    
C122  H58   S    
C125  C127  A    
C43   C142  S    
C132  H8    S    
C69   C141  S    
O50   S1    D    
C16   H78   S    
C6    C69   S    
C65   O2    A    
C134  O19   A    
C123  C132  A    
Cr6   O5    S    
C87   O13   A    
C112  C114  A    
C60   C88   S    
C81   C101  A    
C70   C143  S    
C33   C42   S    
O59   S4    D    
C51   H43   S    
C134  O28   A    
C40   C49   S    
C42   C70   S    
C111  C119  A    
C77   C131  S    
C3    C29   S    
Cr7   O48   S    
O53   S2    D    
Cr9   O21   S    
C29   C38   S    
C141  O1    A    
C32   C41   S    
C78   C111  A    
C75   C113  A    
C89   C91   A    
Cr11  O48   S    
C135  O20   A    
C93   C95   A    
C151  H10   S    
C62   C148  S    
Cr8   O18   S    
C79   C103  A    
C62   C142  S    
C143  O37   A    
C7    H17   S    
C129  H6    S    
C41   H33   S    
C45   H38   S    
C65   C74   S    
C135  O29   A    
C46   C68   S    
C137  O22   A    
C57   S7    S    
C35   C67   S    
C103  C105  A    
H63   O54   S    
C20   C136  S    
C12   C35   S    
C19   C28   S    
C53   H72   S    
Cr6   O56   S    
C114  C123  A    
C50   H42   S    
Cr12  O27   S    
C116  C125  A    
C84   C104  A    
C53   O76   D    
C92   H48   S    
Cr3   O41   S    
C16   C61   S    
H70   O74   S    
C61   S8    S    
C145  O39   A    
C72   C87   S    
C146  O40   A    
C2    C63   S    
C124  C126  A    
C6    H16   S    
C36   H28   S    
C108  C117  A    
C75   C120  S    
C4    H14   S    
C19   C45   S    
C48   H40   S    
O57   S3    D    
C14   C22   S    
C28   H20   S    
C11   H34   S    
C112  C121  A    
C106  C108  A    
C28   C37   S    
Cr10  O24   S    
C29   H21   S    
C30   C39   S    
C18   C134  S    
C107  C116  A    
C8    H1    S    
C147  O41   A    
C9    C18   S    
C150  H9    S    
C118  C127  A    
C17   C43   S    
C24   S4    S    
C2    C9    S    
Cr4   O43   S    
C25   C33   S    
C131  O17   A    
C86   C102  A    
C61   C70   S    
C88   C96   A    
C78   C102  A    
C149  O43   A    
O60   S4    D    
C97   C100  A    
C7    C70   S    
C14   C46   S    
C46   C49   S    
C79   C112  A    
Cr11  O25   S    
O74   S8    S    
C42   H35   S    
C71   C76   S    
C146  O45   A    
C35   C48   S    
O73   S8    D    
C19   C135  S    
C34   C62   S    
O68   S6    S    
C31   C40   S    
Cr4   O48   S    
C53   C81   S    
Cr8   O10   S    
C80   C89   A    
Cr2   O30   S    
C10   C152  S    
C152  H11   S    
C127  H4    S    
C52   O75   D    
Cr1   O1    S    
C118  H54   S    
C55   O79   D    
C43   H36   S    
C4    C12   S    
C24   C66   S    
C129  C132  A    
C15   H67   S    
C83   C99   A    
Cr2   O39   S    
Cr6   O47   S    
C5    C68   S    
C67   C144  S    
Cr5   O46   S    
O58   S3    S    
C1    O9    A    
C56   C84   S    
O55   S3    D    
C109  O6    A    
O54   S2    S    
Cr12  O44   S    
C93   H49   S    
C26   C150  S    
Cr3   O31   S    
C23   C50   S    
Cr11  O26   S    
Cr10  O22   S    
C38   H30   S    
C33   H26   S    
C10   C19   S    
C65   O10   A    
C47   H39   S    
C54   O77   D    
Cr5   O3    S    
C63   C151  S    
C5    C14   S    
O70   S7    D    
C148  O67   A    
C7    C16   S    
H68   O68   S    
C49   H41   S    
Cr10  O15   S    
Cr10  O47   S    
H64   O58   S    
C75   C104  A    
C82   C97   A    
C76   O3    A    
C77   C114  A    
O62   S5    D    
C41   C50   S    
C54   C82   S    
C37   C64   S    
C27   C151  S    
C115  C124  A    
C136  O30   A    
Cr6   O6    S    
C141  O36   A    
C121  C129  A    
C128  C130  A    
C12   H45   S    
C74   C99   A    
C27   C36   S    
C71   C100  A    
C22   C138  S    
H62   O51   S    
C1    C73   S    
C23   C32   S    
C77   C105  A    
O65   S6    D    
C58   C85   S    
C13   C64   S    
C138  O24   A    
C119  H60   S    
C140  O26   A    
Cr12  O37   S    
C125  H2    S    
O51   S1    S    
C55   H74   S    
C1    O84   A    
C40   C68   S    
C8    C142  S    
Cr6   O45   S    
C52   C80   S    
C68   C145  S    
C52   H71   S    
C39   C48   S    
C95   H51   S    
C56   H75   S    
C145  O34   A    
C51   C61   S    
C120  O7    A    
Cr4   O42   S    
C87   O4    A    
C73   C97   A    
C83   C92   A    
C17   C26   S    
C30   H22   S    
C23   C139  S    
C34   H27   S    
Cr7   O8    S    
C89   H44   S    
C11   C24   S    
Cr3   O40   S    
C63   C149  S    
C5    C31   S    
Cr7   O67   S    
Cr5   O34   S    
C26   C34   S    
C38   C66   S    
C31   H24   S    
C78   C98   S    
Cr7   O78   S    
C36   C63   S    
C42   C51   S    
C15   C23   S    
C6    C15   S    
C80   C100  A    
C15   C57   S    
C140  O35   A    
C115  H55   S    
C58   H76   S    
C20   C29   S    
C133  O18   A    
Cr5   O23   S    
C72   C110  A    
C22   C31   S    
H65   O61   S    
C2    C44   S    
C90   H46   S    
Cr11  O16   S    
Cr2   O46   S    
C138  O32   A    
C136  O21   A    
Cr8   O44   S    
C25   C51   S    
C39   H31   S    
H66   O64   S    
C85   C94   A    
Cr1   O44   S    
C10   H23   S    
C66   C147  S    
C102  C104  A    
C38   C47   S    
C74   C107  A    
Cr1   O12   S    
C28   C152  S    
C143  O12   A    
C44   H37   S    
C142  S1    S    
Cr9   O11   S    
C88   C103  A    
C131  O8    A    
C40   H32   S    
Cr9   O13   S    
O72   S8    D    
Cr3   O47   S    
C24   C47   S    
C39   C67   S    
C18   C27   S    
C13   S3    S    
C10   C13   S    
C4    C67   S    
C59   H77   S    
H69   O71   S    
Cr9   O46   S    
C3    H13   S    
C59   C86   S    
Cr4   O33   S    
Cr1   O84   S    
C56   O80   D    
C144  O38   A    
Cr9   O20   S    
C73   C106  A    
C122  C130  A    
C32   H25   S    
Cr12  O28   S    
Cr2   O38   S    
C3    C66   S    
C128  H5    S    
C147  O56   A    
Cr12  O36   S    
C46   S6    S    
C60   O83   D    
C57   C69   S    
C34   C43   S    
C55   C83   S    
C35   S5    S    
C4    C30   S    
O64   S5    S    
O66   S6    D    
