data_mof_unit_25942.cif
_audit_creation_date              2012-10-26T20:07:48-0400
_audit_creation_method            fapswitch 2.2
_symmetry_space_group_name_H-M    P1
_symmetry_Int_Tables_number       1
_space_group_crystal_system       triclinic
_cell_length_a                    9.576923
_cell_length_b                    10.85568
_cell_length_c                    17.153029
_cell_angle_alpha                 86.053412
_cell_angle_beta                  92.203434
_cell_angle_gamma                 89.911595
_cell_volume                      1777.73775607

loop_
_atom_site_label
_atom_site_type_symbol
_atom_type_description
_atom_site_fract_x
_atom_site_fract_y
_atom_site_fract_z
_atom_type_partial_charge
C1    C     C_R   0.499246 0.263194 0.491959 0.572754
C2    C     C_R   0.070942 0.586535 0.453864 0.144065
C3    C     C_R   0.515390 0.503999 0.651169 0.539044
C4    C     C_R   0.484611 0.495917 0.348838 0.539304
C5    C     C_R   0.518018 0.507628 0.738477 -0.027456
C6    C     C_R   0.481946 0.492116 0.261538 -0.027536
C7    C     C_R   0.391951 0.530873 0.777649 -0.028298
C8    C     C_R   0.608066 0.469258 0.222316 -0.028132
C9    C     C_R   0.387716 0.508991 0.859885 0.045323
C10   C     C_R   0.612081 0.491045 0.140065 0.045463
C11   C     C_R   0.508915 0.466469 0.902412 0.166964
C12   C     C_R   0.500749 0.736810 0.508038 0.572819
C13   C     C_R   0.490659 0.533109 0.097587 0.167054
C14   C     C_R   0.632649 0.449464 0.864877 -0.111963
C15   C     C_R   0.366882 0.549633 0.135166 -0.111932
C16   C     C_R   0.641214 0.475611 0.784593 -0.029830
C17   C     C_R   0.358534 0.523522 0.215463 -0.030107
C18   C     C_R   0.370737 0.062385 0.493798 -0.014210
C19   C     C_R   0.629233 0.937635 0.506189 -0.014202
C20   C     C_2   0.733388 0.417496 0.266629 0.345694
C21   C     C_2   0.266943 0.583151 0.733286 0.345768
C22   C     C_2   0.740420 0.469852 0.096346 0.320510
C23   C     C_R   0.376087 0.937162 0.518583 0.044897
C24   C     C_2   0.259367 0.530522 0.903524 0.320643
C25   C     C_2   0.783432 0.473837 0.753957 0.265758
C26   C     C_2   0.216332 0.524580 0.246151 0.266169
C27   C     C_2   0.232576 0.117628 0.468606 0.328252
C28   C     C_2   0.767401 0.882429 0.531407 0.328210
C29   C     C_2   0.858308 0.312953 0.592650 0.304370
C30   C     C_2   0.141676 0.686872 0.407197 0.304475
C31   C     C_R   0.623869 0.062848 0.481384 0.044855
C32   C     C_R   0.502821 0.871602 0.515746 0.005187
C33   C     C_R   0.497152 0.128408 0.484241 0.005245
C34   C     C_R   0.077899 0.415926 0.547851 0.244695
C35   C     C_R   0.922101 0.584092 0.452161 0.244377
C36   C     C_R   0.929058 0.413431 0.546109 0.144364
Cu1   Cu    Cu3+1 0.640660 0.500020 0.500000 1.057569
Cu2   Cu    Cu3+1 0.359340 0.499980 0.500000 1.057725
H1    H     H_    0.725908 0.422622 0.899921 0.143464
H2    H     H_    0.860559 0.905815 0.499851 0.176295
H3    H     H_    0.768830 0.329505 0.626079 0.144109
H4    H     H_    0.230743 0.670107 0.373509 0.143729
H5    H     H_    0.273462 0.576049 0.100151 0.143344
H6    H     H_    0.720723 0.344032 0.311391 0.149134
H7    H     H_    0.280062 0.656667 0.688614 0.148768
H8    H     H_    0.766601 0.533662 0.047613 0.127979
H9    H     H_    0.232852 0.466742 0.952205 0.127884
H10   H     H_    0.854593 0.398734 0.772817 0.123294
H11   H     H_    0.144587 0.599168 0.227179 0.123915
H12   H     H_    0.139442 0.094338 0.500210 0.176248
I1    I     I_    0.200604 0.859829 0.578473 -0.229699
I2    I     I_    0.799226 0.140170 0.421388 -0.229992
I3    I     I_    0.188211 0.295319 0.634538 -0.190602
I4    I     I_    0.811776 0.704818 0.365542 -0.190512
N1    N     N_2   0.512658 0.450718 0.984771 -0.242328
N2    N     N_2   0.486823 0.548858 0.015231 -0.242494
N3    N     N_R   0.852070 0.500030 0.499980 -0.269846
N4    N     N_R   0.147930 0.499970 0.500020 -0.269761
O1    O     O_R   0.618740 0.319660 0.500000 -0.514472
O2    O     O_2   0.150228 0.542004 0.744277 -0.423006
O3    O     O_2   0.812842 0.377905 0.111047 -0.435853
O4    O     O_2   0.187310 0.622691 0.888817 -0.435606
O5    O     O_2   0.826220 0.560828 0.712749 -0.383691
O6    O     O_2   0.174242 0.437520 0.287542 -0.383573
O7    O     O_2   0.220453 0.186349 0.409272 -0.409885
O8    O     O_2   0.779503 0.813649 0.590716 -0.410257
O9    O     O_2   0.898630 0.206202 0.593114 -0.488415
O10   O     O_2   0.101605 0.793699 0.406784 -0.488028
O11   O     O_R   0.381260 0.680340 0.500000 -0.514051
O12   O     O_R   0.381170 0.319630 0.500010 -0.456558
O13   O     O_R   0.618830 0.680370 0.499990 -0.456485
O14   O     O_R   0.631780 0.498870 0.613920 -0.483567
O15   O     O_R   0.368220 0.501130 0.386080 -0.483760
O16   O     O_R   0.394210 0.498840 0.613930 -0.509596
O17   O     O_R   0.605790 0.501160 0.386070 -0.509722
O18   O     O_2   0.849898 0.458985 0.255473 -0.424290

loop_
_geom_bond_atom_site_label_1
_geom_bond_atom_site_label_2
_ccdc_geom_bond_type
C2    C35   A    
C12   O11   A    
Cu2   O12   S    
C31   I2    S    
N1    N2    D    
C19   C31   A    
C1    C33   S    
C10   C22   S    
C29   C36   S    
C8    C20   S    
C17   C26   S    
C1    O1    A    
C11   C14   A    
C28   H2    S    
C20   O18   D    
C7    C9    A    
C25   O5    D    
C3    O16   A    
C26   O6    D    
C5    C16   A    
C14   H1    S    
C29   O9    D    
C4    O17   A    
C31   C33   A    
C27   H12   S    
C13   N2    S    
Cu1   O17   S    
Cu2   O11   S    
Cu2   N4    S    
C12   C32   S    
C35   I4    S    
C19   C32   A    
C20   H6    S    
C21   H7    S    
C18   C23   A    
C21   O2    D    
C4    C6    S    
C36   N3    A    
C26   H11   S    
C5    C7    A    
C6    C8    A    
C7    C21   S    
C28   O8    D    
Cu1   Cu2   S    
C27   O7    D    
C23   I1    S    
C19   C28   S    
C9    C11   A    
C25   H10   S    
C4    O15   A    
Cu1   O1    S    
C22   H8    S    
C12   O13   A    
Cu1   O13   S    
C14   C16   A    
C11   N1    S    
Cu2   O16   S    
C16   C25   S    
C15   C17   A    
C6    C17   A    
C24   O4    D    
C29   H3    S    
C24   H9    S    
C18   C27   S    
C3    C5    S    
C10   C13   A    
C2    N4    A    
C9    C24   S    
C1    O12   A    
C35   N3    A    
C2    C30   S    
C23   C32   A    
C13   C15   A    
C3    O14   A    
C15   H5    S    
C22   O3    D    
C34   C36   A    
C18   C33   A    
Cu1   N3    S    
C34   I3    S    
C8    C10   A    
Cu1   O14   S    
C34   N4    A    
C30   H4    S    
C30   O10   D    
Cu2   O15   S    
