data_mof_unit_17362.cif
_audit_creation_date              2012-12-11T14:21:09-0500
_audit_creation_method            fapswitch 2.2
_symmetry_space_group_name_H-M    P1
_symmetry_Int_Tables_number       1
_space_group_crystal_system       triclinic
_cell_length_a                    21.959348
_cell_length_b                    7.203895
_cell_length_c                    14.914583
_cell_angle_alpha                 90.165193
_cell_angle_beta                  107.089686
_cell_angle_gamma                 90.045569
_cell_volume                      2255.19126054

loop_
_atom_site_label
_atom_site_type_symbol
_atom_type_description
_atom_site_fract_x
_atom_site_fract_y
_atom_site_fract_z
_atom_type_partial_charge
O1    O     O_R   0.584770 0.505770 0.002090 -0.544219
O2    O     O_R   0.415230 0.005770 0.997910 -0.543869
O3    O     O_R   0.467060 0.173340 0.861950 -0.539436
O4    O     O_R   0.532940 0.673340 0.138050 -0.538533
C1    C     C_R   0.455180 0.343762 0.825833 0.705979
C2    C     C_R   0.544847 0.844426 0.174100 0.704974
O5    O     O_R   0.587510 0.175890 0.993210 -0.506776
O6    O     O_R   0.412490 0.675890 0.006790 -0.506325
O7    O     O_R   0.536540 0.008150 0.130100 -0.538371
O8    O     O_R   0.463460 0.508150 0.869900 -0.539071
C3    C     C_R   0.613231 0.344277 0.998016 0.757748
C4    C     C_R   0.386772 0.844181 0.001967 0.755410
O9    O     O_3   0.483140 0.340040 0.044760 -0.377774
O10   O     O_3   0.516860 0.840040 0.955240 -0.378707
V1    V     V_3+5 0.503130 0.064190 0.991700 1.507287
V2    V     V_3+5 0.496870 0.564190 0.008300 1.508653
C5    C     C_2   0.212434 0.726788 0.998625 -0.231778
C6    C     C_2   0.787387 0.226698 0.000809 -0.232203
C7    C     C_2   0.179559 0.886742 0.992621 -0.332656
C8    C     C_2   0.820450 0.386604 0.007354 -0.330841
H1    H     H_    0.188722 0.598110 0.006433 0.144314
H2    H     H_    0.810929 0.098028 0.992536 0.143228
H3    H     H_    0.200763 0.017696 0.982137 0.140304
H4    H     H_    0.799399 0.517549 0.018241 0.138497
C9    C     C_2   0.279202 0.709387 0.991879 0.383383
C10   C     C_2   0.720619 0.209418 0.007565 0.385206
C11   C     C_2   0.319642 0.856302 0.004555 -0.284293
C12   C     C_2   0.680367 0.356421 0.995428 -0.278684
H5    H     H_    0.303858 0.992950 0.018454 0.097705
H6    H     H_    0.696297 0.493056 0.981917 0.095161
C13   C     C_R   0.926419 0.882515 0.723917 -0.027205
C14   C     C_R   0.073663 0.386426 0.276186 -0.026988
C15   C     C_R   0.572654 0.850383 0.275859 -0.070967
C16   C     C_R   0.427517 0.346424 0.723948 -0.072882
C17   C     C_R   0.936896 0.829975 0.569422 -0.153268
C18   C     C_R   0.062957 0.377411 0.432444 -0.153761
C19   C     C_R   0.964771 0.857516 0.665155 -0.173327
C20   C     C_R   0.035381 0.392404 0.335962 -0.173404
C21   C     C_R   0.860063 0.882254 0.686852 -0.205196
C22   C     C_R   0.139750 0.368939 0.312928 -0.204633
C23   C     C_R   0.830348 0.850107 0.590037 0.083711
C24   C     C_R   0.169111 0.352220 0.410801 0.083892
C25   C     C_R   0.870269 0.824340 0.531654 0.122086
C26   C     C_R   0.129202 0.356360 0.470168 0.122361
C27   C     C_R   0.762713 0.840819 0.549770 0.060185
C28   C     C_R   0.236397 0.331675 0.451347 0.060175
C29   C     C_R   0.735950 0.818347 0.450462 0.028333
C30   C     C_R   0.263130 0.326825 0.551275 0.027728
C31   C     C_R   0.778098 0.772846 0.396701 -0.049672
C32   C     C_R   0.220379 0.309064 0.606843 -0.050462
C33   C     C_R   0.843852 0.783288 0.436930 -0.237226
C34   C     C_R   0.155017 0.331091 0.566341 -0.238213
C35   C     C_R   0.721048 0.845791 0.606129 -0.208501
C36   C     C_R   0.277572 0.309248 0.395004 -0.209064
C37   C     C_R   0.655553 0.834398 0.567319 -0.158352
C38   C     C_R   0.342685 0.287820 0.434117 -0.157011
C39   C     C_R   0.628118 0.830522 0.470281 0.101318
C40   C     C_R   0.370524 0.299947 0.530890 0.102615
C41   C     C_R   0.668112 0.833355 0.410633 0.014651
C42   C     C_R   0.331269 0.330481 0.590251 0.014013
C43   C     C_R   0.561062 0.826343 0.432192 0.377829
C44   C     C_R   0.437303 0.283027 0.568924 0.376640
C45   C     C_R   0.533978 0.830569 0.334419 -0.244023
C46   C     C_R   0.464916 0.299916 0.666219 -0.243078
C47   C     C_R   0.638684 0.859504 0.313778 -0.202558
C48   C     C_R   0.361955 0.370201 0.685692 -0.205330
H7    H     H_    0.875085 0.751151 0.394463 0.127950
H8    H     H_    0.123418 0.321113 0.610136 0.129219
H9    H     H_    0.665906 0.891354 0.266246 0.141818
H10   H     H_    0.336130 0.421120 0.731973 0.143784
H11   H     H_    0.482768 0.821511 0.303933 0.103373
H12   H     H_    0.515643 0.278756 0.696995 0.104281
H13   H     H_    0.626230 0.833793 0.614423 0.170341
H14   H     H_    0.371494 0.265840 0.387226 0.170517
H15   H     H_    0.967528 0.808708 0.525060 0.118744
H16   H     H_    0.032318 0.380009 0.477687 0.118386
H17   H     H_    0.016193 0.856236 0.693664 0.110609
H18   H     H_    0.984170 0.406348 0.307824 0.110060
H19   H     H_    0.833392 0.906273 0.735901 0.094280
H20   H     H_    0.166541 0.370892 0.262937 0.094069
H21   H     H_    0.737499 0.851228 0.681532 0.124306
H22   H     H_    0.260856 0.300373 0.319704 0.124397
O11   O     O_R   0.036450 0.233070 0.130130 -0.537378
O12   O     O_R   0.963550 0.733070 0.869870 -0.537288
O13   O     O_R   0.912470 0.560570 0.006790 -0.545477
O14   O     O_R   0.087530 0.060570 0.993210 -0.545355
C49   C     C_R   0.887107 0.391991 0.003193 0.752415
C50   C     C_R   0.112892 0.892075 0.996790 0.752551
O15   O     O_R   0.032920 0.562940 0.138050 -0.539641
O16   O     O_R   0.967080 0.062940 0.861950 -0.539555
O17   O     O_R   0.084790 0.730500 0.002090 -0.536843
O18   O     O_R   0.915210 0.230500 0.997910 -0.537011
C51   C     C_R   0.045044 0.394700 0.174578 0.684084
C52   C     C_R   0.955007 0.894017 0.825452 0.684019
O19   O     O_3   0.016820 0.396170 0.955260 -0.378597
O20   O     O_3   0.983180 0.896170 0.044740 -0.378694
V3    V     V_3+5 0.996880 0.672090 0.008300 1.421172
V4    V     V_3+5 0.003120 0.172090 0.991700 1.421076
C53   C     C_1   0.757383 0.686271 0.305048 0.299034
N1    N     N_1   0.741212 0.616235 0.231862 -0.365061
C54   C     C_1   0.239257 0.239534 0.701940 0.299628
N2    N     N_1   0.253932 0.183184 0.777909 -0.365465
O21   O     O_3   0.523132 0.815974 0.491420 -0.644738
H23   H     H_    0.477703 0.815122 0.453460 0.305147
O22   O     O_3   0.474338 0.246507 0.510274 -0.644960
H24   H     H_    0.519686 0.238508 0.548167 0.304790
O23   O     O_3   0.300582 0.536500 0.973924 -0.627096
H25   H     H_    0.265323 0.445580 0.964286 0.286411
O24   O     O_3   0.699038 0.036508 0.024950 -0.629353
H26   H     H_    0.734176 0.945549 0.034241 0.281320

loop_
_geom_bond_atom_site_label_1
_geom_bond_atom_site_label_2
_ccdc_geom_bond_type
C40   C44   A    
C54   N2    T    
C11   H5    S    
C35   C37   A    
C6    C10   S    
O2    C4    A    
C16   C48   A    
C2    O7    A    
O19   V4    S    
C15   C47   A    
C29   C31   A    
C44   O22   S    
O5    C3    A    
C17   H15   S    
O12   V3    S    
C17   C19   A    
O14   C50   A    
C39   C41   A    
C40   C42   A    
O11   C51   A    
C8    C49   S    
C35   H21   S    
C24   C28   A    
C43   C45   A    
C4    C11   S    
C44   C46   A    
C18   H16   S    
C8    H4    S    
C13   C21   A    
C31   C33   A    
O11   V4    S    
O1    C3    A    
C32   C34   A    
O23   H25   S    
C22   H20   S    
C30   C42   A    
C14   C20   A    
C17   C25   A    
C34   H8    S    
O6    C4    A    
C26   C34   A    
O5    V1    S    
C14   C51   S    
C42   C48   A    
O6    V2    S    
C49   O18   A    
C1    C16   S    
C23   C25   A    
C24   C26   A    
O16   C52   A    
C28   C30   A    
C27   C29   A    
C36   C38   A    
C38   H14   S    
O13   C49   A    
O18   V4    S    
O4    C2    A    
C7    C50   S    
O12   C52   A    
C20   H18   S    
C19   H17   S    
C27   C35   A    
C5    H1    S    
C13   C19   A    
O15   V3    S    
C21   H19   S    
O4    V2    S    
C7    H3    S    
C31   C53   S    
C53   N1    T    
C50   O17   A    
C15   C45   A    
O20   V3    S    
C28   C36   A    
C16   C46   A    
O1    V2    S    
C33   H7    S    
O17   V3    S    
O2    V1    S    
C10   O24   S    
C45   H11   S    
C37   C39   A    
C18   C26   A    
C18   C20   A    
C36   H22   S    
C14   C22   A    
O3    V1    S    
C9    O23   S    
C43   O21   S    
C6    H2    S    
C22   C24   A    
O3    C1    A    
C39   C43   A    
C9    C11   D    
C13   C52   S    
O22   H24   S    
C10   C12   D    
C2    C15   S    
C5    C9    S    
C12   H6    S    
O7    V1    S    
C1    O8    A    
O8    V2    S    
O24   H26   S    
C41   C47   A    
C25   C33   A    
C48   H10   S    
C3    C12   S    
C47   H9    S    
C30   C32   A    
C5    C7    D    
C38   C40   A    
C6    C8    D    
C46   H12   S    
O15   C51   A    
O14   V4    S    
O13   V3    S    
C29   C41   A    
C37   H13   S    
C21   C23   A    
C32   C54   S    
O9    V2    S    
O21   H23   S    
C23   C27   A    
O10   V1    S    
O16   V4    S    
