data_mof_unit_22225.cif
_audit_creation_date              2012-12-11T14:35:55-0500
_audit_creation_method            fapswitch 2.2
_symmetry_space_group_name_H-M    P1
_symmetry_Int_Tables_number       1
_space_group_crystal_system       triclinic
_cell_length_a                    13.662576
_cell_length_b                    13.64551
_cell_length_c                    27.393633
_cell_angle_alpha                 90.599748
_cell_angle_beta                  90.601547
_cell_angle_gamma                 59.71203
_cell_volume                      4409.64213356

loop_
_atom_site_label
_atom_site_type_symbol
_atom_type_description
_atom_site_fract_x
_atom_site_fract_y
_atom_site_fract_z
_atom_type_partial_charge
C1    C     C_R   0.620913 0.101044 0.569870 0.540079
C2    C     C_1   0.644784 0.709986 0.659081 -0.006550
C3    C     C_3   0.845800 0.887285 0.771892 -0.106320
C4    C     C_3   0.962562 0.556827 0.130508 -0.057322
C5    C     C_3   0.432742 0.747062 0.092852 -0.046859
C6    C     C_3   0.288675 0.806247 0.197326 -0.097714
C7    C     C_3   0.483165 0.618285 0.400596 -0.072265
C8    C     C_3   0.013558 0.012672 0.136213 -0.069182
C9    C     C_3   0.171377 0.856559 0.332378 -0.170451
C10   C     C_3   0.349798 0.309822 0.321122 -0.130601
C11   C     C_3   0.639319 0.330564 0.426967 -0.105451
C12   C     C_3   0.369711 0.532219 0.301275 -0.114166
C13   C     C_3   0.100394 0.133754 0.737877 0.318918
C14   C     C_3   0.944781 0.843466 0.306044 -0.059179
C15   C     C_3   0.068504 0.005509 0.695366 -0.060464
C16   C     C_R   0.599474 0.780139 0.568638 0.540431
C17   C     C_3   0.186503 0.054991 0.776746 -0.122370
C18   C     C_1   0.098567 0.199063 0.902712 0.011419
C19   C     C_1   0.235759 0.136613 0.618300 0.034143
C20   C     C_3   0.065053 0.239188 0.770421 -0.011928
C21   C     C_3   0.154235 0.160962 0.808589 -0.044874
C22   C     C_3   0.158382 0.253623 0.746482 0.322026
C23   C     C_3   0.190524 0.150837 0.713446 0.066870
C24   C     C_1   0.629477 0.734907 0.616675 0.014516
C25   C     C_3   0.246967 0.177287 0.784832 -0.110172
C26   C     C_3   0.278935 0.072110 0.751737 -0.189193
C27   C     C_1   0.128710 0.176642 0.860869 -0.022730
C28   C     C_R   0.279584 0.121342 0.569819 0.545362
C29   C     C_1   0.211298 0.144947 0.660845 0.049058
C30   C     C_3   0.690501 0.245611 0.740275 0.289331
C31   C     C_3   0.586658 0.288195 0.773583 0.264114
C32   C     C_1   0.686862 0.208759 0.904076 0.028779
C33   C     C_1   0.639398 0.133014 0.617490 0.027031
C34   C     C_3   0.761128 0.148142 0.776105 0.266609
C35   C     C_3   0.670660 0.576368 0.769351 -0.071359
C36   C     C_3   0.656218 0.190213 0.809133 -0.059557
C37   C     C_3   0.724917 0.072381 0.748526 0.246103
C38   C     C_3   0.656100 0.169170 0.712198 0.004575
C39   C     C_3   0.619659 0.113389 0.781464 -0.184115
C40   C     C_R   0.621826 0.099001 0.431187 0.546846
C41   C     C_3   0.550690 0.212558 0.745159 0.165416
C42   C     C_1   0.667173 0.199401 0.861935 0.005344
C43   C     C_1   0.650254 0.151955 0.659601 0.040310
C44   C     C_R   0.736047 0.687774 0.360670 -0.145446
C45   C     C_R   0.751945 0.663503 0.310350 0.042038
C46   C     C_3   0.673976 0.660152 0.806507 0.011749
C47   C     C_R   0.769691 0.650633 0.207290 -0.011703
C48   C     C_R   0.863656 0.627466 0.237168 -0.007580
C49   C     C_R   0.856302 0.628598 0.288060 0.273887
C50   C     C_R   0.775713 0.645150 0.155646 0.257213
C51   C     C_R   0.683584 0.652417 0.128404 0.042711
C52   C     C_R   0.600576 0.776647 0.430060 0.541428
C53   C     C_R   0.548089 0.711013 0.354052 0.265969
C54   C     C_R   0.557116 0.704425 0.303214 0.004406
C55   C     C_R   0.659183 0.680290 0.281121 -0.032472
C56   C     C_R   0.465223 0.721447 0.274216 -0.098266
C57   C     C_3   0.570322 0.677719 0.742969 -0.143067
C58   C     C_R   0.472670 0.714692 0.223447 0.261874
C59   C     C_R   0.572468 0.695393 0.201054 0.045790
C60   C     C_R   0.667961 0.673335 0.229799 -0.083282
C61   C     C_R   0.576782 0.698553 0.150161 0.261963
C62   C     C_R   0.632038 0.718124 0.382217 -0.030402
C63   C     C_R   0.164744 0.085884 0.367992 -0.112704
C64   C     C_R   0.272284 0.124057 0.433136 0.536578
C65   C     C_R   0.133120 0.100334 0.318219 0.036805
C66   C     C_R   0.103372 0.112726 0.215227 -0.023711
C67   C     C_R   0.086878 0.035741 0.243416 -0.124521
C68   C     C_3   0.655823 0.690468 0.711576 0.049806
C69   C     C_R   0.103538 0.027843 0.294223 0.264288
C70   C     C_R   0.095081 0.117460 0.163284 0.262461
C71   C     C_R   0.099472 0.206444 0.138244 0.038732
C72   C     C_R   0.175273 0.256264 0.365935 -0.098079
C73   C     C_R   0.162056 0.261861 0.315498 0.034926
C74   C     C_R   0.139085 0.184721 0.291221 -0.028463
C75   C     C_R   0.187367 0.333261 0.288751 0.335440
C76   C     C_3   0.754774 0.590737 0.737435 0.260709
C77   C     C_R   0.175508 0.338597 0.238252 -0.087755
C78   C     C_R   0.145567 0.267238 0.213749 -0.046756
C79   C     C_3   0.573699 0.760983 0.780965 -0.124957
C80   C     C_R   0.127598 0.189156 0.240027 -0.007343
C81   C     C_R   0.133502 0.273568 0.163350 -0.179545
C82   C     C_R   0.196864 0.157906 0.390177 -0.046960
C83   C     C_R   0.601169 0.239469 0.366562 0.251494
C84   C     C_R   0.604525 0.259553 0.315936 0.034007
C85   C     C_R   0.617148 0.291424 0.215447 -0.036579
C86   C     C_R   0.562360 0.384663 0.246530 -0.124882
C87   C     C_R   0.547538 0.370489 0.295960 0.276084
C88   C     C_3   0.759825 0.672687 0.775210 -0.086572
C89   C     C_R   0.627171 0.308608 0.166592 -0.171823
C90   C     C_3   0.659109 0.774065 0.748774 -0.132155
C91   C     C_R   0.678730 0.216478 0.134642 0.004508
C92   C     C_R   0.699663 0.036549 0.350227 -0.162074
C93   C     C_R   0.712290 0.053619 0.301630 -0.037600
C94   C     C_R   0.661144 0.164655 0.283702 -0.075520
C95   C     C_R   0.775822 0.959870 0.270876 0.288216
C96   C     C_R   0.777508 0.974781 0.220624 0.276494
C97   C     C_R   0.717350 0.085415 0.200853 -0.009923
C98   C     C_R   0.664946 0.180328 0.233330 -0.038984
C99   C     C_R   0.712715 0.106531 0.150300 0.235523
C100  C     C_1   0.694306 0.610551 0.900902 0.001506
C101  C     C_1   0.683936 0.638236 0.858834 -0.044939
C102  C     C_R   0.642547 0.127533 0.382492 -0.021357
C103  C     C_R   0.048675 0.236341 0.950006 0.551147
C104  C     C_R   0.710953 0.563075 0.948528 0.554918
C105  C     C_R   0.721240 0.225593 0.951411 0.563602
C106  C     C_R   0.047157 0.244403 0.089167 0.550620
C107  C     C_R   0.707101 0.578237 0.085140 0.531264
C108  C     C_R   0.718187 0.233858 0.088480 0.577148
C109  C     C_3   0.119324 0.433668 0.767075 -0.051607
C110  C     C_3   0.421937 0.423011 0.811387 -0.097530
C111  C     C_3   0.656948 0.386040 0.685006 -0.074687
Cl1   Cl    Cl    0.414077 0.252304 0.721307 -0.624436
Cl2   Cl    Cl    0.896970 0.111044 0.800326 -0.595152
Cl3   Cl    Cl    0.872203 0.480094 0.705819 -0.582111
Cl4   Cl    Cl    0.980968 0.577646 0.323031 -0.642832
Cl5   Cl    Cl    0.734285 0.004258 0.104777 -0.488044
Cl6   Cl    Cl    0.872949 0.853419 0.186619 -0.533436
Cr1   Cr    Cr6+3 0.417550 0.169090 0.500530 1.072472
Cr2   Cr    Cr6+3 0.669180 0.913420 0.499920 1.046475
Cr3   Cr    Cr6+3 0.413260 0.917540 0.499520 1.034816
Cr4   Cr    Cr6+3 0.909170 0.177380 0.020380 1.064363
Cr5   Cr    Cr6+3 0.912710 0.429210 0.018220 1.029046
Cr6   Cr    Cr6+3 0.657170 0.432570 0.019030 1.013177
H1    H     H_    0.838209 0.668650 0.789272 0.097207
H2    H     H_    0.652831 0.855898 0.739226 0.152368
H3    H     H_    0.146199 0.334711 0.143680 0.115686
H4    H     H_    0.193832 0.395561 0.218226 0.119124
H5    H     H_    0.188884 0.318837 0.384603 0.204313
H6    H     H_    0.599228 0.393862 0.153844 0.143446
H7    H     H_    0.526950 0.469300 0.231808 0.140899
H8    H     H_    0.499321 0.831184 0.799696 0.118240
H9    H     H_    0.731290 0.950509 0.362754 0.190244
H10   H     H_    0.492824 0.679549 0.729040 0.119899
H11   H     H_    0.676234 0.494914 0.778976 0.197942
H12   H     H_    0.307760 0.194527 0.804906 0.144475
H13   H     H_    0.198235 0.973241 0.790139 0.131238
H14   H     H_    0.366706 0.003989 0.743294 0.132878
H15   H     H_    0.191177 0.402332 0.793405 0.094254
H16   H     H_    0.040374 0.452098 0.786214 0.115250
H17   H     H_    0.105565 0.514845 0.752022 0.155372
H18   H     H_    0.437422 0.354390 0.837372 0.115694
H19   H     H_    0.355601 0.435409 0.784444 0.174103
H20   H     H_    0.388713 0.502755 0.832857 0.131843
H21   H     H_    0.567762 0.433071 0.697894 0.144317
H22   H     H_    0.663601 0.339170 0.650738 0.117437
H23   H     H_    0.976884 0.306022 0.779008 0.188180
H24   H     H_    0.680993 0.450063 0.676087 0.176990
H25   H     H_    0.779930 0.889135 0.795993 0.101963
H26   H     H_    0.903180 0.907045 0.793224 0.175349
H27   H     H_    0.897929 0.799395 0.757785 0.137012
H28   H     H_    0.961166 0.483434 0.147068 0.090703
H29   H     H_    0.026645 0.570742 0.149525 0.125514
H30   H     H_    0.991072 0.536167 0.092148 0.177385
H31   H     H_    0.341542 0.811929 0.089674 0.150001
H32   H     H_    0.437301 0.666624 0.104049 0.161797
H33   H     H_    0.469890 0.739215 0.056185 0.144924
H34   H     H_    0.589261 0.060170 0.798473 0.125286
H35   H     H_    0.298284 0.881898 0.192304 0.189688
H36   H     H_    0.244578 0.812383 0.231632 0.097574
H37   H     H_    0.235092 0.804612 0.167075 0.168793
H38   H     H_    0.508365 0.622791 0.438765 0.126472
H39   H     H_    0.553640 0.541853 0.382879 0.170242
H40   H     H_    0.408416 0.606959 0.402225 0.174542
H41   H     H_    0.995243 0.000069 0.097974 0.207590
H42   H     H_    0.937128 0.085702 0.152890 0.125233
H43   H     H_    0.032850 0.933241 0.154867 0.140593
H44   H     H_    0.155760 0.825311 0.366980 0.151630
H45   H     H_    0.801641 0.689205 0.382652 0.190161
H46   H     H_    0.248999 0.862191 0.338077 0.159318
H47   H     H_    0.185417 0.792825 0.303849 0.100074
H48   H     H_    0.399533 0.290496 0.286995 0.118601
H49   H     H_    0.365905 0.228072 0.336757 0.107322
H50   H     H_    0.379885 0.347616 0.348954 0.222907
H51   H     H_    0.697121 0.343241 0.402878 0.118470
H52   H     H_    0.688768 0.252387 0.448967 0.115324
H53   H     H_    0.600340 0.402732 0.453073 0.120714
H54   H     H_    0.340029 0.483793 0.279117 0.158455
H55   H     H_    0.373716 0.592121 0.276125 0.131753
H56   H     H_    0.944683 0.604836 0.221981 0.167730
H57   H     H_    0.304891 0.581265 0.329352 0.157786
H58   H     H_    0.988925 0.857432 0.275341 0.169516
H59   H     H_    0.002676 0.757360 0.319759 0.197328
H60   H     H_    0.930634 0.902551 0.336907 0.159376
H61   H     H_    0.085430 0.947654 0.726608 0.142407
H62   H     H_    0.147423 0.978152 0.674294 0.079881
H63   H     H_    0.007235 0.998525 0.670785 0.171580
H64   H     H_    0.387467 0.739039 0.290976 0.134455
H65   H     H_    0.171504 0.015905 0.388833 0.158959
H66   H     H_    0.060390 0.980914 0.227191 0.125432
O1    O     O_R   0.301710 0.195650 0.554160 -0.479104
O2    O     O_R   0.635520 0.542770 0.964420 -0.510539
O3    O     O_R   0.665950 0.325030 0.970100 -0.498103
O4    O     O_R   0.522390 0.158990 0.550460 -0.486933
O5    O     O_R   0.816620 0.158530 0.074540 -0.507663
O6    O     O_R   0.004460 0.188870 0.069750 -0.473728
O7    O     O_R   0.025800 0.341780 0.072300 -0.554869
O8    O     O_R   0.807650 0.528950 0.067500 -0.481461
O9    O     O_R   0.633420 0.550490 0.071810 -0.552683
O10   O     O_R   0.664000 0.332180 0.069640 -0.511239
O11   O     O_3   0.826350 0.346390 0.019210 -0.265178
O12   O     O_R   0.658900 0.818120 0.449760 -0.509158
O13   O     O_R   0.694390 0.003530 0.554040 -0.499771
O14   O     O_R   0.657700 0.819660 0.549320 -0.482703
O15   O     O_R   0.501930 0.803280 0.552920 -0.521259
O16   O     O_R   0.318170 0.023580 0.549580 -0.510015
O17   O     O_R   0.303010 0.193990 0.446760 -0.519786
O18   O     O_R   0.523600 0.157450 0.450900 -0.467425
O19   O     O_R   0.695690 0.001860 0.446640 -0.529877
O20   O     O_3   0.144087 0.356338 0.728191 -0.460863
O21   O     O_3   0.520530 0.403641 0.787074 -0.566172
O22   O     O_3   0.732694 0.312288 0.720688 -0.493278
O23   O     O_R   0.503220 0.801620 0.445520 -0.467386
O24   O     O_3   0.797730 0.960552 0.731797 -0.546300
O25   O     O_3   0.856774 0.658085 0.131026 -0.478110
O26   O     O_3   0.483126 0.786642 0.126849 -0.536889
O27   O     O_3   0.392888 0.704275 0.195916 -0.600371
O28   O     O_3   0.452223 0.719559 0.375171 -0.581369
O29   O     O_3   0.110575 0.024026 0.136262 -0.603893
O30   O     O_3   0.074193 0.961397 0.321009 -0.609996
O31   O     O_3   0.234877 0.389679 0.311530 -0.554904
O32   O     O_3   0.552152 0.328465 0.399668 -0.537259
O33   O     O_3   0.475703 0.463191 0.324708 -0.562611
O34   O     O_R   0.319370 0.022040 0.450020 -0.489757
O35   O     O_3   0.841932 0.852704 0.290296 -0.547296
O36   O     O_3   0.019449 0.118874 0.711504 -0.473092
O37   O     O_3   0.499990 0.000010 0.499990 -0.266500
O38   O     O_R   0.818720 0.150820 0.967160 -0.481904
O39   O     O_R   0.006410 0.181720 0.970200 -0.485063
O40   O     O_R   0.027890 0.334070 0.964920 -0.512479
O41   O     O_R   0.809600 0.521790 0.967960 -0.489109

loop_
_geom_bond_atom_site_label_1
_geom_bond_atom_site_label_2
_ccdc_geom_bond_type
C103  O40   A    
C12   H55   S    
C63   C65   A    
Cr3   O23   S    
C93   C94   A    
C83   C102  A    
C81   H3    S    
C34   C37   S    
Cr1   O1    S    
C73   C74   A    
C57   C79   S    
Cr6   O9    S    
C9    H46   S    
C95   C96   A    
Cr2   O12   S    
C84   C87   A    
C88   H1    S    
C26   H14   S    
C11   O32   S    
C40   O19   A    
C14   H60   S    
C1    C33   S    
C39   C41   S    
C77   C78   A    
Cr1   O37   S    
C34   Cl2   S    
C15   H62   S    
C30   C38   S    
C11   H53   S    
C70   O29   S    
Cr4   O39   S    
C15   O36   S    
C109  H17   S    
Cr3   O16   S    
C23   C29   S    
C14   O35   S    
C92   H9    S    
C111  O22   S    
C2    C68   S    
C111  H22   S    
C13   O36   S    
C46   C79   S    
C78   C80   A    
C94   C98   A    
C10   H49   S    
C5    H31   S    
C5    O26   S    
C22   O20   S    
C100  C104  S    
C89   H6    S    
C13   C23   S    
C52   O12   A    
C44   H45   S    
C23   C26   S    
C110  H19   S    
Cr1   O4    S    
C100  C101  T    
C79   C90   S    
C85   C98   A    
C6    H35   S    
C47   C60   A    
C36   C42   S    
C83   C84   A    
C12   H54   S    
C11   H51   S    
C22   C25   S    
C51   C61   A    
C68   C90   S    
C70   C71   A    
C89   C91   A    
C16   O14   A    
C76   C88   S    
C3    H26   S    
C77   H4    S    
C92   C102  A    
C9    O30   S    
C10   H50   S    
C66   C67   A    
C21   C27   S    
C40   O18   A    
C3    H25   S    
C16   C24   S    
C74   C80   A    
C55   C60   A    
C39   H34   S    
C28   O16   A    
C73   C75   A    
C105  O3    A    
C57   H10   S    
C9    H47   S    
C110  O21   S    
Cr2   O13   S    
C109  O20   S    
C1    O13   A    
C35   H11   S    
C37   O24   S    
C97   C99   A    
C97   C98   A    
C47   C50   A    
C46   C88   S    
C53   O28   S    
Cr5   O41   S    
C46   C101  S    
C54   C56   A    
C35   C76   S    
C59   C61   A    
C4    O25   S    
C30   C34   S    
C63   C82   A    
C10   O31   S    
C32   C42   T    
C33   C43   T    
C87   O33   S    
Cr6   O11   S    
C9    H44   S    
Cr2   O14   S    
C38   C41   S    
C8    H41   S    
Cr5   O7    S    
C30   O22   S    
C107  O8    A    
C85   C89   A    
C86   C87   A    
C86   H7    S    
C106  O7    A    
C44   C62   A    
C103  O39   A    
C5    H32   S    
C104  O2    A    
C7    H40   S    
C41   Cl1   S    
C6    H36   S    
C65   C74   A    
C64   O34   A    
C109  H15   S    
C67   C69   A    
C7    O28   S    
C110  H18   S    
C1    O4    A    
Cr4   O11   S    
C37   C38   S    
C111  H24   S    
C7    H38   S    
C53   C62   A    
C96   Cl6   S    
C76   Cl3   S    
C47   C48   A    
C56   H64   S    
C45   C49   A    
C30   C31   S    
C79   H8    S    
C96   C97   A    
C17   H13   S    
C50   C51   A    
C12   O33   S    
C25   C26   S    
C84   C94   A    
C104  O41   A    
C4    H29   S    
C19   C28   S    
C75   C77   A    
C64   C82   S    
C85   C86   A    
C14   H59   S    
C8    H43   S    
C111  H21   S    
C51   C107  S    
C48   C49   A    
C49   Cl4   S    
C72   H5    S    
C63   H65   S    
Cr3   O34   S    
C32   C105  S    
C10   H48   S    
C2    C24   T    
Cr3   O15   S    
C20   H23   S    
C68   C76   S    
Cr5   O40   S    
C17   C26   S    
C57   C68   S    
Cr6   O2    S    
C19   C29   T    
Cr3   O37   S    
Cr4   O5    S    
C99   Cl5   S    
C14   H58   S    
C44   C45   A    
Cr6   O10   S    
C4    H28   S    
C21   C25   S    
C54   C55   A    
C3    H27   S    
C88   C90   S    
C31   C41   S    
C13   C20   S    
C12   H57   S    
C22   C23   S    
C91   C108  S    
C36   C39   S    
C18   C27   T    
C20   C22   S    
C72   C73   A    
C28   O1    A    
C107  O9    A    
C6    H37   S    
C67   H66   S    
C53   C54   A    
C106  O6    A    
C69   O30   S    
C7    H39   S    
C3    O24   S    
C5    H33   S    
C66   C80   A    
C11   H52   S    
C95   O35   S    
Cr4   O38   S    
C13   C17   S    
C15   H63   S    
C109  H16   S    
Cr5   O11   S    
C108  O10   A    
Cr1   O18   S    
C58   C59   A    
C38   C43   S    
C37   C39   S    
C15   H61   S    
Cr1   O17   S    
C78   C81   A    
C66   C70   A    
C31   O21   S    
C64   O17   A    
C75   O31   S    
C65   C69   A    
C92   C93   A    
C90   H2    S    
C56   C58   A    
C4    H30   S    
C34   C36   S    
C18   C103  S    
C105  O38   A    
Cr5   O8    S    
C110  H20   S    
C25   H12   S    
C17   C21   S    
C8    O29   S    
C8    H42   S    
C40   C102  S    
C83   O32   S    
C59   C60   A    
C6    O27   S    
C20   C21   S    
C45   C55   A    
C93   C95   A    
C35   C57   S    
C71   C106  S    
C52   O23   A    
C50   O25   S    
C31   C36   S    
C52   C62   S    
Cr2   O19   S    
C61   O26   S    
C91   C99   A    
Cr6   O3    S    
C16   O15   A    
C35   C46   S    
C108  O5    A    
Cr4   O6    S    
C48   H56   S    
C72   C82   A    
Cr2   O37   S    
C71   C81   A    
C58   O27   S    
