data_mof_unit_44709.cif
_audit_creation_date              2012-12-11T17:08:35-0500
_audit_creation_method            fapswitch 2.2
_symmetry_space_group_name_H-M    P1
_symmetry_Int_Tables_number       1
_space_group_crystal_system       triclinic
_cell_length_a                    6.968622
_cell_length_b                    14.512618
_cell_length_c                    16.080399
_cell_angle_alpha                 89.988814
_cell_angle_beta                  89.983607
_cell_angle_gamma                 90.009778
_cell_volume                      1626.25805188

loop_
_atom_site_label
_atom_site_type_symbol
_atom_type_description
_atom_site_fract_x
_atom_site_fract_y
_atom_site_fract_z
_atom_type_partial_charge
O1    O     O_R   0.505700 0.583890 0.413310 -0.539070
O2    O     O_R   0.175960 0.594920 0.586080 -0.542890
O3    O     O_R   0.005660 0.416110 0.586690 -0.542672
C1    C     C_R   0.344694 0.616998 0.614749 0.689770
O4    O     O_R   0.175980 0.594920 0.413930 -0.543468
O5    O     O_R   0.005680 0.416110 0.413310 -0.538885
C2    C     C_R   0.344732 0.616973 0.385234 0.690215
O6    O     O_R   0.505680 0.583890 0.586690 -0.539471
O7    O     O_3   0.339200 0.441330 0.500000 -0.362799
V1    V     V_3+5 0.064350 0.510880 0.500000 1.397120
O8    O     O_R   0.675960 0.405080 0.413920 -0.535854
C3    C     C_R   0.845029 0.383104 0.385158 0.701824
O9    O     O_R   0.675940 0.405080 0.586070 -0.535672
C4    C     C_R   0.844652 0.382912 0.614673 0.700009
V2    V     V_3+5 0.564340 0.489120 0.500000 1.418956
O10   O     O_3   0.839360 0.558670 0.500000 -0.373051
C5    C     C_R   0.006365 0.250570 0.688012 0.074777
C6    C     C_R   0.852444 0.312217 0.681124 -0.116178
C7    C     C_R   0.701506 0.302825 0.738820 -0.164216
H1    H     H_    0.579457 0.348601 0.735871 0.118456
C8    C     C_R   0.713024 0.238835 0.804613 -0.188087
H2    H     H_    0.598435 0.236472 0.849917 0.125703
C9    C     C_R   0.876748 0.183038 0.815153 -0.100944
C10   C     C_R   0.018352 0.187780 0.753509 0.143148
C11   C     C_3   0.229751 0.200709 0.761687 -0.449968
C12   C     C_3   0.216518 0.269322 0.690094 -0.240964
H3    H     H_    0.310210 0.136406 0.747359 0.186752
H4    H     H_    0.268033 0.233631 0.821807 0.158223
H5    H     H_    0.250571 0.341614 0.707435 0.118683
C13   C     C_R   0.728047 0.182291 0.241749 0.105610
C14   C     C_R   0.882042 0.182208 0.185657 -0.112551
C15   C     C_R   0.033573 0.244039 0.201383 -0.180690
H6    H     H_    0.156020 0.246271 0.160216 0.131799
C16   C     C_R   0.022373 0.308232 0.266935 -0.178111
H7    H     H_    0.137111 0.357707 0.274412 0.126115
C17   C     C_R   0.859006 0.312752 0.318566 -0.113297
C18   C     C_R   0.716557 0.246045 0.306394 0.126705
C19   C     C_3   0.505878 0.257946 0.294975 -0.403729
C20   C     C_3   0.518272 0.188094 0.224801 -0.408073
H8    H     H_    0.468924 0.328478 0.273359 0.159902
H9    H     H_    0.422664 0.232775 0.349418 0.199084
H10   H     H_    0.487751 0.217879 0.162505 0.168414
H11   H     H_    0.442916 0.122374 0.238816 0.175239
C21   C     C_R   0.505526 0.749733 0.687906 0.093363
C22   C     C_R   0.352523 0.687516 0.681346 -0.100071
C23   C     C_R   0.202239 0.696332 0.739454 -0.180378
H12   H     H_    0.080364 0.650378 0.736638 0.121272
C24   C     C_R   0.214386 0.759972 0.805518 -0.159168
H13   H     H_    0.100827 0.761652 0.851340 0.117566
C25   C     C_R   0.376920 0.816769 0.815328 -0.113869
C26   C     C_R   0.517265 0.812925 0.753068 0.075548
C27   C     C_3   0.728929 0.800902 0.760494 -0.230084
C28   C     C_3   0.716393 0.732373 0.688809 -0.430145
H14   H     H_    0.772303 0.769885 0.820773 0.120058
H15   H     H_    0.750209 0.660495 0.707614 0.158987
H16   H     H_    0.786497 0.755268 0.630152 0.177528
C29   C     C_R   0.508877 0.747717 0.310630 0.110749
C30   C     C_R   0.352712 0.687593 0.318713 -0.110814
C31   C     C_R   0.200340 0.698154 0.261980 -0.179925
H17   H     H_    0.077162 0.653167 0.265610 0.129242
C32   C     C_R   0.211962 0.762080 0.196150 -0.180694
H18   H     H_    0.096321 0.765247 0.151446 0.128435
C33   C     C_R   0.376917 0.816840 0.184783 -0.110337
C34   C     C_R   0.520765 0.810682 0.245306 0.106110
C35   C     C_3   0.730391 0.794532 0.234782 -0.416366
C36   C     C_3   0.717517 0.726287 0.306227 -0.398556
H19   H     H_    0.816688 0.856738 0.249907 0.177245
H20   H     H_    0.763930 0.761530 0.174136 0.167857
H21   H     H_    0.795764 0.749188 0.362800 0.178957
H22   H     H_    0.744347 0.653791 0.287162 0.163412
O11   O     O_R   0.229000 0.916070 0.913330 -0.532672
O12   O     O_R   0.558770 0.905070 0.086080 -0.540626
O13   O     O_R   0.729000 0.083900 0.086690 -0.538089
C37   C     C_R   0.389746 0.882914 0.114691 0.690841
O14   O     O_R   0.558720 0.905070 0.913930 -0.543566
O15   O     O_R   0.728960 0.083900 0.913310 -0.538172
C38   C     C_R   0.389722 0.882929 0.885327 0.701509
O16   O     O_R   0.229050 0.916070 0.086710 -0.540237
O17   O     O_3   0.395460 0.058650 0.000020 -0.373345
V3    V     V_3+5 0.670340 0.989120 0.000000 1.401406
O18   O     O_R   0.058670 0.094960 0.913900 -0.539212
C39   C     C_R   0.889663 0.117058 0.885293 0.722496
O19   O     O_R   0.058720 0.094960 0.086050 -0.544293
C40   C     C_R   0.889946 0.116862 0.114862 0.691047
V4    V     V_3+5 0.170330 0.010930 0.999970 1.402763
O20   O     O_3   0.895340 0.941350 0.999980 -0.372793
C41   C     C_1   0.832923 0.885919 0.739240 0.369629
N1    N     N_1   0.915073 0.952733 0.722600 -0.373143
C42   C     C_1   0.312521 0.237758 0.613769 0.398403
N2    N     N_1   0.388268 0.213069 0.553718 -0.363729

loop_
_geom_bond_atom_site_label_1
_geom_bond_atom_site_label_2
_ccdc_geom_bond_type
C41   N1    T    
C9    C39   S    
C4    C6    S    
C7    H1    S    
O11   C38   A    
C29   C36   S    
C1    O6    A    
O18   C39   A    
C36   H22   S    
V4    O20   S    
C27   C28   S    
C12   C42   S    
C5    C12   S    
C17   C18   A    
C7    C8    A    
C16   H7    S    
O5    C3    A    
C13   C14   A    
C36   H21   S    
V2    O10   S    
C6    C7    A    
C32   C33   A    
V3    O20   S    
O11   V4    S    
O8    V2    S    
C21   C28   S    
C14   C15   A    
C35   H19   S    
C9    C10   A    
O1    V2    S    
C3    C17   S    
O14   V3    S    
O13   C40   A    
C24   C25   A    
C31   H17   S    
O9    C4    A    
C27   H14   S    
C25   C26   A    
C20   H10   S    
C1    C22   S    
C28   H15   S    
C23   C24   A    
C31   C32   A    
C5    C10   A    
C26   C27   S    
C10   C11   S    
C19   H9    S    
O12   C37   A    
O15   C39   A    
O4    C2    A    
C20   H11   S    
C30   C31   A    
C22   C23   A    
C14   C40   S    
O17   V3    S    
C13   C18   A    
C11   H4    S    
C15   C16   A    
O2    C1    A    
C18   C19   S    
O19   C40   A    
C35   H20   S    
C5    C6    A    
O14   C38   A    
O3    C4    A    
C21   C26   A    
C24   H13   S    
O19   V4    S    
O6    V2    S    
O9    V2    S    
O2    V1    S    
C25   C38   S    
O17   V4    S    
C21   C22   A    
O16   V4    S    
C29   C34   A    
O7    V1    S    
C28   H16   S    
C23   H12   S    
C2    C30   S    
O1    C2    A    
C27   C41   S    
O15   V3    S    
O5    V1    S    
O8    C3    A    
C33   C37   S    
C11   H3    S    
C15   H6    S    
C8    C9    A    
C11   C12   S    
O4    V1    S    
O12   V3    S    
O3    V1    S    
V1    O10   S    
C34   C35   S    
C19   H8    S    
C29   C30   A    
C19   C20   S    
O13   V3    S    
C13   C20   S    
C16   C17   A    
O7    V2    S    
C32   H18   S    
C33   C34   A    
C12   H5    S    
C35   C36   S    
C37   O16   A    
C42   N2    T    
C8    H2    S    
O18   V4    S    
