data_mof_unit_9840.cif
_audit_creation_date              2012-12-10T19:00:01-0500
_audit_creation_method            fapswitch 2.2
_symmetry_space_group_name_H-M    P1
_symmetry_Int_Tables_number       1
_space_group_crystal_system       triclinic
_cell_length_a                    10.713031
_cell_length_b                    10.677364
_cell_length_c                    9.937171
_cell_angle_alpha                 90.052594
_cell_angle_beta                  90.967432
_cell_angle_gamma                 90.323962
_cell_volume                      1136.50171812

loop_
_atom_site_label
_atom_site_type_symbol
_atom_type_description
_atom_site_fract_x
_atom_site_fract_y
_atom_site_fract_z
_atom_type_partial_charge
C1    C     C_R   0.500085 0.260257 0.499897 0.852546
C2    C     C_R   0.499914 0.739743 0.500103 0.852540
C3    C     C_R   0.874303 0.475301 0.504024 -0.144440
C4    C     C_R   0.125698 0.524706 0.495975 -0.144444
C5    C     C_R   0.939306 0.506129 0.623321 -0.079544
C6    C     C_R   0.060696 0.493880 0.376677 -0.079543
C7    C     C_R   0.457904 0.063781 0.385063 -0.199602
C8    C     C_R   0.542096 0.936219 0.614937 -0.199603
C9    C     C_R   0.457431 0.935455 0.385290 -0.207536
C10   C     C_R   0.542569 0.064545 0.614710 -0.207534
C11   C     C_R   0.499659 0.872317 0.500185 -0.002661
C12   C     C_R   0.500341 0.127682 0.499815 -0.002661
C13   C     C_R   0.515694 0.608730 0.071910 -0.082015
C14   C     C_R   0.484305 0.391270 0.928090 -0.082017
C15   C     C_R   0.515647 0.608686 0.928808 -0.108619
C16   C     C_R   0.484352 0.391314 0.071192 -0.108616
C17   C     C_R   0.260240 0.512118 0.498901 0.894456
C18   C     C_R   0.739760 0.487884 0.501099 0.894456
C19   C     C_R   0.158852 0.743965 0.134075 -0.153804
C20   C     C_R   0.841158 0.256041 0.865924 -0.153804
C21   C     C_R   0.102671 0.683861 0.241913 -0.152078
C22   C     C_R   0.897339 0.316147 0.758087 -0.152077
C23   C     C_R   0.102143 0.552348 0.250246 0.153714
C24   C     C_R   0.897860 0.447660 0.749752 0.153715
C25   C     C_R   0.155038 0.481638 0.147204 -0.103154
C26   C     C_R   0.844962 0.518370 0.852793 -0.103156
C27   C     C_R   0.208737 0.542254 0.038204 -0.124622
C28   C     C_R   0.791263 0.457753 0.961792 -0.124623
C29   C     C_R   0.213597 0.673240 0.033390 -0.137882
C30   C     C_R   0.786407 0.326767 0.966606 -0.137876
C31   C     C_R   0.938523 0.451675 0.384667 0.114891
C32   C     C_R   0.061479 0.548333 0.615331 0.114891
H1    H     H_    0.260722 0.720386 0.952371 0.131971
H2    H     H_    0.739281 0.279619 0.047624 0.131973
H3    H     H_    0.528463 0.696144 0.876048 0.127255
H4    H     H_    0.471536 0.303856 0.123952 0.127255
H5    H     H_    0.162092 0.845221 0.129928 0.124818
H6    H     H_    0.837922 0.154785 0.870072 0.124817
H7    H     H_    0.063600 0.739746 0.321778 0.126159
H8    H     H_    0.936413 0.260262 0.678223 0.126160
H9    H     H_    0.160067 0.380602 0.154042 0.110459
H10   H     H_    0.839932 0.619406 0.845954 0.110459
H11   H     H_    0.249965 0.487131 0.959700 0.134734
H12   H     H_    0.750032 0.512876 0.040295 0.134731
H13   H     H_    0.423942 0.112684 0.296342 0.141716
H14   H     H_    0.576058 0.887316 0.703658 0.141716
H15   H     H_    0.423160 0.885937 0.296710 0.149538
H16   H     H_    0.576840 0.114063 0.703290 0.149538
H17   H     H_    0.528432 0.696245 0.125251 0.131802
H18   H     H_    0.471568 0.303755 0.874749 0.131801
N1    N     N_R   0.499970 0.499970 0.857200 -0.074158
N2    N     N_R   0.500030 0.500030 0.142800 -0.074158
O1    O     O_R   0.499990 0.316750 0.614620 -0.628251
O2    O     O_R   0.500010 0.683250 0.385380 -0.628251
O3    O     O_R   0.499990 0.316780 0.385290 -0.634101
O4    O     O_R   0.500010 0.683220 0.614710 -0.634103
O5    O     O_R   0.316760 0.500000 0.614660 -0.624305
O6    O     O_R   0.683240 0.500000 0.385340 -0.624302
O7    O     O_R   0.316760 0.500020 0.385330 -0.600861
O8    O     O_R   0.683240 0.499980 0.614670 -0.600861
Zn1   Zn    Zn3+2 0.500000 0.499980 0.653120 0.941567
Zn2   Zn    Zn3+2 0.500000 0.500020 0.346880 0.941568
C33   C     C_3   0.886017 0.364049 0.277267 -0.388053
C34   C     C_3   0.856708 0.234764 0.335316 -0.879089
H19   H     H_    0.941452 0.194852 0.384474 0.254874
H20   H     H_    0.781091 0.240379 0.410044 0.253676
H21   H     H_    0.825465 0.170672 0.253266 0.243298
H22   H     H_    0.801754 0.403051 0.229577 0.232607
H23   H     H_    0.952801 0.349770 0.195215 0.204684
C35   C     C_3   0.113984 0.635960 0.722731 -0.388063
C36   C     C_3   0.143285 0.765246 0.664681 -0.879020
H24   H     H_    0.218909 0.759633 0.589950 0.253663
H25   H     H_    0.058535 0.805154 0.615516 0.254861
H26   H     H_    0.174522 0.829341 0.746737 0.243290
H27   H     H_    0.047202 0.650235 0.804785 0.204683
H28   H     H_    0.198251 0.596962 0.770417 0.232604

loop_
_geom_bond_atom_site_label_1
_geom_bond_atom_site_label_2
_ccdc_geom_bond_type
O6    Zn2   S    
C27   C29   A    
N1    Zn1   S    
C20   C30   A    
C7    H13   S    
C19   C21   A    
C24   C26   A    
O3    Zn2   S    
C29   H1    S    
C3    C18   S    
C1    O1    A    
C19   H5    S    
O1    Zn1   S    
C18   O6    A    
C33   H23   S    
C35   C36   S    
C15   N1    A    
C5    C32   A    
C6    C31   A    
C1    C12   S    
C2    C11   S    
C15   H3    S    
C7    C12   A    
C30   H2    S    
C34   H21   S    
C31   C33   S    
C4    C6    A    
C2    O2    A    
C25   H9    S    
C36   H25   S    
C32   C35   S    
O2    Zn2   S    
C28   H12   S    
O8    Zn1   S    
C34   H20   S    
C13   N2    A    
C20   H6    S    
C14   N1    A    
C21   H7    S    
C13   C15   A    
C22   H8    S    
C3    C31   A    
C9    C11   A    
C4    C32   A    
C10   C12   A    
C17   O7    A    
C13   H17   S    
C4    C17   S    
C18   O8    A    
C20   C22   A    
C9    H15   S    
C21   C23   A    
C10   H16   S    
C22   C24   A    
C19   C29   A    
C26   H10   S    
C7    C9    A    
C33   H22   S    
O7    Zn2   S    
C16   N2    A    
C3    C5    A    
C36   H26   S    
O5    Zn1   S    
C25   C27   A    
C26   C28   A    
C34   H19   S    
C28   C30   A    
C1    O3    A    
C36   H24   S    
C2    O4    A    
C16   H4    S    
C35   H28   S    
C14   H18   S    
C5    C24   S    
C8    C11   A    
C6    C23   S    
C14   C16   A    
C23   C25   A    
C8    H14   S    
C33   C34   S    
C27   H11   S    
C8    C10   A    
C35   H27   S    
O4    Zn1   S    
N2    Zn2   S    
C17   O5    A    
