data_mof_unit_46163.cif
_audit_creation_date              2012-12-11T17:43:34-0500
_audit_creation_method            fapswitch 2.2
_symmetry_space_group_name_H-M    P1
_symmetry_Int_Tables_number       1
_space_group_crystal_system       triclinic
_cell_length_a                    15.033849
_cell_length_b                    14.960583
_cell_length_c                    17.065072
_cell_angle_alpha                 108.877974
_cell_angle_beta                  106.38341
_cell_angle_gamma                 108.930067
_cell_volume                      3097.53114303

loop_
_atom_site_label
_atom_site_type_symbol
_atom_type_description
_atom_site_fract_x
_atom_site_fract_y
_atom_site_fract_z
_atom_type_partial_charge
C1    C     C_R   0.091705 0.277675 0.022766 -0.124948
C2    C     C_R   0.103898 0.073262 0.954383 -0.233537
C3    C     C_R   0.011252 0.888802 0.917773 0.047738
C4    C     C_R   0.008707 0.075751 0.921894 0.048450
C5    C     C_R   0.106492 0.979076 0.948286 0.069755
C6    C     C_R   0.916799 0.978036 0.864084 0.071513
C7    C     C_R   0.835399 0.017085 0.737860 -0.141546
C8    C     C_R   0.295092 0.051996 0.052708 -0.182943
C9    C     C_R   0.648155 0.933507 0.650161 -0.287839
C10   C     C_R   0.400923 0.973935 0.005419 -0.285169
C11   C     C_R   0.501167 0.707580 0.355528 -0.115463
C12   C     C_R   0.916343 0.711864 0.919341 -0.138202
C13   C     C_R   0.510078 0.411632 0.731392 -0.125447
C14   C     C_R   0.508007 0.690354 0.272340 -0.133028
C15   C     C_R   0.520769 0.436816 0.820926 -0.110153
C16   C     C_R   0.934572 0.449846 0.735952 -0.205266
C17   C     C_R   0.062758 0.479862 0.252961 -0.209267
C18   C     C_R   0.532634 0.609884 0.230104 0.116910
C19   C     C_R   0.550889 0.541633 0.882300 0.105074
C20   C     C_R   0.551341 0.547952 0.273409 -0.171014
C21   C     C_R   0.568848 0.620428 0.852605 -0.174899
C22   C     C_R   0.544663 0.565691 0.356763 -0.107003
C23   C     C_R   0.025318 0.467590 0.724054 -0.106044
C24   C     C_R   0.559611 0.595064 0.763378 -0.099031
C25   C     C_R   0.519552 0.645353 0.397745 -0.094257
C26   C     C_R   0.530188 0.490676 0.702777 -0.113359
C27   C     C_R   0.623231 0.578669 0.129182 -0.244413
C28   C     C_R   0.477670 0.583916 0.989604 -0.235339
C29   C     C_R   0.630468 0.563633 0.046128 0.081123
C30   C     C_R   0.463757 0.587988 0.067832 0.058011
C31   C     C_R   0.557451 0.567926 0.975997 0.013832
C32   C     C_R   0.539229 0.591348 0.141313 0.031930
C33   C     C_R   0.748242 0.000671 0.666804 -0.125198
C34   C     C_R   0.970321 0.418228 0.252155 -0.093435
C35   C     C_R   0.390756 0.049789 0.071048 -0.139216
C36   C     C_R   0.956796 0.388556 0.322538 0.140716
C37   C     C_R   0.025711 0.422240 0.634223 0.145151
C38   C     C_R   0.116621 0.399813 0.538153 -0.208951
C39   C     C_R   0.852609 0.360112 0.404752 -0.225512
C40   C     C_R   0.719886 0.214610 0.822964 -0.114890
C41   C     C_R   0.224208 0.798103 0.187503 -0.139176
C42   C     C_R   0.113855 0.418769 0.623006 -0.193494
C43   C     C_R   0.863271 0.371922 0.330983 -0.205779
C44   C     C_R   0.935488 0.389078 0.557330 -0.253512
C45   C     C_R   0.663995 0.217452 0.744672 0.058424
C46   C     C_R   0.038865 0.388712 0.387099 -0.258742
C47   C     C_R   0.938044 0.372735 0.474324 0.188671
C48   C     C_R   0.030951 0.383737 0.465180 0.175845
C49   C     C_R   0.555577 0.144028 0.676938 0.125281
C50   C     C_R   0.283120 0.900466 0.359707 0.132618
C51   C     C_R   0.391682 0.090385 0.444874 -0.233699
C52   C     C_R   0.405322 0.971763 0.605583 -0.239087
C53   C     C_R   0.322426 0.000674 0.361983 -0.169364
C54   C     C_R   0.497466 0.052369 0.681300 -0.168267
C55   C     C_R   0.298933 0.893520 0.442225 -0.288867
C56   C     C_R   0.241217 0.804077 0.273851 0.053691
C57   C     C_R   0.513300 0.160175 0.601356 -0.309256
C58   C     C_R   0.372395 0.982102 0.525076 0.184507
C59   C     C_R   0.423358 0.079482 0.525021 0.200911
C60   C     C_R   0.634324 0.883988 0.706328 0.574545
C61   C     C_R   0.314877 0.899372 0.920251 0.606288
C62   C     C_R   0.721989 0.901494 0.778022 -0.236175
C63   C     C_R   0.219071 0.901755 0.902343 -0.202136
C64   C     C_R   0.301656 0.600790 0.008756 -0.063953
C65   C     C_R   0.738564 0.465142 0.048300 -0.119836
C66   C     C_R   0.823276 0.967106 0.793860 0.025563
C67   C     C_R   0.360525 0.568915 0.059049 0.004413
C68   C     C_R   0.208244 0.977372 0.968489 0.020562
C69   C     C_R   0.726116 0.310847 0.747655 -0.142306
C70   C     C_R   0.218480 0.702522 0.264800 -0.125185
C71   C     C_R   0.296742 0.501508 0.081104 -0.121581
C72   C     C_R   0.754301 0.566858 0.976310 -0.105673
C73   C     C_R   0.108235 0.540806 0.810555 0.529221
C74   C     C_R   0.890411 0.392309 0.171794 0.488270
C75   C     C_R   0.917462 0.192919 0.948368 -0.106846
C76   C     C_R   0.087825 0.796583 0.000041 -0.140121
C77   C     C_R   0.006176 0.178436 0.959436 0.043530
C78   C     C_R   0.711069 0.539332 0.031079 0.015113
C79   C     C_R   0.005406 0.803590 0.945663 0.067060
C80   C     C_R   0.918148 0.886262 0.867315 -0.237993
H1    H     H_    0.173174 0.296840 0.049474 0.095868
H2    H     H_    0.418879 0.580095 0.932547 0.160536
H3    H     H_    0.110894 0.401036 0.380376 0.121056
H4    H     H_    0.865548 0.388510 0.562915 0.115248
H5    H     H_    0.187480 0.404882 0.531551 0.134135
H6    H     H_    0.781221 0.351960 0.411683 0.124026
H7    H     H_    0.855420 0.396008 0.685529 0.128699
H8    H     H_    0.140871 0.503019 0.300085 0.122916
H9    H     H_    0.554727 0.230791 0.596705 0.114423
H10   H     H_    0.264245 0.817762 0.442045 0.123135
H11   H     H_    0.526235 0.039085 0.739952 0.140652
H12   H     H_    0.839117 0.683504 0.867622 0.095690
H13   H     H_    0.307517 0.009622 0.299917 0.116233
H14   H     H_    0.428214 0.165832 0.444766 0.122643
H15   H     H_    0.365337 0.898195 0.607245 0.143557
H16   H     H_    0.581668 0.920220 0.593651 0.129423
H17   H     H_    0.475727 0.973538 0.020857 0.124434
H18   H     H_    0.710850 0.863208 0.821010 0.130150
H19   H     H_    0.152822 0.844382 0.836857 0.144502
H20   H     H_    0.689771 0.161343 0.849744 0.103053
H21   H     H_    0.234386 0.861956 0.169212 0.098011
H22   H     H_    0.330632 0.665285 0.992372 0.153855
H23   H     H_    0.481833 0.769366 0.387363 0.112000
H24   H     H_    0.715979 0.425649 0.087535 0.152092
H25   H     H_    0.702832 0.348577 0.707101 0.092154
H26   H     H_    0.223668 0.677024 0.317485 0.098489
H27   H     H_    0.836988 0.134129 0.908856 0.117448
H28   H     H_    0.169689 0.846316 0.026125 0.116992
H29   H     H_    0.846291 0.812969 0.830165 0.121577
H30   H     H_    0.176778 0.144731 0.985770 0.127623
H31   H     H_    0.912479 0.067315 0.748163 0.127569
H32   H     H_    0.288318 0.110860 0.104534 0.121720
H33   H     H_    0.514437 0.658942 0.462251 0.110856
H34   H     H_    0.485086 0.330643 0.683936 0.123647
H35   H     H_    0.522127 0.470841 0.633437 0.102901
H36   H     H_    0.558750 0.517446 0.389511 0.104693
H37   H     H_    0.574534 0.656105 0.741006 0.149458
H38   H     H_    0.800257 0.375430 0.284177 0.148617
H39   H     H_    0.181629 0.434896 0.679909 0.145316
H40   H     H_    0.758342 0.039038 0.623752 0.137770
H41   H     H_    0.457193 0.106995 0.136319 0.133938
H42   H     H_    0.483656 0.811647 0.638318 0.304678
H43   H     H_    0.394069 0.832337 0.876763 0.317419
H44   H     H_    0.320118 0.469322 0.127047 0.108058
H45   H     H_    0.494411 0.740030 0.241049 0.112841
H46   H     H_    0.751170 0.624493 0.952125 0.113943
H47   H     H_    0.215595 0.596778 0.774663 0.336062
H48   H     H_    0.793484 0.256923 0.153530 0.311898
H49   H     H_    0.504735 0.374807 0.842225 0.118056
H50   H     H_    0.569786 0.485111 0.242206 0.110970
H51   H     H_    0.590784 0.701367 0.898819 0.122973
H52   H     H_    0.682375 0.579359 0.183609 0.129588
N1    N     N_R   0.055660 0.348550 0.045620 -0.045208
N2    N     N_R   0.185200 0.638170 0.176300 -0.039463
N3    N     N_R   0.201680 0.494570 0.045620 -0.048599
N4    N     N_R   0.798320 0.505430 0.954380 -0.045067
N5    N     N_R   0.068420 0.560530 0.871650 -0.072129
N6    N     N_R   0.931580 0.439470 0.128350 -0.066344
N7    N     N_R   0.948070 0.295860 0.997670 -0.041228
N8    N     N_R   0.051930 0.704140 0.002330 -0.044269
N9    N     N_R   0.944340 0.651450 0.954380 -0.042341
N10   N     N_R   0.960830 0.507850 0.823700 -0.065224
N11   N     N_R   0.039170 0.492150 0.176300 -0.063358
N12   N     N_R   0.811290 0.303410 0.871650 -0.041580
N13   N     N_R   0.188710 0.696590 0.128350 -0.044414
N14   N     N_R   0.205200 0.552990 0.997670 -0.044521
N15   N     N_R   0.794800 0.447010 0.002330 -0.034738
N16   N     N_R   0.814800 0.361830 0.823700 -0.040697
Ni1   Ni    Ni4+2 0.119340 0.493420 0.109960 0.204280
Ni2   Ni    Ni4+2 0.880660 0.506580 0.890040 0.205814
Ni3   Ni    Ni4+2 0.872590 0.372590 0.000000 0.257063
Ni4   Ni    Ni4+2 0.127410 0.627410 0.000000 0.233189
O1    O     O_3   0.536743 0.817616 0.692465 -0.781971
O2    O     O_3   0.322009 0.823922 0.853413 -0.748800
O3    O     O_3   0.211370 0.596693 0.831375 -0.783841
O4    O     O_3   0.793100 0.305673 0.125785 -0.798444

loop_
_geom_bond_atom_site_label_1
_geom_bond_atom_site_label_2
_ccdc_geom_bond_type
N5    N10   A    
C75   H27   S    
C27   C29   A    
C17   H8    S    
C1    C77   A    
C14   C18   A    
C16   N10   A    
C76   C79   A    
N12   N16   A    
C19   C31   S    
C61   O2    S    
C15   C19   A    
C74   N6    A    
C24   H37   S    
C14   H45   S    
C57   H9    S    
C19   C21   A    
N16   Ni2   S    
C38   C42   A    
N12   Ni3   S    
N6    N11   A    
C8    H32   S    
C71   N3    A    
C11   C14   A    
C42   H39   S    
C57   C59   A    
C11   C25   A    
C1    H1    S    
C49   C54   A    
C12   C79   A    
C49   C57   A    
C12   N9    A    
C52   H15   S    
C60   C62   A    
C64   H22   S    
C37   C42   A    
C61   C63   A    
C26   H35   S    
C21   H51   S    
C63   H19   S    
C62   H18   S    
C29   C78   S    
C7    H31   S    
C28   C30   A    
C22   C25   A    
C80   H29   S    
C16   H7    S    
C72   C78   A    
N5    Ni4   S    
C36   C46   A    
C10   C35   A    
C65   N15   A    
N8    Ni4   S    
C38   C48   A    
C30   C67   S    
C44   C47   A    
C22   H36   S    
C3    C79   S    
C76   H28   S    
C9    C33   A    
C27   H52   S    
C7    C33   A    
C23   C73   A    
C5    C68   S    
C1    N1    A    
C3    C80   A    
C52   C54   A    
N9    Ni2   S    
C76   N8    A    
C40   C45   A    
C46   C48   A    
C50   C53   A    
C62   C66   A    
C38   H5    S    
C28   H2    S    
N4    N15   A    
C64   C67   A    
C71   H44   S    
C35   H41   S    
N1    Ni1   S    
N8    N9    A    
C4    C6    A    
C70   H26   S    
H47   O3    S    
C69   H25   S    
C39   C43   A    
C51   H14   S    
C3    C5    A    
C58   C59   A    
N3    Ni1   S    
N2    Ni1   S    
C45   C69   A    
C50   C56   S    
C72   H46   S    
C51   C53   A    
C8    C35   A    
C10   H17   S    
C2    C4    A    
C41   C56   A    
C25   H33   S    
C6    C80   A    
C47   C48   A    
C15   H49   S    
C45   C49   S    
N3    N14   A    
C73   O3    S    
C74   O4    S    
C75   C77   A    
C9    H16   S    
C52   C58   A    
C34   C74   A    
N14   Ni4   S    
C60   O1    S    
C20   C22   A    
C8    C68   A    
C16   C23   A    
C56   C70   A    
C40   N12   A    
H42   O1    S    
C13   C26   A    
C21   C24   A    
C10   C61   A    
C51   C59   A    
C17   C34   A    
C39   C47   A    
N2    N13   A    
C63   C68   A    
C2    H30   S    
C65   C78   A    
C64   N14   A    
C27   C32   A    
C12   H12   S    
C28   C31   A    
C13   H34   S    
C24   C26   A    
C44   H4    S    
C40   H20   S    
C18   C20   A    
N4    Ni2   S    
N1    N7    A    
N6    Ni3   S    
C55   H10   S    
C50   C55   A    
C39   H6    S    
C17   N11   A    
C9    C60   A    
N10   Ni2   S    
C37   C44   A    
C13   C15   A    
C41   N13   A    
C54   H11   S    
C29   C31   A    
C75   N7    A    
C7    C66   A    
C30   C32   A    
C73   N5    A    
N15   Ni3   S    
N7    Ni3   S    
C23   C37   S    
C41   H21   S    
C67   C71   A    
N13   Ni4   S    
C72   N4    A    
H48   O4    S    
C43   H38   S    
N11   Ni1   S    
C46   H3    S    
C2    C5    A    
C4    C77   S    
C18   C32   S    
C34   C36   S    
C33   H40   S    
C55   C58   A    
C70   N2    A    
C69   N16   A    
C36   C43   A    
C11   H23   S    
C65   H24   S    
C53   H13   S    
C6    C66   S    
C20   H50   S    
H43   O2    S    
