data_mof_unit_24938.cif
_audit_creation_date              2012-12-10T20:57:47-0500
_audit_creation_method            fapswitch 2.2
_symmetry_space_group_name_H-M    P1
_symmetry_Int_Tables_number       1
_space_group_crystal_system       triclinic
_cell_length_a                    18.192457
_cell_length_b                    18.299962
_cell_length_c                    18.395531
_cell_angle_alpha                 120.187285
_cell_angle_beta                  89.89341
_cell_angle_gamma                 119.785595
_cell_volume                      4336.23580718

loop_
_atom_site_label
_atom_site_type_symbol
_atom_type_description
_atom_site_fract_x
_atom_site_fract_y
_atom_site_fract_z
_atom_type_partial_charge
C1    C     C_R   0.361032 0.219870 0.360440 0.847390
C2    C     C_3   0.801389 0.941506 0.713366 0.199696
C3    C     C_3   0.698936 0.897804 0.696326 -0.149706
C4    C     C_R   0.640917 0.781009 0.638623 0.958749
C5    C     C_3   0.800636 0.102735 0.801266 -0.056729
C6    C     C_3   0.740825 0.058638 0.848221 -0.491289
C7    C     C_3   0.860618 0.061350 0.777830 0.237161
C8    C     C_3   0.638301 0.405918 0.199468 0.686856
C9    C     C_3   0.698869 0.414637 0.141255 -0.448153
C10   C     C_3   0.747770 0.604868 0.309755 0.633512
C11   C     C_3   0.771704 0.490932 0.331812 0.126134
C12   C     C_3   0.215017 0.478666 0.325047 -0.504588
C13   C     C_3   0.697211 0.499277 0.300792 -0.257646
C14   C     C_3   0.799510 0.498956 0.199631 -0.223170
C15   C     C_3   0.814607 0.606435 0.255296 0.118063
C16   C     C_R   0.358710 0.500108 0.640099 0.810740
C17   C     C_3   0.824364 0.477723 0.264830 0.139115
C18   C     C_R   0.382678 0.164737 0.578859 0.448359
C19   C     C_R   0.359062 0.114103 0.486499 -0.197119
C20   C     C_R   0.287501 0.099458 0.438459 -0.063832
C21   C     C_R   0.236768 0.134663 0.484011 0.452161
C22   C     C_R   0.260923 0.185882 0.576569 -0.194344
C23   C     C_3   0.303055 0.503046 0.301912 -0.282628
C24   C     C_R   0.333384 0.201981 0.624470 0.237303
C25   C     C_R   0.216491 0.944522 0.286460 -0.217800
C26   C     C_R   0.196909 0.891759 0.194540 -0.106086
C27   C     C_R   0.234348 0.946324 0.155672 -0.035994
C28   C     C_R   0.640358 0.500211 0.359229 0.974669
C29   C     C_R   0.292688 0.053544 0.210627 0.367533
C30   C     C_R   0.307821 0.107096 0.303808 -0.161640
C31   C     C_R   0.270284 0.050913 0.341452 -0.026711
C32   C     C_R   0.260276 0.857807 0.010091 0.431503
C33   C     C_R   0.234885 0.806270 0.917400 -0.223375
C34   C     C_3   0.197844 0.500619 0.200768 -0.203906
C35   C     C_R   0.160911 0.789857 0.871624 0.405641
C36   C     C_R   0.112625 0.825960 0.918512 -0.153145
C37   C     C_R   0.137927 0.878159 0.011027 -0.217647
C38   C     C_R   0.211376 0.893892 0.057494 0.102144
C39   C     C_R   0.921788 0.627513 0.573235 0.534433
C40   C     C_R   0.641947 0.500403 0.640201 0.834846
C41   C     C_R   0.871522 0.571281 0.606406 -0.072789
C42   C     C_R   0.842640 0.613667 0.677490 0.022917
C43   C     C_R   0.865939 0.714060 0.716677 -0.111897
C44   C     C_R   0.915006 0.770046 0.683152 -0.112354
C45   C     C_3   0.210096 0.411250 0.141636 0.046669
C46   C     C_R   0.942793 0.727207 0.611675 -0.191989
C47   C     C_R   0.841236 0.551309 0.767799 -0.243330
C48   C     C_R   0.799389 0.498519 0.805981 -0.063287
C49   C     C_R   0.705870 0.447298 0.789967 0.065919
C50   C     C_R   0.656848 0.450358 0.735787 -0.199576
C51   C     C_R   0.698618 0.502793 0.697317 -0.060407
C52   C     C_R   0.359165 0.501136 0.359410 0.950367
C53   C     C_R   0.792343 0.554988 0.714126 0.016756
C54   C     C_R   0.630664 0.290393 0.790544 -0.240232
C55   C     C_R   0.579934 0.234825 0.824606 0.305407
C56   C     C_3   0.156004 0.486523 0.272411 0.725915
C57   C     C_R   0.553809 0.281448 0.897657 0.470762
C58   C     C_R   0.578107 0.381953 0.934908 0.440133
C59   C     C_R   0.629289 0.436386 0.900255 -0.347326
C60   C     C_R   0.656066 0.391174 0.828721 0.049730
C61   C     C_R   0.332046 0.753128 0.666495 -0.135234
C62   C     C_R   0.332147 0.702701 0.703574 -0.091442
C63   C     C_R   0.259964 0.600516 0.666618 0.092380
C64   C     C_3   0.353572 0.612148 0.317699 0.545535
C65   C     C_R   0.186715 0.550274 0.593702 -0.269729
C66   C     C_R   0.185827 0.601553 0.557081 0.507036
C67   C     C_3   0.674512 0.942104 0.652919 0.692480
C68   C     C_R   0.259204 0.702785 0.593622 0.005553
C69   C     C_R   0.203843 0.546631 0.763493 -0.228770
C70   C     C_R   0.195776 0.499083 0.806135 -0.055264
C71   C     C_R   0.241335 0.451697 0.793422 0.069706
C72   C     C_R   0.294031 0.453916 0.738992 -0.180411
C73   C     C_R   0.302474 0.501875 0.696670 -0.066140
C74   C     C_R   0.256840 0.549302 0.709334 0.025780
C75   C     C_R   0.305238 0.455997 0.916101 0.457446
C76   C     C_3   0.293325 0.607824 0.250968 0.594540
C77   C     C_R   0.309212 0.404831 0.951349 -0.362036
C78   C     C_3   0.739531 0.062562 0.712998 -0.465393
C79   C     C_R   0.245669 0.298192 0.907484 0.439845
C80   C     C_R   0.177696 0.243112 0.828644 -0.078171
C81   C     C_R   0.172593 0.291696 0.791567 0.348562
C82   C     C_R   0.237405 0.399387 0.835523 -0.042031
C83   C     C_R   0.857187 0.499274 0.142547 0.988769
C84   C     C_R   0.139129 0.500081 0.862243 0.842012
C85   C     C_R   0.857121 0.219090 0.861679 0.872026
C86   C     C_R   0.138577 0.779777 0.140965 0.856536
C87   C     C_R   0.855855 0.499924 0.862303 0.814976
C88   C     C_3   0.272325 0.413575 0.201292 0.152749
C89   C     C_3   0.684575 0.938956 0.789232 0.074131
C90   C     C_R   0.138821 0.499134 0.142796 0.998810
Cl1   Cl    Cl    0.464340 0.654600 0.309434 -0.495787
Cl2   Cl    Cl    0.360584 0.270315 0.741130 -0.644621
Cl3   Cl    Cl    0.348134 0.116045 0.158748 -0.448498
Cl4   Cl    Cl    0.352144 0.874413 0.064876 -0.495188
Cl5   Cl    Cl    0.128259 0.723666 0.755390 -0.643988
Cl6   Cl    Cl    0.042214 0.371850 0.221893 -0.496440
Cl7   Cl    Cl    0.560665 0.905864 0.641341 -0.581927
Cl8   Cl    Cl    0.376675 0.710136 0.432108 -0.447321
Cl9   Cl    Cl    0.828870 0.894994 0.612183 -0.483312
Cl10  Cl    Cl    0.709714 0.893862 0.846141 -0.606194
Cl11  Cl    Cl    0.586801 0.282057 0.181619 -0.381732
Cl12  Cl    Cl    0.734287 0.400597 0.360940 -0.429341
Cl13  Cl    Cl    0.809297 0.354753 0.205117 -0.402673
H1    H     H_    0.232309 0.339709 0.195314 0.220735
H2    H     H_    0.680220 0.434627 0.099719 0.235778
H3    H     H_    0.820796 0.565550 0.396473 0.151247
H4    H     H_    0.897242 0.535902 0.303995 0.123055
H5    H     H_    0.884893 0.663303 0.302860 0.152247
H6    H     H_    0.397840 0.087145 0.451850 0.207963
H7    H     H_    0.223206 0.214237 0.611702 0.216040
H8    H     H_    0.188601 0.902775 0.316279 0.196755
H9    H     H_    0.272349 0.778505 0.880931 0.183257
H10   H     H_    0.055290 0.813298 0.883297 0.171651
H11   H     H_    0.099622 0.905224 0.046523 0.166345
H12   H     H_    0.782160 0.089988 0.676968 0.231837
H13   H     H_    0.981059 0.771867 0.586780 0.162252
H14   H     H_    0.855210 0.494577 0.576971 0.178610
H15   H     H_    0.845363 0.748345 0.772541 0.161156
H16   H     H_    0.931909 0.846974 0.712896 0.175182
H17   H     H_    0.912959 0.590582 0.779735 0.196290
H18   H     H_    0.585160 0.411294 0.724010 0.204691
H19   H     H_    0.650296 0.255256 0.734101 0.174376
H20   H     H_    0.239438 0.421418 0.091756 0.142158
H21   H     H_    0.647815 0.513736 0.928505 0.179389
H22   H     H_    0.259377 0.742873 0.565898 0.203695
H23   H     H_    0.701120 0.097380 0.728190 0.190670
H24   H     H_    0.388013 0.831792 0.694947 0.213732
H25   H     H_    0.388167 0.743127 0.761096 0.165816
H26   H     H_    0.130083 0.472227 0.566623 0.150008
H27   H     H_    0.167932 0.581549 0.771620 0.199554
H28   H     H_    0.329334 0.418238 0.730379 0.198885
H29   H     H_    0.362326 0.447777 0.012296 0.153577
H30   H     H_    0.177555 0.400227 0.310535 0.186274
H31   H     H_    0.129157 0.160826 0.794706 0.177501
H32   H     H_    0.230344 0.531262 0.397752 0.260711
H33   H     H_    0.136833 0.264065 0.046994 0.374135
H34   H     H_    0.612663 0.908780 0.780205 0.209864
H35   H     H_    0.663179 0.928908 0.540793 0.382705
H36   H     H_    0.972239 0.102798 0.751404 0.368595
H37   H     H_    0.530304 0.346288 0.110174 0.416888
H38   H     H_    0.665516 0.579719 0.215913 0.406089
H39   H     H_    0.338871 0.753772 0.317958 0.400542
H40   H     H_    0.834268 0.711414 0.239711 0.378659
H41   H     H_    0.761929 0.709608 0.429704 0.418289
H42   H     H_    0.461789 0.209316 0.685078 0.374367
H43   H     H_    0.354655 0.577708 0.161280 0.315325
H44   H     H_    0.153530 0.084041 0.376874 0.338892
H45   H     H_    0.694668 0.083515 0.862015 0.233646
H46   H     H_    0.371390 0.465594 0.156884 0.345118
H47   H     H_    0.984034 0.632573 0.488313 0.339197
H48   H     H_    0.575257 0.113488 0.735158 0.369671
H49   H     H_    0.492525 0.162128 0.902986 0.392982
H50   H     H_    0.572833 0.495495 0.023839 0.346694
H51   H     H_    0.068375 0.484437 0.468447 0.366057
H52   H     H_    0.410346 0.588727 0.013437 0.362445
H53   H     H_    0.302286 0.294071 0.993361 0.386388
H54   H     H_    0.104711 0.273788 0.694696 0.347758
H55   H     H_    0.098467 0.560687 0.312162 0.381800
H56   H     H_    0.818957 0.912525 0.746097 0.128076
H57   H     H_    0.899991 0.084752 0.841163 0.102108
H58   H     H_    0.783606 0.091243 0.913883 0.246740
H59   H     H_    0.687614 0.338654 0.093327 0.247282
O1    O     O_3   0.500000 0.500000 0.500000 -0.539481
O2    O     O_R   0.113800 0.731630 0.056520 -0.652254
O3    O     O_R   0.819390 0.439310 0.886160 -0.645988
O4    O     O_R   0.383400 0.268380 0.323710 -0.580467
O5    O     O_R   0.115110 0.560720 0.179280 -0.611046
O6    O     O_R   0.941380 0.560750 0.885620 -0.650698
O7    O     O_R   0.115110 0.439270 0.057830 -0.624775
O8    O     O_R   0.942690 0.268390 0.886930 -0.602464
O9    O     O_R   0.114340 0.731630 0.178520 -0.633216
O10   O     O_R   0.820160 0.439310 0.057830 -0.638349
O11   O     O_R   0.113800 0.560730 0.885620 -0.642205
O12   O     O_R   0.383400 0.560740 0.616060 -0.648598
O13   O     O_R   0.555060 0.731630 0.615290 -0.597155
O14   O     O_R   0.383950 0.439280 0.616600 -0.644176
O15   O     O_R   0.677590 0.560710 0.444390 -0.644366
O16   O     O_R   0.556370 0.439260 0.616600 -0.644585
O17   O     O_R   0.382640 0.439290 0.322940 -0.577214
O18   O     O_R   0.678360 0.560700 0.616060 -0.636291
O19   O     O_R   0.382640 0.560750 0.444390 -0.611607
O20   O     O_3   0.126790 0.314370 0.093442 -0.679702
O21   O     O_3   0.682076 0.902615 0.567210 -0.657712
O22   O     O_3   0.920508 0.105554 0.740745 -0.653605
O23   O     O_R   0.555060 0.439270 0.322940 -0.536486
O24   O     O_3   0.568150 0.408833 0.171833 -0.688547
O25   O     O_3   0.685712 0.618398 0.281600 -0.673497
O26   O     O_3   0.281596 0.688119 0.299052 -0.639733
O27   O     O_3   0.807466 0.636324 0.199958 -0.767859
O28   O     O_3   0.800074 0.688696 0.399540 -0.755113
O29   O     O_3   0.454298 0.176442 0.621029 -0.740501
O30   O     O_3   0.332561 0.621501 0.188325 -0.748114
O31   O     O_3   0.165062 0.123016 0.441903 -0.740696
O32   O     O_3   0.344244 0.414945 0.171586 -0.680830
O33   O     O_3   0.949595 0.583397 0.503916 -0.689922
O34   O     O_R   0.383950 0.268380 0.445700 -0.653190
O35   O     O_3   0.554364 0.135254 0.787101 -0.736662
O36   O     O_3   0.503715 0.231050 0.933970 -0.701375
O37   O     O_3   0.550282 0.424801 0.004916 -0.699138
O38   O     O_3   0.114196 0.555510 0.486749 -0.687397
O39   O     O_3   0.367855 0.560587 0.957947 -0.706073
O40   O     O_3   0.248782 0.245371 0.939246 -0.714930
O41   O     O_3   0.104520 0.230609 0.712048 -0.713967
O42   O     O_3   0.155632 0.572714 0.334542 -0.657903
O43   O     O_R   0.677590 0.731610 0.615290 -0.614659
O44   O     O_3   0.997750 0.500010 0.002220 -0.513600
O45   O     O_R   0.942690 0.560750 0.179280 -0.665079
O46   O     O_R   0.114340 0.439270 0.886160 -0.646584
O47   O     O_R   0.820160 0.268410 0.886930 -0.648860
Zn1   Zn    Zn3+2 0.456040 0.586770 0.543190 1.049623
Zn2   Zn    Zn3+2 0.456820 0.413240 0.543960 0.990633
Zn3   Zn    Zn3+2 0.631110 0.586750 0.543190 1.051357
Zn4   Zn    Zn3+2 0.456040 0.413240 0.369660 1.134595
Zn5   Zn    Zn3+2 0.041710 0.413240 0.959030 1.039129
Zn6   Zn    Zn3+2 0.866640 0.413270 0.959030 0.996215
Zn7   Zn    Zn3+2 0.040930 0.586780 0.958260 0.991195
Zn8   Zn    Zn3+2 0.041710 0.586770 0.132560 1.043055

loop_
_geom_bond_atom_site_label_1
_geom_bond_atom_site_label_2
_ccdc_geom_bond_type
O44   Zn6   S    
C25   C31   A    
C32   Cl4   S    
C63   C65   A    
C34   C56   S    
C8    C13   S    
C90   O5    A    
C27   C29   A    
H55   O42   S    
C41   C42   A    
H48   O35   S    
C66   C68   A    
C35   C36   A    
C43   C44   A    
C29   Cl3   S    
H53   O40   S    
C81   C82   A    
C75   O39   S    
C4    O43   A    
C39   C41   A    
C54   C60   A    
O2    Zn7   S    
O7    Zn5   S    
C50   H18   S    
C12   C23   S    
C26   C27   A    
C37   C38   A    
C49   C60   S    
C7    O22   S    
C18   C24   A    
O15   Zn3   S    
C36   C37   A    
C6    H45   S    
C10   C15   S    
C17   H4    S    
C42   C53   S    
C30   C31   A    
C57   O36   S    
C27   C38   S    
C9    H2    S    
C11   C13   S    
C80   H31   S    
C18   C19   A    
C73   C74   A    
O13   Zn1   S    
O18   Zn3   S    
C6    C89   S    
C83   O45   A    
C33   C35   A    
C40   O18   A    
O34   Zn2   S    
O3    Zn6   S    
C11   C17   S    
C2    C7    S    
C8    C9    S    
C22   H7    S    
C12   H32   S    
C13   C28   S    
C70   C71   A    
H38   O25   S    
C32   C38   A    
O10   Zn6   S    
C70   C84   S    
C8    Cl11  S    
C21   O31   S    
C76   O26   S    
C67   Cl7   S    
C47   C53   A    
C71   C82   S    
C5    C85   S    
O44   Zn5   S    
C64   Cl8   S    
C54   H19   S    
C59   C60   A    
C21   C22   A    
H42   O29   S    
C14   C17   S    
H43   O30   S    
C61   C62   A    
C67   C78   S    
C14   C83   S    
C36   H10   S    
C24   Cl2   S    
C88   H1    S    
O1    Zn1   S    
C44   C46   A    
C45   O20   S    
C10   O25   S    
C57   C58   A    
C77   C79   A    
O44   Zn8   S    
H40   O27   S    
C58   O37   S    
C3    C89   S    
C18   O29   S    
O45   Zn8   S    
C37   H11   S    
C89   Cl10  S    
C86   O9    A    
C88   O32   S    
C1    O34   A    
C52   O19   A    
C78   H12   S    
C81   O41   S    
C5    C7    S    
O1    Zn2   S    
C69   H27   S    
C7    H57   S    
O4    Zn4   S    
O43   Zn3   S    
C8    O24   S    
C25   C26   A    
C39   O33   S    
C4    O13   A    
C45   H20   S    
C16   C73   S    
O19   Zn1   S    
C51   C53   A    
C77   H29   S    
C15   H5    S    
C9    C14   S    
C34   C90   S    
C62   C63   A    
C76   O30   S    
H46   O32   S    
H51   O38   S    
H50   O37   S    
C84   O46   A    
C47   C48   A    
C6    H58   S    
C26   C86   S    
C79   O40   S    
C83   O10   A    
O17   Zn4   S    
C11   H3    S    
C50   C51   A    
C64   C76   S    
C48   C87   S    
H49   O36   S    
C69   C74   A    
C61   H24   S    
C33   H9    S    
C10   O28   S    
H35   O21   S    
C75   C77   A    
O9    Zn8   S    
C67   O21   S    
C39   C46   A    
C40   O16   A    
C45   C88   S    
C15   O27   S    
C48   C49   A    
C87   O3    A    
C2    Cl9   S    
C49   C50   A    
C89   H34   S    
C12   H30   S    
C55   C57   A    
C87   O6    A    
O47   Zn6   S    
C22   C24   A    
C86   O2    A    
C42   C43   A    
C2    H56   S    
H54   O41   S    
C84   O11   A    
C78   H23   S    
C72   H28   S    
C28   O15   A    
C16   O12   A    
C59   H21   S    
C56   Cl6   S    
C54   C55   A    
C23   C64   S    
O46   Zn5   S    
O12   Zn1   S    
C55   O35   S    
C34   C45   S    
C3    C67   S    
C80   C81   A    
C10   C13   S    
C85   O47   A    
C65   H26   S    
O1    Zn3   S    
C75   C82   A    
O8    Zn5   S    
C63   C74   S    
C35   Cl5   S    
C40   C51   S    
H39   O26   S    
C85   O8    A    
C44   H16   S    
O14   Zn2   S    
C46   H13   S    
C23   C88   S    
O44   Zn7   S    
C32   C33   A    
O6    Zn7   S    
C19   C20   A    
C2    C3    S    
C58   C59   A    
C52   O17   A    
H37   O24   S    
C71   C72   A    
C28   O23   A    
C62   H25   S    
O1    Zn4   S    
C61   C68   A    
C16   O14   A    
C23   C52   S    
C5    C6    S    
C19   H6    S    
H41   O28   S    
C1    O4    A    
C72   C73   A    
C90   O7    A    
C1    C30   S    
C12   C56   S    
O23   Zn4   S    
O16   Zn2   S    
H44   O31   S    
C11   Cl12  S    
C17   Cl13  S    
C9    H59   S    
C69   C70   A    
O11   Zn7   S    
H47   O33   S    
C56   O42   S    
C25   H8    S    
C43   H15   S    
C29   C30   A    
C79   C80   A    
C20   C21   A    
C65   C66   A    
H33   O20   S    
C47   H17   S    
C14   C15   S    
C64   Cl1   S    
C41   H14   S    
C5    C78   S    
H52   O39   S    
C68   H22   S    
O5    Zn8   S    
C66   O38   S    
H36   O22   S    
C3    C4    S    
C34   C76   S    
C20   C31   S    
