data_mof_unit_61445.cif
_audit_creation_date              2012-12-10T19:06:14-0500
_audit_creation_method            fapswitch 2.2
_symmetry_space_group_name_H-M    P1
_symmetry_Int_Tables_number       1
_space_group_crystal_system       triclinic
_cell_length_a                    13.060043
_cell_length_b                    13.626794
_cell_length_c                    15.736626
_cell_angle_alpha                 90.037203
_cell_angle_beta                  92.593345
_cell_angle_gamma                 85.728939
_cell_volume                      2789.94419107

loop_
_atom_site_label
_atom_site_type_symbol
_atom_type_description
_atom_site_fract_x
_atom_site_fract_y
_atom_site_fract_z
_atom_type_partial_charge
C1    C     C_R   0.481221 0.685158 0.499095 0.892974
C2    C     C_R   0.518779 0.314842 0.500905 0.892973
C3    C     C_2   0.544539 0.020492 0.502169 -0.154635
C4    C     C_2   0.455461 0.979508 0.497831 -0.154635
C5    C     C_1   0.457501 0.875759 0.497931 0.019701
C6    C     C_1   0.542499 0.124241 0.502069 0.019701
C7    C     C_2   0.033268 0.473056 0.475965 -0.229863
C8    C     C_2   0.966732 0.526944 0.524035 -0.229863
C9    C     C_1   0.854700 0.519523 0.517307 0.161937
C10   C     C_1   0.145300 0.480477 0.482693 0.161936
C11   C     C_R   0.499320 0.499994 0.662369 0.899657
C12   C     C_R   0.500680 0.500006 0.337631 0.899656
C13   C     C_3   0.444534 0.580500 0.026703 -0.215951
C14   C     C_3   0.555466 0.419500 0.973297 -0.215951
C15   C     C_3   0.540831 0.581570 0.972767 -0.216187
C16   C     C_3   0.459169 0.418430 0.027233 -0.216187
C17   C     C_1   0.497956 0.499908 0.751194 -0.153296
C18   C     C_1   0.502044 0.500092 0.248806 -0.153296
C19   C     C_3   0.402916 0.498869 0.969638 0.224013
C20   C     C_3   0.597084 0.501131 0.030362 0.224013
C21   C     C_3   0.498588 0.499931 0.917273 0.104229
C22   C     C_3   0.501412 0.500069 0.082727 0.104229
C23   C     C_1   0.497801 0.499890 0.826437 -0.002305
C24   C     C_1   0.502199 0.500110 0.173562 -0.002305
C25   C     C_1   0.533675 0.211666 0.501636 -0.166123
C26   C     C_1   0.466324 0.788334 0.498363 -0.166124
H1    H     H_    0.574483 0.648028 0.948624 0.170471
H2    H     H_    0.425517 0.351972 0.051375 0.170471
H3    H     H_    0.398962 0.646080 0.050411 0.170749
H4    H     H_    0.601038 0.353920 0.949589 0.170749
H5    H     H_    0.382180 0.023098 0.494263 0.165255
H6    H     H_    0.617820 0.976902 0.505737 0.165255
H7    H     H_    0.996327 0.578385 0.570027 0.173226
H8    H     H_    0.003673 0.421615 0.429973 0.173226
N1    N     N_1   0.234530 0.484780 0.486590 -0.087865
N2    N     N_1   0.765470 0.515220 0.513410 -0.087866
O1    O     O_R   0.402510 0.634760 0.495090 -0.606664
O2    O     O_R   0.597490 0.365240 0.504910 -0.606664
O3    O     O_R   0.572960 0.644530 0.503700 -0.604652
O4    O     O_R   0.427040 0.355470 0.496300 -0.604652
O5    O     O_R   0.414790 0.495120 0.618920 -0.600055
O6    O     O_R   0.585210 0.504880 0.381080 -0.600055
O7    O     O_R   0.585240 0.504900 0.627530 -0.608880
O8    O     O_R   0.414760 0.495100 0.372470 -0.608880
Zn1   Zn    Zn3+2 0.386190 0.493480 0.494250 0.996898
Zn2   Zn    Zn3+2 0.613810 0.506520 0.505750 0.996898
I1    I     I_    0.751715 0.502937 0.080237 -0.332632
I2    I     I_    0.248285 0.497063 0.919763 -0.332632

loop_
_geom_bond_atom_site_label_1
_geom_bond_atom_site_label_2
_ccdc_geom_bond_type
C16   H2    S    
C7    C10   S    
C12   O6    A    
C11   O7    A    
C10   N1    T    
C2    O4    A    
C9    N2    T    
C1    C26   S    
C2    O2    A    
C1    O3    A    
C15   H1    S    
C1    O1    A    
O3    Zn2   S    
C15   C20   S    
C3    C6    S    
C13   C15   S    
C8    C9    S    
C7    C8    D    
C12   O8    A    
N2    Zn2   S    
C17   C23   T    
C14   H4    S    
C16   C19   S    
C18   C24   T    
C14   C21   S    
C13   H3    S    
C19   C21   S    
C20   C22   S    
C13   C22   S    
C11   O5    A    
C2    C25   S    
C14   C16   S    
C8    H7    S    
C21   C23   S    
O4    Zn1   S    
O7    Zn2   S    
C22   C24   S    
O2    Zn2   S    
C6    C25   T    
C13   C19   S    
O1    Zn1   S    
C3    C4    D    
C4    H5    S    
C14   C20   S    
C15   C21   S    
O8    Zn1   S    
O6    Zn2   S    
C7    H8    S    
C12   C18   S    
O5    Zn1   S    
C19   I2    S    
C11   C17   S    
C16   C22   S    
C3    H6    S    
C20   I1    S    
C5    C26   T    
C4    C5    S    
N1    Zn1   S    
