data_mof_unit_64386.cif
_audit_creation_date              2012-12-10T19:44:03-0500
_audit_creation_method            fapswitch 2.2
_symmetry_space_group_name_H-M    P1
_symmetry_Int_Tables_number       1
_space_group_crystal_system       triclinic
_cell_length_a                    30.595899
_cell_length_b                    30.519938
_cell_length_c                    23.525672
_cell_angle_alpha                 89.887869
_cell_angle_beta                  131.005855
_cell_angle_gamma                 89.974891
_cell_volume                      16577.8505608

loop_
_atom_site_label
_atom_site_type_symbol
_atom_type_description
_atom_site_fract_x
_atom_site_fract_y
_atom_site_fract_z
_atom_type_partial_charge
C1    C     C_R   0.810607 0.809965 0.501286 0.877017
C2    C     C_1   0.514886 0.748330 0.033538 0.127312
C3    C     C_R   0.909307 0.095862 0.499825 -0.137578
C4    C     C_R   0.585232 0.602587 0.437181 0.081537
C5    C     C_R   0.415633 0.603100 0.563146 0.082527
C6    C     C_R   0.084764 0.102879 0.436901 0.049745
C7    C     C_R   0.914596 0.102350 0.562581 0.077184
C8    C     C_3   0.590611 0.569999 0.394846 -0.527006
C9    C     C_3   0.411816 0.570939 0.607604 -0.524047
C10   C     C_3   0.089466 0.070554 0.393622 -0.543480
C11   C     C_3   0.909281 0.069705 0.605067 -0.519884
C12   C     C_3   0.629883 0.602888 0.398915 0.305154
C13   C     C_1   0.983282 0.251109 0.966361 0.111923
C14   C     C_3   0.372797 0.603939 0.603958 0.301410
C15   C     C_3   0.128268 0.103637 0.397045 0.258369
C16   C     C_3   0.870059 0.102679 0.601032 0.299610
C17   C     C_R   0.440028 0.560633 0.499726 0.904546
C18   C     C_R   0.559877 0.560646 0.500135 0.904485
C19   C     C_R   0.940018 0.060608 0.499737 0.901576
C20   C     C_R   0.059903 0.060628 0.500145 0.900141
C21   C     C_R   0.939220 0.940334 0.499968 0.877585
C22   C     C_R   0.060351 0.939808 0.500361 0.879349
C23   C     C_R   0.439496 0.439926 0.499830 0.877624
C24   C     C_1   0.017129 0.252139 0.033621 0.115659
C25   C     C_R   0.560593 0.439938 0.500287 0.877653
C26   C     C_R   0.823502 0.749887 0.646755 0.833827
C27   C     C_R   0.176701 0.749829 0.353235 0.840812
C28   C     C_R   0.323396 0.249791 0.646772 0.840152
C29   C     C_R   0.676678 0.249841 0.353240 0.839601
C30   C     C_R   0.457605 0.771347 0.847848 0.475675
C31   C     C_R   0.541491 0.772493 0.152598 0.479574
C32   C     C_R   0.890579 0.226268 0.846701 0.465117
C33   C     C_R   0.044370 0.276614 0.152995 0.479997
C34   C     C_R   0.417882 0.771597 0.769168 -0.277703
C35   C     C_R   0.897913 0.853974 0.567050 0.049073
C36   C     C_R   0.581948 0.772789 0.231266 -0.280898
C37   C     C_R   0.851623 0.226806 0.768116 -0.226231
C38   C     C_R   0.083934 0.275325 0.231587 -0.237667
C39   C     C_R   0.364353 0.750340 0.729100 -0.101512
C40   C     C_R   0.634509 0.749941 0.270785 -0.110695
C41   C     C_R   0.864373 0.250183 0.729120 -0.107854
C42   C     C_R   0.135701 0.251441 0.270866 -0.090369
C43   C     C_R   0.350450 0.728928 0.768217 -0.130307
C44   C     C_R   0.646498 0.726665 0.231041 -0.113039
C45   C     C_R   0.916414 0.273497 0.769319 -0.185687
C46   C     C_R   0.158581 0.846012 0.559500 0.037671
C47   C     C_R   0.148030 0.228895 0.230954 -0.111056
C48   C     C_R   0.389679 0.728548 0.846410 -0.196051
C49   C     C_R   0.606487 0.726177 0.152846 -0.197736
C50   C     C_R   0.955302 0.273345 0.847550 -0.232374
C51   C     C_R   0.108749 0.229762 0.152732 -0.208845
C52   C     C_3   0.699554 0.683154 0.634890 -0.409991
C53   C     C_3   0.666287 0.720066 0.635585 -0.781348
C54   C     C_3   0.298028 0.682243 0.363502 -0.409213
C55   C     C_3   0.330095 0.719235 0.360733 -0.784969
C56   C     C_3   0.200577 0.182518 0.635445 -0.404728
C57   C     C_R   0.331422 0.352869 0.434837 0.031696
C58   C     C_3   0.167858 0.219461 0.637129 -0.802064
C59   C     C_3   0.800075 0.183480 0.364758 -0.404274
C60   C     C_3   0.833289 0.220336 0.363900 -0.791121
C61   C     C_3   0.958988 0.785130 0.595205 -0.336521
C62   C     C_3   0.957792 0.745254 0.633339 -0.860159
C63   C     C_3   0.196449 0.795035 0.667136 -0.356279
C64   C     C_3   0.179233 0.763400 0.699749 -0.846489
C65   C     C_3   0.271784 0.314835 0.309953 -0.352464
C66   C     C_3   0.274004 0.286818 0.258295 -0.857314
C67   C     C_3   0.733728 0.317966 0.693357 -0.396295
C68   C     C_R   0.670417 0.353901 0.566151 0.037056
C69   C     C_3   0.734344 0.290430 0.748034 -0.759104
C70   C     C_R   0.842751 0.843088 0.500749 -0.081649
C71   C     C_R   0.158131 0.843781 0.500150 -0.098850
C72   C     C_R   0.342150 0.343651 0.500777 -0.086781
C73   C     C_R   0.189671 0.810114 0.499153 0.868457
C74   C     C_R   0.658008 0.343637 0.499467 -0.086970
C75   C     C_R   0.815045 0.869542 0.436613 -0.204382
C76   C     C_R   0.133290 0.877746 0.446976 -0.188580
C77   C     C_R   0.377167 0.371519 0.562891 -0.195383
C78   C     C_R   0.621318 0.370604 0.436165 -0.199213
C79   C     C_R   0.846117 0.902608 0.436100 -0.204179
C80   C     C_R   0.101285 0.910024 0.447178 -0.208636
C81   C     C_R   0.408664 0.404152 0.562406 -0.205170
C82   C     C_R   0.589930 0.403325 0.436674 -0.205830
C83   C     C_R   0.904104 0.909826 0.500796 -0.101720
C84   C     C_R   0.310300 0.310063 0.500902 0.866377
C85   C     C_R   0.095963 0.908669 0.501994 -0.091534
C86   C     C_R   0.403730 0.409145 0.498995 -0.102651
C87   C     C_R   0.596503 0.409245 0.501175 -0.104222
C88   C     C_R   0.927397 0.887794 0.567314 0.121038
C89   C     C_R   0.128145 0.878436 0.560825 0.116100
C90   C     C_R   0.361839 0.385388 0.433771 0.109742
C91   C     C_R   0.639940 0.386427 0.567137 0.107409
C92   C     C_3   0.985001 0.866493 0.624168 -0.515945
C93   C     C_3   0.109364 0.848266 0.591431 -0.514202
C94   C     C_3   0.366479 0.359528 0.383932 -0.479139
C95   C     C_R   0.689837 0.310054 0.499345 0.868004
C96   C     C_3   0.637837 0.361327 0.620025 -0.473718
C97   C     C_3   0.952818 0.828171 0.624054 -0.071775
C98   C     C_3   0.142954 0.812179 0.589501 -0.040052
C99   C     C_3   0.332824 0.323339 0.385525 -0.058373
C100  C     C_3   0.671658 0.325160 0.618636 -0.062608
C101  C     C_R   0.676457 0.750076 0.353254 0.944985
C102  C     C_R   0.323259 0.750180 0.646697 0.937893
C103  C     C_R   0.176703 0.250340 0.353280 0.934483
C104  C     C_R   0.823355 0.250078 0.646706 0.929720
C105  C     C_R   0.047237 0.722566 0.152435 -0.156946
C106  C     C_R   0.443043 0.749500 0.886164 -0.018062
C107  C     C_R   0.955976 0.724843 0.847188 -0.158395
C108  C     C_R   0.546985 0.222509 0.152663 -0.159134
C109  C     C_R   0.453697 0.222431 0.847394 -0.154856
C110  C     C_R   0.086008 0.723024 0.230796 -0.192154
C111  C     C_R   0.916569 0.725218 0.768822 -0.205154
C112  C     C_R   0.585933 0.222973 0.231011 -0.193133
C113  C     C_R   0.414486 0.222854 0.769030 -0.191402
C114  C     C_R   0.135927 0.749189 0.270763 -0.041721
C115  C     C_R   0.864971 0.749474 0.729201 -0.037739
C116  C     C_R   0.635756 0.249241 0.270774 -0.042169
C117  C     C_R   0.554258 0.748924 0.113687 -0.023689
C118  C     C_R   0.364555 0.249164 0.729248 -0.041836
C119  C     C_R   0.146663 0.774626 0.231218 -0.195236
C120  C     C_R   0.853336 0.773251 0.769061 -0.192705
C121  C     C_R   0.646193 0.274806 0.231030 -0.196335
C122  C     C_R   0.354277 0.274812 0.768985 -0.196938
C123  C     C_R   0.107831 0.774072 0.152862 -0.153899
C124  C     C_R   0.892799 0.772761 0.847437 -0.152242
C125  C     C_R   0.607169 0.274247 0.152661 -0.153546
C126  C     C_R   0.393557 0.274296 0.847357 -0.157605
C127  C     C_R   0.058206 0.748134 0.113728 0.154268
C128  C     C_R   0.942589 0.249932 0.886211 -0.008456
C129  C     C_R   0.943979 0.748594 0.886236 0.154655
C130  C     C_R   0.557662 0.248180 0.113750 0.154609
C131  C     C_R   0.443170 0.248190 0.886292 0.154674
C132  C     C_1   0.018140 0.748096 0.033644 -0.056647
C133  C     C_1   0.984318 0.748248 0.966322 -0.057595
C134  C     C_1   0.517459 0.248027 0.033679 -0.057477
C135  C     C_1   0.483537 0.248027 0.966365 -0.057361
C136  C     C_R   0.619567 0.632789 0.439504 0.073244
C137  C     C_R   0.381479 0.633370 0.561085 0.072608
C138  C     C_R   0.118873 0.133183 0.438960 0.036059
C139  C     C_R   0.057017 0.253244 0.113769 -0.011829
C140  C     C_R   0.880329 0.132614 0.560314 0.067213
C141  C     C_R   0.658895 0.657536 0.504027 -0.198857
C142  C     C_R   0.341072 0.657569 0.495981 -0.196986
C143  C     C_R   0.158768 0.157553 0.503785 -0.175225
C144  C     C_R   0.840973 0.157550 0.495779 -0.196693
C145  C     C_R   0.659554 0.655444 0.564669 0.154324
C146  C     C_R   0.339167 0.654990 0.434354 0.154215
C147  C     C_R   0.160042 0.155136 0.564922 0.153252
C148  C     C_R   0.840142 0.155554 0.434998 0.154003
C149  C     C_R   0.690754 0.689992 0.501390 0.925367
C150  C     C_1   0.482019 0.748521 0.966291 0.123713
C151  C     C_R   0.309285 0.690009 0.498712 0.925345
C152  C     C_R   0.190641 0.189994 0.501168 0.924445
C153  C     C_R   0.809178 0.190006 0.498497 0.923389
C154  C     C_R   0.624908 0.624098 0.561883 -0.226499
C155  C     C_R   0.373730 0.623616 0.436953 -0.226913
C156  C     C_R   0.125453 0.123792 0.562255 -0.228005
C157  C     C_R   0.874706 0.124126 0.437708 -0.228778
C158  C     C_R   0.590392 0.595979 0.499842 -0.139191
C159  C     C_R   0.409338 0.595947 0.499764 -0.139740
C160  C     C_R   0.090454 0.095949 0.499895 -0.119175
H1    H     H_    0.963038 0.825075 0.678869 0.177767
H2    H     H_    0.926594 0.706706 0.739386 0.159831
H3    H     H_    0.218764 0.751064 0.755182 0.256690
H4    H     H_    0.224952 0.777419 0.660997 0.206209
H5    H     H_    0.221711 0.822570 0.707120 0.222581
H6    H     H_    0.298725 0.303843 0.245443 0.266237
H7    H     H_    0.294814 0.254748 0.285376 0.257686
H8    H     H_    0.229284 0.280799 0.204673 0.250901
H9    H     H_    0.246186 0.297152 0.320861 0.195820
H10   H     H_    0.249089 0.346193 0.281031 0.220410
H11   H     H_    0.709654 0.307120 0.761194 0.261794
H12   H     H_    0.715022 0.257739 0.723399 0.262981
H13   H     H_    0.576922 0.202946 0.260314 0.163255
H14   H     H_    0.779731 0.285759 0.801183 0.275838
H15   H     H_    0.758942 0.300448 0.681710 0.199461
H16   H     H_    0.755520 0.349807 0.720159 0.224006
H17   H     H_    0.423379 0.202766 0.739726 0.164803
H18   H     H_    0.184975 0.794888 0.260707 0.164701
H19   H     H_    0.813754 0.792033 0.739792 0.165105
H20   H     H_    0.684413 0.295160 0.260370 0.164525
H21   H     H_    0.315985 0.295207 0.739638 0.162932
H22   H     H_    0.116383 0.793898 0.122839 0.143766
H23   H     H_    0.883451 0.791169 0.877735 0.145617
H24   H     H_    0.615489 0.294151 0.122460 0.144292
H25   H     H_    0.114881 0.785944 0.547794 0.179343
H26   H     H_    0.385341 0.294254 0.877545 0.140854
H27   H     H_    0.626771 0.620498 0.609295 0.173973
H28   H     H_    0.370984 0.619650 0.388902 0.173626
H29   H     H_    0.127741 0.119971 0.609981 0.171584
H30   H     H_    0.872765 0.120610 0.390241 0.172605
H31   H     H_    0.613609 0.539638 0.427914 0.162601
H32   H     H_    0.388925 0.540359 0.575786 0.162637
H33   H     H_    0.112698 0.040140 0.426292 0.174973
H34   H     H_    0.886259 0.039448 0.572082 0.165319
H35   H     H_    0.548337 0.564366 0.337425 0.255142
H36   H     H_    0.358668 0.293082 0.415391 0.179854
H37   H     H_    0.454661 0.565684 0.664653 0.255723
H38   H     H_    0.046898 0.064985 0.336492 0.238431
H39   H     H_    0.951582 0.063889 0.662474 0.254457
H40   H     H_    0.675626 0.591709 0.434376 0.089678
H41   H     H_    0.327318 0.592592 0.570060 0.090624
H42   H     H_    0.173919 0.092457 0.431460 0.107559
H43   H     H_    0.824318 0.091658 0.565650 0.094046
H44   H     H_    0.428838 0.787987 0.739125 0.211545
H45   H     H_    0.572376 0.790612 0.261718 0.212220
H46   H     H_    0.811171 0.209161 0.737279 0.211733
H47   H     H_    0.646590 0.294403 0.591193 0.181138
H48   H     H_    0.074102 0.292644 0.262150 0.204401
H49   H     H_    0.309249 0.712534 0.738434 0.176246
H50   H     H_    0.686817 0.708905 0.260321 0.183148
H51   H     H_    0.927178 0.291711 0.740407 0.176729
H52   H     H_    0.187941 0.210574 0.260113 0.178204
H53   H     H_    0.378381 0.711901 0.875960 0.175923
H54   H     H_    0.616382 0.708166 0.122814 0.180499
H55   H     H_    0.995364 0.291572 0.877997 0.164062
H56   H     H_    0.118587 0.211890 0.122532 0.165542
H57   H     H_    0.770609 0.863310 0.386317 0.153135
H58   H     H_    0.008711 0.702438 0.122074 0.142108
H59   H     H_    0.136154 0.877964 0.403441 0.158552
H60   H     H_    0.382177 0.366667 0.612549 0.151269
H61   H     H_    0.615007 0.364993 0.385730 0.150160
H62   H     H_    0.825651 0.921284 0.384951 0.174330
H63   H     H_    0.079581 0.935065 0.403785 0.167099
H64   H     H_    0.438062 0.424222 0.612066 0.173255
H65   H     H_    0.559277 0.422665 0.386196 0.173514
H66   H     H_    0.006352 0.859364 0.601017 0.189024
H67   H     H_    0.127714 0.858046 0.648871 0.213068
H68   H     H_    0.342791 0.375505 0.328094 0.210670
H69   H     H_    0.995713 0.706113 0.877277 0.139634
H70   H     H_    0.662130 0.378160 0.675157 0.212757
H71   H     H_    0.012511 0.884744 0.678256 0.202547
H72   H     H_    0.061758 0.842788 0.550956 0.171465
H73   H     H_    0.411914 0.350142 0.412687 0.179022
H74   H     H_    0.593049 0.351453 0.593494 0.179984
H75   H     H_    0.573170 0.845377 0.987689 0.388917
H76   H     H_    0.429230 0.849248 0.013654 0.387287
H77   H     H_    0.920138 0.154865 0.992521 0.403635
H78   H     H_    0.924884 0.345709 0.003956 0.388865
H79   H     H_    0.696662 0.740112 0.687134 0.243081
H80   H     H_    0.508560 0.202278 0.122474 0.141155
H81   H     H_    0.632571 0.706467 0.635495 0.256497
H82   H     H_    0.645363 0.741541 0.585529 0.272740
H83   H     H_    0.720554 0.662240 0.685648 0.205128
H84   H     H_    0.735218 0.697514 0.639794 0.197073
H85   H     H_    0.298904 0.738939 0.308745 0.242779
H86   H     H_    0.351178 0.741018 0.410281 0.272954
H87   H     H_    0.363552 0.705726 0.360219 0.256366
H88   H     H_    0.276803 0.661033 0.313201 0.204626
H89   H     H_    0.262598 0.696488 0.359251 0.195851
H90   H     H_    0.198613 0.239264 0.688885 0.241606
H91   H     H_    0.492195 0.202157 0.877601 0.144245
H92   H     H_    0.134278 0.205901 0.637337 0.254150
H93   H     H_    0.146837 0.241162 0.587305 0.273210
H94   H     H_    0.221701 0.161381 0.685993 0.204764
H95   H     H_    0.236125 0.196818 0.640041 0.196325
H96   H     H_    0.802867 0.240541 0.312335 0.244384
H97   H     H_    0.854272 0.241671 0.413937 0.271108
H98   H     H_    0.866952 0.206680 0.363906 0.254787
H99   H     H_    0.779003 0.162710 0.314010 0.205711
H100  H     H_    0.764473 0.197909 0.359962 0.196838
H101  H     H_    0.540989 0.675641 0.234412 0.386023
H102  H     H_    0.076782 0.703091 0.259950 0.163052
H103  H     H_    0.463035 0.677842 0.765845 0.387577
H104  H     H_    0.014819 0.145986 0.268964 0.359053
H105  H     H_    0.958725 0.175247 0.764869 0.383564
H106  H     H_    0.996617 0.745088 0.694362 0.247930
H107  H     H_    0.918649 0.745802 0.626989 0.288025
H108  H     H_    0.957761 0.714800 0.607573 0.247630
H109  H     H_    0.924445 0.782202 0.533083 0.227590
H110  H     H_    0.001177 0.784410 0.608422 0.208833
H111  H     H_    0.151465 0.780226 0.707830 0.263689
H112  H     H_    0.155356 0.735044 0.661465 0.255643
O1    O     O_R   0.821670 0.769930 0.500010 -0.629490
O2    O     O_R   0.077130 0.954190 0.562600 -0.618118
O3    O     O_R   0.422870 0.454190 0.437400 -0.618224
O4    O     O_R   0.577130 0.454190 0.562600 -0.617352
O5    O     O_R   0.985440 0.954220 0.562600 -0.619479
O6    O     O_R   0.014560 0.954220 0.437400 -0.620713
O7    O     O_R   0.485440 0.454220 0.562600 -0.626421
O8    O     O_R   0.514560 0.454220 0.437400 -0.628075
O9    O     O_R   0.769920 0.821660 0.500020 -0.612962
O10   O     O_R   0.230080 0.821660 0.499980 -0.613431
O11   O     O_R   0.269920 0.321660 0.500020 -0.614225
O12   O     O_R   0.178330 0.769930 0.499990 -0.635723
O13   O     O_R   0.730080 0.321660 0.499980 -0.615565
O14   O     O_R   0.720420 0.724130 0.389120 -0.592237
O15   O     O_R   0.279580 0.724130 0.610880 -0.598895
O16   O     O_R   0.220420 0.224130 0.389120 -0.597805
O17   O     O_R   0.779580 0.224130 0.610880 -0.589129
O18   O     O_R   0.668670 0.775850 0.389130 -0.623351
O19   O     O_R   0.331330 0.775850 0.610870 -0.619664
O20   O     O_R   0.168670 0.275850 0.389130 -0.623314
O21   O     O_R   0.831330 0.275850 0.610870 -0.629952
O22   O     O_R   0.730060 0.678320 0.499990 -0.616444
O23   O     O_R   0.321670 0.269930 0.500010 -0.631937
O24   O     O_R   0.269940 0.678320 0.500010 -0.618637
O25   O     O_R   0.230060 0.178320 0.499990 -0.617751
O26   O     O_R   0.769940 0.178320 0.500010 -0.615111
O27   O     O_R   0.678300 0.730040 0.500010 -0.604711
O28   O     O_R   0.321700 0.730040 0.499990 -0.603915
O29   O     O_R   0.178300 0.230040 0.500010 -0.605965
O30   O     O_R   0.821700 0.230040 0.499990 -0.608203
O31   O     O_R   0.831300 0.724120 0.610880 -0.642456
O32   O     O_R   0.168700 0.724120 0.389120 -0.626420
O33   O     O_R   0.331300 0.224120 0.610880 -0.625663
O34   O     O_R   0.678330 0.269930 0.499990 -0.629879
O35   O     O_R   0.668700 0.224120 0.389120 -0.626030
O36   O     O_R   0.779550 0.775850 0.610900 -0.621794
O37   O     O_R   0.220450 0.775850 0.389100 -0.626663
O38   O     O_R   0.279550 0.275850 0.610900 -0.627053
O39   O     O_R   0.720450 0.275850 0.389100 -0.626437
O40   O     O_R   0.422810 0.545810 0.437360 -0.628869
O41   O     O_R   0.577190 0.545810 0.562640 -0.628115
O42   O     O_R   0.922810 0.045810 0.437360 -0.629751
O43   O     O_R   0.077190 0.045810 0.562640 -0.628516
O44   O     O_2   0.572796 0.764861 0.942261 -0.303924
O45   O     O_R   0.485380 0.545840 0.562560 -0.611521
O46   O     O_2   0.528391 0.821086 0.843601 -0.280787
O47   O     O_3   0.532610 0.835141 0.956152 -0.527700
O48   O     O_2   0.426101 0.769732 0.059170 -0.308272
O49   O     O_2   0.473783 0.825654 0.158130 -0.283469
O50   O     O_3   0.469257 0.837730 0.044862 -0.528215
O51   O     O_2   0.859010 0.228509 0.928638 -0.270493
O52   O     O_2   0.821494 0.167522 0.839965 -0.273995
O53   O     O_3   0.929906 0.165614 0.962283 -0.522780
O54   O     O_2   0.930579 0.274723 0.074069 -0.230532
O55   O     O_2   0.983251 0.337187 0.158764 -0.292264
O56   O     O_R   0.514620 0.545840 0.437440 -0.611779
O57   O     O_3   0.965483 0.335634 0.034539 -0.574032
O58   O     O_2   0.649071 0.644747 0.316983 -0.310003
O59   O     O_2   0.575047 0.587488 0.252882 -0.270935
O60   O     O_3   0.549470 0.661895 0.278924 -0.540145
O61   O     O_2   0.355536 0.646756 0.687069 -0.308275
O62   O     O_2   0.430268 0.589766 0.751229 -0.269458
O63   O     O_3   0.453700 0.663755 0.721109 -0.538133
O64   O     O_2   0.145253 0.146720 0.313612 -0.266207
O65   O     O_2   0.072301 0.088949 0.250231 -0.267842
O66   O     O_3   0.046354 0.162728 0.277393 -0.513826
O67   O     O_R   0.985380 0.045840 0.562560 -0.611803
O68   O     O_2   0.851102 0.144732 0.682951 -0.291575
O69   O     O_2   0.924642 0.086865 0.747008 -0.253113
O70   O     O_3   0.950877 0.161041 0.721143 -0.554989
O71   O     O_R   0.014620 0.045840 0.437440 -0.614862
O72   O     O_R   0.922870 0.954190 0.437400 -0.623580
S1    S     S_3+6 0.524966 0.798205 0.897222 0.028510
S2    S     S_3+6 0.475567 0.801602 0.103972 0.026273
S3    S     S_3+6 0.872962 0.196569 0.893974 0.046459
S4    S     S_3+6 0.979121 0.306519 0.105486 0.040819
S5    S     S_3+6 0.600787 0.624130 0.309082 0.031894
S6    S     S_3+6 0.403214 0.625961 0.693735 0.033369
S7    S     S_3+6 0.097889 0.125328 0.306893 0.049604
S8    S     S_3+6 0.899236 0.123705 0.690867 0.043385
Zn1   Zn    Zn3+2 0.784540 0.715450 0.500000 0.977948
Zn2   Zn    Zn3+2 0.541810 0.500000 0.583590 0.971899
Zn3   Zn    Zn3+2 0.958190 0.000000 0.416410 0.973028
Zn4   Zn    Zn3+2 0.041810 0.000000 0.583590 0.971637
Zn5   Zn    Zn3+2 0.215460 0.715450 0.500000 0.982350
Zn6   Zn    Zn3+2 0.284540 0.215450 0.500000 0.988454
Zn7   Zn    Zn3+2 0.715460 0.215450 0.500000 0.999465
Zn8   Zn    Zn3+2 0.715430 0.784520 0.500020 0.991804
Zn9   Zn    Zn3+2 0.284570 0.784520 0.499980 0.989594
Zn10  Zn    Zn3+2 0.215430 0.284520 0.500020 0.984217
Zn11  Zn    Zn3+2 0.784570 0.284520 0.499980 0.969530
Zn12  Zn    Zn3+2 0.458190 0.500000 0.416410 0.966791

loop_
_geom_bond_atom_site_label_1
_geom_bond_atom_site_label_2
_ccdc_geom_bond_type
C73   O10   A    
C113  H17   S    
C105  C110  A    
C87   C91   A    
C37   H46   S    
C142  C146  A    
C18   O41   A    
C107  C129  A    
H78   O57   S    
H104  O66   S    
C154  C158  A    
C63   C98   S    
C138  C143  A    
O35   Zn7   S    
C82   C87   A    
C14   H41   S    
C29   O35   A    
C60   H98   S    
C91   C96   S    
C23   O3    A    
O12   Zn5   S    
O36   Zn8   S    
C21   C83   S    
C3    C19   S    
O8    Zn12  S    
C81   C86   A    
C141  C145  A    
C83   C88   A    
C46   C98   S    
C59   C60   S    
C130  C134  S    
O22   Zn1   S    
C101  O18   A    
C2    C117  S    
C121  H20   S    
O71   Zn3   S    
C57   C90   A    
C65   C99   S    
C86   C90   A    
C10   H33   S    
C71   C73   S    
O5    Zn4   S    
C30   C34   A    
C104  O21   A    
C149  O22   A    
O39   Zn11  S    
C69   H12   S    
C142  C151  S    
C136  C141  A    
C21   O5    A    
O60   S5    S    
C78   C82   A    
C14   C137  S    
C67   H16   S    
O30   Zn11  S    
O51   S3    D    
C152  O25   A    
C72   C84   S    
O70   S8    S    
C67   C100  S    
C129  C133  S    
C73   O12   A    
C107  H69   S    
C15   S7    S    
O16   Zn6   S    
C59   H100  S    
C61   H110  S    
C79   H62   S    
C48   H53   S    
C109  H91   S    
O17   Zn7   S    
O54   S4    D    
O42   Zn3   S    
C1    C70   S    
C6    C160  A    
C5    C137  A    
C119  C123  A    
C3    C7    A    
C33   C38   A    
C65   H10   S    
C28   C118  S    
C80   H63   S    
C1    O9    A    
C7    C140  A    
C50   H55   S    
C33   C139  A    
C54   H89   S    
C14   S6    S    
C43   H49   S    
C20   C160  S    
C41   C45   A    
C31   C36   A    
C75   C79   A    
C102  O19   A    
C51   H56   S    
C2    C150  T    
C137  C142  A    
C122  C126  A    
C106  C150  S    
C26   O36   A    
H77   O53   S    
C42   C103  S    
C46   C89   A    
O44   S1    D    
C5    C9    S    
O14   Zn1   S    
C66   H7    S    
O15   Zn5   S    
C120  H19   S    
C53   H81   S    
C25   O4    A    
O65   S7    D    
C75   H57   S    
C76   H59   S    
H76   O50   S    
C57   C99   S    
C60   H96   S    
O52   S3    D    
C8    H35   S    
C118  C122  A    
C22   C85   S    
C64   H112  S    
C62   H108  S    
C40   C101  S    
C157  H30   S    
C49   C117  A    
C34   H44   S    
C124  C129  A    
C110  C114  A    
C108  C130  A    
C114  C119  A    
C156  H29   S    
C125  H24   S    
O58   S5    D    
C16   C140  S    
O2    Zn4   S    
C153  O30   A    
C9    H37   S    
C92   C97   S    
C84   O11   A    
C105  C127  A    
C155  C159  A    
C34   C39   A    
C156  C160  A    
C52   H83   S    
H75   O47   S    
O33   Zn6   S    
C23   O7    A    
C55   H86   S    
O18   Zn8   S    
C27   O32   A    
C68   C100  S    
C121  C125  A    
H105  O70   S    
C93   H67   S    
C123  C127  A    
C8    C12   S    
C12   H40   S    
C32   C37   A    
C145  C154  A    
C97   H1    S    
O67   Zn4   S    
C32   S3    S    
C112  C116  A    
C52   C53   S    
C39   C102  S    
H103  O63   S    
C104  O17   A    
C81   H64   S    
C54   C55   S    
C17   O45   A    
C107  C111  A    
C76   C80   A    
C22   O6    A    
C134  C135  T    
C94   H68   S    
C41   C104  S    
C4    C136  A    
C32   C128  A    
C56   C147  S    
C62   H106  S    
O32   Zn5   S    
C96   C100  S    
C56   C58   S    
C148  C157  A    
C19   O42   A    
C89   C93   S    
C61   C62   S    
C17   C159  S    
O72   Zn3   S    
C63   C64   S    
C63   H5    S    
C12   C136  S    
C33   S4    S    
C70   C75   A    
C3    C157  A    
C28   O38   A    
C45   C50   A    
C51   C139  A    
C153  O26   A    
C53   H79   S    
O29   Zn10  S    
C45   H51   S    
C26   O31   A    
C56   H94   S    
C25   O8    A    
C71   C76   A    
O69   S8    D    
C25   C87   S    
O25   Zn6   S    
C69   H11   S    
C26   C115  S    
O40   Zn12  S    
O24   Zn5   S    
C122  H21   S    
C48   C106  A    
C146  C155  A    
O56   Zn12  S    
C67   H15   S    
C23   C86   S    
C109  C131  A    
C27   O37   A    
C54   H88   S    
C4    C8    S    
C54   C146  S    
O3    Zn12  S    
C92   H66   S    
O34   Zn7   S    
C59   H99   S    
C111  H2    S    
C64   H3    S    
O10   Zn9   S    
C61   H109  S    
C100  H47   S    
C90   C94   S    
C24   C139  S    
C63   H4    S    
O20   Zn10  S    
C151  O24   A    
C126  H26   S    
O63   S6    S    
C116  C121  A    
C84   O23   A    
H101  O60   S    
C85   C89   A    
C47   C51   A    
C92   H71   S    
C95   O13   A    
C99   H36   S    
C108  C112  A    
C65   H9    S    
C60   H97   S    
C143  C147  A    
C9    C14   S    
C80   C85   A    
C18   C158  S    
C11   C16   S    
C77   C81   A    
O47   S1    S    
O9    Zn8   S    
O64   S7    D    
C147  C156  A    
C46   C71   A    
C93   H72   S    
C143  C152  S    
C50   C128  A    
C69   H14   S    
O59   S5    D    
O23   Zn6   S    
O66   S7    S    
C61   C97   S    
C151  O28   A    
C140  C144  A    
O57   S4    S    
C6    C10   S    
C94   H73   S    
C38   C42   A    
C98   H25   S    
C154  H27   S    
O31   Zn1   S    
C66   H8    S    
C10   C15   S    
C149  O27   A    
C79   C83   A    
C103  O20   A    
O55   S4    D    
O62   S6    D    
C30   S1    S    
C19   O67   A    
C49   H54   S    
C101  O14   A    
C44   H50   S    
C36   H45   S    
C57   C72   A    
C11   H39   S    
C103  O16   A    
C16   S8    S    
O7    Zn2   S    
O4    Zn2   S    
C105  H58   S    
C74   C78   A    
C96   H74   S    
O13   Zn11  S    
C29   O39   A    
C68   C74   A    
C22   O2    A    
C44   C49   A    
C52   C145  S    
C28   O33   A    
C58   H92   S    
O45   Zn2   S    
C11   H34   S    
O48   S2    D    
C144  C148  A    
C31   S2    S    
O26   Zn7   S    
C141  C149  S    
O50   S2    S    
O28   Zn9   S    
C20   O43   A    
C7    C11   S    
C17   O40   A    
C38   H48   S    
C126  C131  A    
O21   Zn11  S    
C123  H22   S    
C131  C135  S    
C155  H28   S    
C52   H84   S    
O68   S8    D    
C12   S5    S    
C8    H31   S    
O46   S1    D    
O61   S6    D    
C68   C91   A    
C58   H93   S    
C144  C153  S    
C127  C132  S    
C31   C117  A    
O27   Zn8   S    
C13   C128  S    
C125  C130  A    
C4    C158  A    
C108  H80   S    
C35   C70   A    
C132  C133  T    
C5    C159  A    
C119  H18   S    
C96   H70   S    
C9    H32   S    
C43   C48   A    
C95   O34   A    
C1    O1    A    
C109  C113  A    
C15   C138  S    
C59   C148  S    
C112  H13   S    
C55   H87   S    
C47   H52   S    
C30   C106  A    
C37   C41   A    
O43   Zn4   S    
C152  O29   A    
C10   H38   S    
O49   S2    D    
C82   H65   S    
O38   Zn10  S    
C88   C92   S    
C36   C40   A    
C53   H82   S    
C124  H23   S    
C39   C43   A    
O11   Zn10  S    
C13   C24   T    
C67   C69   S    
C102  O15   A    
C6    C138  A    
C72   C77   A    
O19   Zn9   S    
C64   H111  S    
C62   H107  S    
C35   C88   A    
C40   C44   A    
C29   C116  S    
C65   C66   S    
C58   H90   S    
C16   H43   S    
C20   O71   A    
C15   H42   S    
O6    Zn3   S    
C74   C95   S    
C66   H6    S    
C77   H60   S    
C21   O72   A    
C35   C97   S    
C94   C99   S    
O41   Zn2   S    
C42   C47   A    
C18   O56   A    
C110  H102  S    
C78   H61   S    
C113  C118  A    
C27   C114  S    
O37   Zn9   S    
C115  C120  A    
C55   H85   S    
C56   H95   S    
C111  C115  A    
O53   S3    S    
O1    Zn1   S    
C93   C98   S    
C120  C124  A    
