data_mof_unit_7248.cif
_audit_creation_date              2012-12-11T14:04:12-0500
_audit_creation_method            fapswitch 2.2
_symmetry_space_group_name_H-M    P1
_symmetry_Int_Tables_number       1
_space_group_crystal_system       triclinic
_cell_length_a                    19.284945
_cell_length_b                    11.142081
_cell_length_c                    18.829729
_cell_angle_alpha                 89.544775
_cell_angle_beta                  89.392547
_cell_angle_gamma                 89.894384
_cell_volume                      4045.66573484

loop_
_atom_site_label
_atom_site_type_symbol
_atom_type_description
_atom_site_fract_x
_atom_site_fract_y
_atom_site_fract_z
_atom_type_partial_charge
C1    C     C_R   0.238845 0.471513 0.646370 0.564811
C2    C     C_R   0.761097 0.470845 0.353498 0.510463
C3    C     C_R   0.738846 0.971513 0.646370 0.564811
C4    C     C_R   0.261097 0.970845 0.353498 0.510463
C5    C     C_2   0.290616 0.877183 0.538417 0.057003
C6    C     C_2   0.707361 0.881984 0.461440 0.001127
C7    C     C_2   0.790616 0.377183 0.538417 0.057003
C8    C     C_2   0.207361 0.381984 0.461440 0.001127
C9    C     C_R   0.003767 0.658490 0.425895 -0.016077
C10   C     C_R   0.992835 0.666089 0.575699 -0.008246
C11   C     C_R   0.503767 0.158490 0.425895 -0.016077
C12   C     C_R   0.492835 0.166089 0.575699 -0.008246
C13   C     C_R   0.043758 0.869957 0.426366 0.027961
C14   C     C_R   0.993542 0.888739 0.568521 0.039443
C15   C     C_R   0.543758 0.369957 0.426366 0.027961
C16   C     C_R   0.493542 0.388739 0.568521 0.039444
C17   C     C_R   0.053831 0.973349 0.466189 -0.100766
C18   C     C_R   0.026987 0.984223 0.534549 -0.080681
C19   C     C_R   0.553831 0.473349 0.466189 -0.100766
C20   C     C_R   0.526987 0.484223 0.534549 -0.080682
C21   C     C_R   0.997600 0.774397 0.535826 0.019379
C22   C     C_R   0.012826 0.768629 0.461022 0.015476
C23   C     C_R   0.497600 0.274397 0.535826 0.019379
C24   C     C_R   0.512826 0.268628 0.461022 0.015476
C25   C     C_R   0.983218 0.558082 0.539256 0.038696
C26   C     C_R   0.001177 0.552172 0.467193 -0.002580
C27   C     C_R   0.483218 0.058082 0.539256 0.038695
C28   C     C_R   0.501177 0.052172 0.467193 -0.002580
C29   C     C_R   0.961768 0.452746 0.574824 -0.033446
C30   C     C_R   0.016349 0.439038 0.438178 -0.094580
C31   C     C_R   0.461769 0.952746 0.574824 -0.033446
C32   C     C_R   0.516349 0.939038 0.438178 -0.094580
C33   C     C_R   0.972417 0.340339 0.544255 0.291272
C34   C     C_R   0.000534 0.333616 0.475490 0.277145
C35   C     C_R   0.472417 0.840339 0.544255 0.291272
C36   C     C_R   0.500534 0.833616 0.475490 0.277145
C37   C     C_2   0.257349 0.943461 0.908244 -0.002968
C38   C     C_2   0.751484 0.927611 0.078590 -0.011428
C39   C     C_2   0.757349 0.443461 0.908244 -0.002968
C40   C     C_2   0.251484 0.427611 0.078590 -0.011428
C41   C     C_2   0.252604 0.926409 0.079165 -0.044487
C42   C     C_2   0.752553 0.902453 0.917735 -0.142529
C43   C     C_2   0.752604 0.426409 0.079165 -0.044487
C44   C     C_2   0.252553 0.402453 0.917735 -0.142529
C45   C     C_R   0.229061 0.877309 0.650884 0.520815
C46   C     C_R   0.771288 0.875631 0.349788 0.531145
C47   C     C_R   0.729061 0.377309 0.650884 0.520816
C48   C     C_R   0.271288 0.375631 0.349788 0.531145
C49   C     C_2   0.251860 0.012468 0.029073 0.227265
C50   C     C_2   0.807427 0.937625 0.956759 0.224079
C51   C     C_2   0.751860 0.512468 0.029073 0.227265
C52   C     C_2   0.307427 0.437625 0.956759 0.224079
C53   C     C_2   0.217644 0.985177 0.962635 -0.043961
C54   C     C_2   0.800944 0.972593 0.033153 0.070815
C55   C     C_2   0.717643 0.485177 0.962635 -0.043961
C56   C     C_2   0.300944 0.472593 0.033153 0.070815
C57   C     C_2   0.988728 0.663236 0.914608 0.270700
C58   C     C_2   0.993245 0.657947 0.076082 0.245473
C59   C     C_2   0.488728 0.163236 0.914608 0.270700
C60   C     C_2   0.493245 0.157947 0.076082 0.245473
C61   C     C_2   0.966881 0.574979 0.032174 -0.111237
C62   C     C_2   0.985265 0.567192 0.957823 -0.168991
C63   C     C_2   0.466881 0.074979 0.032174 -0.111237
C64   C     C_2   0.485265 0.067192 0.957823 -0.168991
C65   C     C_R   0.028818 0.655541 0.645533 0.551467
C66   C     C_R   0.970917 0.653957 0.354586 0.538476
C67   C     C_R   0.528818 0.155541 0.645533 0.551467
C68   C     C_R   0.470917 0.153957 0.354586 0.538476
C69   C     C_R   0.239575 0.463408 0.849684 0.526120
C70   C     C_R   0.760988 0.465243 0.150793 0.578464
C71   C     C_R   0.739575 0.963408 0.849684 0.526120
C72   C     C_R   0.260987 0.965243 0.150793 0.578464
C73   C     C_R   0.226791 0.873636 0.852033 0.555642
C74   C     C_R   0.773351 0.874196 0.146782 0.574618
C75   C     C_R   0.726791 0.373636 0.852033 0.555642
C76   C     C_R   0.273351 0.374196 0.146782 0.574618
C77   C     C_R   0.028920 0.652346 0.849868 0.570234
C78   C     C_R   0.969307 0.652080 0.148934 0.539727
C79   C     C_R   0.528920 0.152346 0.849868 0.570234
C80   C     C_R   0.469307 0.152080 0.148934 0.539727
C81   C     C_2   0.264061 0.940022 0.593274 0.223040
C82   C     C_2   0.735454 0.940839 0.405404 0.212990
C83   C     C_2   0.764061 0.440022 0.593274 0.223040
C84   C     C_2   0.235454 0.440839 0.405404 0.212990
C85   C     C_2   0.251060 0.924924 0.423594 -0.117191
C86   C     C_2   0.749008 0.924579 0.576665 -0.060762
C87   C     C_2   0.751060 0.424924 0.423594 -0.117191
C88   C     C_2   0.249008 0.424579 0.576665 -0.060762
C89   C     C_2   0.299255 0.943163 0.472948 0.280862
C90   C     C_2   0.701795 0.948723 0.527313 0.266668
C91   C     C_2   0.799255 0.443163 0.472948 0.280862
C92   C     C_2   0.201795 0.448723 0.527313 0.266667
Cr1   Cr    Cr6+3 0.113970 0.508630 0.747920 1.022027
Cr2   Cr    Cr6+3 0.886030 0.508630 0.252080 1.015215
Cr3   Cr    Cr6+3 0.613970 0.008630 0.747920 1.022027
Cr4   Cr    Cr6+3 0.386030 0.008630 0.252080 1.015215
Cr5   Cr    Cr6+3 0.269200 0.666740 0.749850 1.001121
Cr6   Cr    Cr6+3 0.730800 0.666740 0.250150 0.998595
Cr7   Cr    Cr6+3 0.769200 0.166740 0.749850 1.001121
Cr8   Cr    Cr6+3 0.230800 0.166740 0.250150 0.998595
Cr9   Cr    Cr6+3 0.112300 0.820070 0.749800 1.020171
Cr10  Cr    Cr6+3 0.887700 0.820070 0.250200 1.005283
Cr11  Cr    Cr6+3 0.612300 0.320070 0.749800 1.020171
Cr12  Cr    Cr6+3 0.387700 0.320070 0.250200 1.005283
H1    H     H_    0.232670 0.837044 0.069425 0.016007
H2    H     H_    0.708231 0.859509 0.941584 0.071983
H3    H     H_    0.732670 0.337044 0.069425 0.016007
H4    H     H_    0.208231 0.359509 0.941584 0.071983
H5    H     H_    0.933784 0.503060 0.052122 0.123924
H6    H     H_    0.001240 0.478731 0.939996 0.109279
H7    H     H_    0.433785 0.003060 0.052122 0.123924
H8    H     H_    0.501240 0.978731 0.939996 0.109279
H9    H     H_    0.204871 0.873276 0.435957 0.073458
H10   H     H_    0.793250 0.867606 0.565174 0.056559
H11   H     H_    0.704871 0.373276 0.435957 0.073458
H12   H     H_    0.293250 0.367606 0.565174 0.056559
H13   H     H_    0.081889 0.047837 0.443128 0.150180
H14   H     H_    0.032737 0.068205 0.561727 0.191768
H15   H     H_    0.581889 0.547837 0.443128 0.150180
H16   H     H_    0.532737 0.568205 0.561727 0.191768
H17   H     H_    0.041162 0.432290 0.386488 0.119767
H18   H     H_    0.938906 0.457947 0.627562 0.109671
H19   H     H_    0.541162 0.932290 0.386488 0.119767
H20   H     H_    0.438906 0.957947 0.627562 0.109671
O1    O     O_R   0.043230 0.549300 0.667990 -0.507896
O2    O     O_R   0.956770 0.549300 0.332010 -0.518415
O3    O     O_R   0.543230 0.049300 0.667990 -0.507896
O4    O     O_R   0.456770 0.049300 0.332010 -0.518415
O5    O     O_R   0.262920 0.788600 0.824420 -0.499024
O6    O     O_R   0.737080 0.788600 0.175580 -0.470125
O7    O     O_R   0.762920 0.288600 0.824420 -0.499024
O8    O     O_R   0.237080 0.288600 0.175580 -0.470125
O9    O     O_R   0.167530 0.905110 0.830340 -0.534971
O10   O     O_R   0.832470 0.905110 0.169660 -0.535625
O11   O     O_R   0.667530 0.405110 0.830340 -0.534971
O12   O     O_R   0.332470 0.405110 0.169660 -0.535625
O13   O     O_R   0.054010 0.748440 0.822860 -0.467521
O14   O     O_R   0.945990 0.748440 0.177140 -0.502550
O15   O     O_R   0.554010 0.248440 0.822860 -0.467521
O16   O     O_R   0.445990 0.248440 0.177140 -0.502550
O17   O     O_3   0.165160 0.665150 0.749190 -0.249926
O18   O     O_3   0.834840 0.665150 0.250810 -0.245705
O19   O     O_3   0.665160 0.165150 0.749190 -0.249926
O20   O     O_3   0.334840 0.165150 0.250810 -0.245705
O21   O     O_R   0.178620 0.457600 0.674100 -0.457056
O22   O     O_R   0.821380 0.457600 0.325900 -0.489229
O23   O     O_R   0.678620 0.957600 0.674100 -0.457056
O24   O     O_R   0.321380 0.957600 0.325900 -0.489229
O25   O     O_R   0.284680 0.542100 0.669460 -0.553398
O26   O     O_R   0.715320 0.542100 0.330540 -0.557355
O27   O     O_R   0.784680 0.042100 0.669460 -0.553398
O28   O     O_R   0.215320 0.042100 0.330540 -0.557356
O29   O     O_R   0.262860 0.790390 0.676650 -0.534515
O30   O     O_R   0.737140 0.790390 0.323350 -0.539138
O31   O     O_R   0.762860 0.290390 0.676650 -0.534515
O32   O     O_R   0.237140 0.290390 0.323350 -0.539138
O33   O     O_R   0.167460 0.907030 0.670940 -0.521037
O34   O     O_R   0.832540 0.907030 0.329060 -0.515067
O35   O     O_R   0.667460 0.407030 0.670940 -0.521037
O36   O     O_R   0.332540 0.407030 0.329060 -0.515067
O37   O     O_R   0.053950 0.750220 0.675100 -0.498316
O38   O     O_R   0.946050 0.750220 0.324900 -0.507792
O39   O     O_R   0.553950 0.250220 0.675100 -0.498316
O40   O     O_R   0.446050 0.250220 0.324900 -0.507792
O41   O     O_R   0.043300 0.547370 0.827390 -0.567012
O42   O     O_R   0.956700 0.547370 0.172610 -0.543299
O43   O     O_R   0.543300 0.047370 0.827390 -0.567012
O44   O     O_R   0.456700 0.047370 0.172610 -0.543299
O45   O     O_R   0.178690 0.455820 0.821860 -0.507226
O46   O     O_R   0.821310 0.455820 0.178140 -0.500427
O47   O     O_R   0.678690 0.955820 0.821860 -0.507226
O48   O     O_R   0.321310 0.955820 0.178140 -0.500427
O49   O     O_R   0.284750 0.540170 0.828860 -0.488045
O50   O     O_R   0.715250 0.540170 0.171140 -0.495339
O51   O     O_R   0.784750 0.040170 0.828860 -0.488045
O52   O     O_R   0.215250 0.040170 0.171140 -0.495339
O53   O     O_3   0.352506 0.025530 0.467099 -0.669625
H21   H     H_    0.342888 0.084500 0.428930 0.329692
O54   O     O_3   0.651294 0.034627 0.538411 -0.688151
H22   H     H_    0.631046 0.053841 0.491776 0.341509
O55   O     O_3   0.852506 0.525531 0.467099 -0.669625
H23   H     H_    0.842888 0.584500 0.428929 0.329692
O56   O     O_3   0.151294 0.534627 0.538411 -0.688151
H24   H     H_    0.131046 0.553841 0.491776 0.341509
C93   C     C_3   0.138109 0.985898 0.962199 -0.247197
C94   C     C_3   0.103298 0.041799 0.027588 -0.414423
H25   H     H_    0.113050 0.986734 0.075756 0.163730
H26   H     H_    0.122545 0.134550 0.035679 0.162145
H27   H     H_    0.046345 0.045778 0.019629 0.160825
H28   H     H_    0.120566 0.040550 0.916158 0.178134
H29   H     H_    0.118682 0.892553 0.956883 0.217232
C95   C     C_3   0.853013 0.065054 0.059837 -0.205155
C96   C     C_3   0.853989 0.180018 0.014533 -0.419137
H30   H     H_    0.885903 0.168420 0.965765 0.207818
H31   H     H_    0.800682 0.206346 0.999163 0.148542
H32   H     H_    0.877249 0.254425 0.045107 0.112537
H33   H     H_    0.839220 0.094599 0.114404 0.143501
H34   H     H_    0.905835 0.025037 0.060790 0.185403
C97   C     C_3   0.638109 0.485898 0.962199 -0.247197
C98   C     C_3   0.603298 0.541799 0.027588 -0.414424
H35   H     H_    0.613050 0.486734 0.075756 0.163731
H36   H     H_    0.622545 0.634550 0.035679 0.162145
H37   H     H_    0.546345 0.545778 0.019629 0.160825
H38   H     H_    0.620566 0.540550 0.916158 0.178134
H39   H     H_    0.618682 0.392553 0.956883 0.217232
C99   C     C_3   0.353013 0.565054 0.059837 -0.205155
C100  C     C_3   0.353989 0.680018 0.014533 -0.419137
H40   H     H_    0.385903 0.668420 0.965765 0.207818
H41   H     H_    0.300682 0.706346 0.999163 0.148542
H42   H     H_    0.377249 0.754425 0.045107 0.112537
H43   H     H_    0.339220 0.594598 0.114404 0.143501
H44   H     H_    0.405835 0.525038 0.060790 0.185403
C101  C     C_3   0.334956 0.963324 0.902345 -0.293824
C102  C     C_3   0.352568 0.034584 0.834568 -0.429040
H45   H     H_    0.326946 0.996912 0.787191 0.159847
H46   H     H_    0.336536 0.129826 0.840645 0.141873
H47   H     H_    0.408907 0.030345 0.823949 0.149378
H48   H     H_    0.354876 0.013685 0.947875 0.162331
H49   H     H_    0.362194 0.875418 0.901287 0.150044
C103  C     C_3   0.674585 0.944406 0.066720 -0.310612
C104  C     C_3   0.658621 0.065950 0.032377 -0.425673
H50   H     H_    0.605212 0.064319 0.013721 0.193151
H51   H     H_    0.665127 0.138986 0.071524 0.158568
H52   H     H_    0.691246 0.085792 0.985061 0.155970
H53   H     H_    0.652222 0.869095 0.036705 0.136101
H54   H     H_    0.646842 0.942236 0.118800 0.150433
C105  C     C_3   0.834956 0.463324 0.902345 -0.293824
C106  C     C_3   0.852568 0.534584 0.834568 -0.429040
H55   H     H_    0.826947 0.496911 0.787191 0.159847
H56   H     H_    0.836535 0.629826 0.840644 0.141873
H57   H     H_    0.908907 0.530346 0.823949 0.149377
H58   H     H_    0.854876 0.513686 0.947875 0.162331
H59   H     H_    0.862194 0.375418 0.901287 0.150044
C107  C     C_3   0.174585 0.444406 0.066720 -0.310613
C108  C     C_3   0.158621 0.565950 0.032377 -0.425673
H60   H     H_    0.105212 0.564319 0.013721 0.193151
H61   H     H_    0.165127 0.638986 0.071524 0.158568
H62   H     H_    0.191246 0.585792 0.985061 0.155970
H63   H     H_    0.152222 0.369095 0.036705 0.136102
H64   H     H_    0.146842 0.442235 0.118800 0.150433
O57   O     O_3   0.036625 0.748447 0.051973 -0.710082
H65   H     H_    0.050625 0.796630 0.093449 0.307994
O58   O     O_3   0.962774 0.774719 0.932384 -0.651465
H66   H     H_    0.925337 0.764138 0.968365 0.357592
O59   O     O_3   0.536625 0.248447 0.051973 -0.710081
H67   H     H_    0.550624 0.296630 0.093449 0.307994
O60   O     O_3   0.462774 0.274719 0.932384 -0.651465
H68   H     H_    0.425337 0.264138 0.968365 0.357592
C109  C     C_3   0.293154 0.739952 0.535881 -0.302992
C110  C     C_3   0.331949 0.688575 0.471685 -0.370545
H69   H     H_    0.308200 0.715887 0.421088 0.175602
H70   H     H_    0.384963 0.721533 0.469156 0.234583
H71   H     H_    0.334464 0.589293 0.476062 0.188932
H72   H     H_    0.321864 0.705270 0.582157 0.213287
H73   H     H_    0.239525 0.704528 0.537365 0.198845
C111  C     C_3   0.699287 0.745727 0.465190 -0.291230
C112  C     C_3   0.661331 0.699603 0.531890 -0.404085
H74   H     H_    0.687937 0.723855 0.581253 0.175335
H75   H     H_    0.608586 0.737219 0.535291 0.192683
H76   H     H_    0.658581 0.600493 0.530478 0.167645
H77   H     H_    0.667859 0.715713 0.419697 0.180158
H78   H     H_    0.751188 0.703425 0.462315 0.176459
C113  C     C_3   0.793154 0.239952 0.535881 -0.302992
C114  C     C_3   0.831949 0.188575 0.471685 -0.370545
H79   H     H_    0.808200 0.215887 0.421088 0.175602
H80   H     H_    0.884963 0.221533 0.469156 0.234582
H81   H     H_    0.834464 0.089293 0.476062 0.188932
H82   H     H_    0.821864 0.205270 0.582157 0.213287
H83   H     H_    0.739525 0.204528 0.537365 0.198845
C115  C     C_3   0.199287 0.245727 0.465190 -0.291230
C116  C     C_3   0.161331 0.199603 0.531890 -0.404085
H84   H     H_    0.187937 0.223855 0.581253 0.175335
H85   H     H_    0.108586 0.237219 0.535291 0.192683
H86   H     H_    0.158581 0.100493 0.530478 0.167645
H87   H     H_    0.167859 0.215713 0.419697 0.180158
H88   H     H_    0.251188 0.203425 0.462315 0.176459
O61   O     O_3   0.273542 0.062678 0.596092 -0.729610
H89   H     H_    0.258282 0.090347 0.643733 0.303865
O62   O     O_3   0.727270 0.063052 0.399292 -0.782263
H90   H     H_    0.743958 0.088368 0.351425 0.315635
O63   O     O_3   0.773542 0.562678 0.596092 -0.729610
H91   H     H_    0.758282 0.590347 0.643733 0.303865
O64   O     O_3   0.227270 0.563052 0.399292 -0.782263
H92   H     H_    0.243958 0.588368 0.351425 0.315636
C117  C     C_3   0.074280 0.871392 0.350846 -0.270788
C118  C     C_3   0.122501 0.765766 0.333954 -0.440647
H93   H     H_    0.142707 0.725446 0.383443 0.196533
H94   H     H_    0.166782 0.796246 0.300292 0.139453
H95   H     H_    0.095122 0.695738 0.303696 0.146192
H96   H     H_    0.034238 0.881664 0.309875 0.173272
H97   H     H_    0.104443 0.954345 0.342476 0.157733
C119  C     C_3   0.952112 0.919869 0.635915 -0.245039
C120  C     C_3   0.902061 0.824973 0.666700 -0.428711
H98   H     H_    0.877115 0.772137 0.624485 0.165989
H99   H     H_    0.861169 0.869394 0.698707 0.151690
H100  H     H_    0.927910 0.764010 0.704740 0.150003
H101  H     H_    0.988097 0.949130 0.678072 0.159554
H102  H     H_    0.919649 0.999421 0.622739 0.177296
C121  C     C_3   0.574280 0.371393 0.350846 -0.270788
C122  C     C_3   0.622501 0.265766 0.333954 -0.440646
H103  H     H_    0.642707 0.225446 0.383443 0.196534
H104  H     H_    0.666782 0.296246 0.300292 0.139453
H105  H     H_    0.595122 0.195738 0.303696 0.146192
H106  H     H_    0.534238 0.381664 0.309875 0.173272
H107  H     H_    0.604443 0.454345 0.342476 0.157733
C123  C     C_3   0.452112 0.419869 0.635915 -0.245039
C124  C     C_3   0.402061 0.324973 0.666700 -0.428712
H108  H     H_    0.377115 0.272137 0.624485 0.165989
H109  H     H_    0.361169 0.369394 0.698707 0.151690
H110  H     H_    0.427910 0.264010 0.704740 0.150004
H111  H     H_    0.488097 0.449130 0.678072 0.159554
H112  H     H_    0.419649 0.499422 0.622739 0.177296
O65   O     O_3   0.956640 0.236120 0.580837 -0.744922
H113  H     H_    0.939228 0.256422 0.629022 0.301279
O66   O     O_3   0.009422 0.223094 0.444647 -0.735441
H114  H     H_    0.027511 0.233845 0.395501 0.300490
O67   O     O_3   0.456640 0.736119 0.580837 -0.744922
H115  H     H_    0.439228 0.756422 0.629022 0.301279
O68   O     O_3   0.509422 0.723094 0.444647 -0.735441
H116  H     H_    0.527511 0.733844 0.395501 0.300490
O69   O     O_3   0.275933 0.126860 0.042777 -0.690512
H117  H     H_    0.268986 0.176478 0.999499 0.310365
O70   O     O_3   0.870462 0.962685 0.923911 -0.670935
H118  H     H_    0.873986 0.916583 0.879095 0.354434
O71   O     O_3   0.775933 0.626860 0.042777 -0.690513
H119  H     H_    0.768986 0.676478 0.999499 0.310365
O72   O     O_3   0.370462 0.462685 0.923911 -0.670935
H120  H     H_    0.373986 0.416583 0.879095 0.354434

loop_
_geom_bond_atom_site_label_1
_geom_bond_atom_site_label_2
_ccdc_geom_bond_type
C79   O15   A    
C111  H78   S    
C19   C20   A    
C101  H49   S    
C93   H28   S    
C12   C23   A    
C41   H1    S    
C81   O61   S    
C72   O48   A    
C14   C21   A    
Cr7   O19   S    
C87   C91   D    
C34   O66   S    
C64   H8    S    
C110  H70   S    
C116  H84   S    
C4    O24   A    
C29   C33   A    
C97   H39   S    
C55   C97   S    
C100  H42   S    
Cr4   O44   S    
C8    C92   S    
C95   H34   S    
C18   H14   S    
C87   H11   S    
C96   H30   S    
C58   C61   D    
Cr2   O2    S    
C15   C121  S    
C97   C98   S    
C52   O72   S    
C21   C22   A    
C119  H101  S    
C69   O49   A    
C41   C49   D    
C106  H55   S    
C9    C26   A    
C68   O40   A    
C10   C21   A    
C25   C29   A    
C105  H59   S    
Cr5   O49   S    
C12   C27   A    
C27   C31   A    
O70   H118  S    
C28   C32   A    
C86   C90   D    
Cr9   O13   S    
C99   C100  S    
C101  C102  S    
C40   C76   S    
O56   H24   S    
C38   C103  S    
Cr4   O20   S    
C105  C106  S    
C16   C20   A    
C29   H18   S    
C123  C124  S    
Cr3   O23   S    
C42   H2    S    
C13   C117  S    
C109  H73   S    
C97   H38   S    
C20   H16   S    
C122  H103  S    
Cr6   O26   S    
C118  H95   S    
C45   C81   S    
Cr11  O19   S    
Cr12  O40   S    
Cr8   O8    S    
Cr9   O9    S    
C104  H52   S    
C36   O68   S    
Cr2   O46   S    
C118  H94   S    
C49   C53   S    
C74   O10   A    
C51   C55   S    
C63   H7    S    
C66   O2    A    
C98   H36   S    
O69   H117  S    
C65   O37   A    
C124  H109  S    
C94   H25   S    
C80   O44   A    
C106  H57   S    
C5    C89   S    
Cr12  O16   S    
C2    O26   A    
C7    C83   D    
Cr6   O30   S    
C3    O23   A    
C1    O21   A    
Cr10  O34   S    
C93   C94   S    
C47   O35   A    
Cr8   O28   S    
C48   O36   A    
Cr4   O4    S    
C109  C110  S    
C120  H98   S    
C54   C95   S    
C32   C36   A    
C67   O3    A    
C102  H46   S    
C77   O41   A    
C46   O34   A    
C112  H74   S    
C8    C115  S    
C46   C82   S    
C114  H79   S    
C23   C24   A    
C7    C113  S    
C39   C75   S    
C121  H106  S    
C122  H105  S    
C37   C53   D    
C44   C52   D    
C60   O59   S    
O61   H89   S    
Cr6   O18   S    
C32   H19   S    
C103  C104  S    
C4    O28   A    
C84   O64   S    
C30   C34   A    
Cr2   O18   S    
C45   O33   A    
C121  H107  S    
C107  H64   S    
C25   C26   A    
C6    C90   S    
O54   H22   S    
C104  H50   S    
C99   H44   S    
O62   H90   S    
C96   H32   S    
C17   C18   A    
C103  H54   S    
C2    C87   S    
C69   O45   A    
C70   O50   A    
C49   O69   S    
C42   C50   D    
C10   C25   A    
C15   C24   A    
C26   C30   A    
C16   C23   A    
C47   C83   S    
C108  H62   S    
C71   O47   A    
C11   C68   S    
C38   C74   S    
C68   O4    A    
C60   C80   S    
Cr12  O12   S    
C115  H87   S    
C73   O9    A    
Cr3   O43   S    
C101  H48   S    
C117  H97   S    
C123  H111  S    
C13   C17   A    
C124  H110  S    
C79   O43   A    
C85   H9    S    
C76   O8    A    
C110  H71   S    
C114  H81   S    
C61   C62   S    
C19   H15   S    
C63   C64   S    
C67   O39   A    
O66   H114  S    
C56   C99   S    
O64   H92   S    
C100  H41   S    
Cr5   O25   S    
C59   O60   S    
Cr10  O18   S    
O59   H67   S    
Cr2   O22   S    
C116  H86   S    
Cr3   O19   S    
C119  H102  S    
C35   C36   A    
Cr2   O42   S    
C106  H56   S    
C113  C114  S    
O55   H23   S    
C15   C19   A    
Cr1   O45   S    
C50   C54   S    
C77   O13   A    
C31   H20   S    
C120  H100  S    
C75   O11   A    
O58   H66   S    
C66   O38   A    
C39   C55   D    
C40   C56   D    
Cr7   O31   S    
Cr8   O52   S    
C108  H60   S    
C1    O25   A    
Cr5   O29   S    
C39   C105  S    
C17   H13   S    
Cr8   O32   S    
C1    C88   S    
C48   O32   A    
Cr9   O33   S    
C109  H72   S    
C111  H77   S    
C3    C86   S    
Cr12  O36   S    
Cr4   O24   S    
C37   C101  S    
C122  H104  S    
C93   H29   S    
C113  H82   S    
C46   O30   A    
C73   O5    A    
C78   O42   A    
C100  H40   S    
C5    C109  S    
C40   C107  S    
C59   C79   S    
C85   C89   D    
C51   O71   S    
C110  H69   S    
C80   O16   A    
C92   O56   S    
C124  H108  S    
C121  C122  S    
C117  C118  S    
C57   C77   S    
C5    C81   D    
C38   C54   D    
C30   H17   S    
Cr10  O38   S    
C7    C91   S    
Cr6   O6    S    
C6    C111  S    
C44   C69   S    
C43   H3    S    
C95   H33   S    
Cr5   O17   S    
C91   O55   S    
Cr8   O20   S    
C31   C35   A    
C45   O29   A    
C107  C108  S    
C94   H26   S    
Cr1   O17   S    
C8    C84   D    
Cr11  O39   S    
C50   O70   S    
C104  H51   S    
C112  H76   S    
C94   H27   S    
C70   O46   A    
O72   H120  S    
C57   O58   S    
C43   C51   D    
O65   H113  S    
C11   C28   A    
C42   C71   S    
C71   O51   A    
C13   C22   A    
C72   O52   A    
O71   H119  S    
Cr1   O1    S    
C58   C78   S    
O68   H116  S    
Cr3   O3    S    
C114  H80   S    
O53   H21   S    
C115  C116  S    
Cr3   O47   S    
C6    C82   D    
C14   C18   A    
C82   O62   S    
C61   H5    S    
C76   O12   A    
C57   C62   D    
C35   O67   S    
C59   C64   D    
C60   C63   D    
C119  C120  S    
O57   H65   S    
C118  H93   S    
Cr6   O50   S    
C9    C22   A    
C11   C24   A    
Cr10  O14   S    
Cr11  O11   S    
C9    C66   S    
C53   C93   S    
Cr9   O17   S    
C99   H43   S    
C88   C92   D    
C98   H35   S    
C96   H31   S    
C33   O65   S    
Cr12  O20   S    
Cr1   O21   S    
C89   O53   S    
C105  H58   S    
Cr1   O41   S    
C108  H61   S    
C78   O14   A    
C75   O7    A    
C44   H4    S    
C12   C67   S    
C115  H88   S    
C102  H45   S    
C4    C85   S    
O63   H91   S    
Cr7   O27   S    
C117  H96   S    
C123  H112  S    
C48   C84   S    
C112  H75   S    
C65   O1    A    
C88   H12   S    
C58   O57   S    
Cr10  O10   S    
C83   O63   S    
Cr11  O15   S    
C62   H6    S    
C113  H83   S    
C111  C112  S    
C33   C34   A    
Cr7   O51   S    
C41   C72   S    
C16   C123  S    
C43   C70   S    
C74   O6    A    
C14   C119  S    
C10   C65   S    
C116  H85   S    
C37   C73   S    
C90   O54   S    
C102  H47   S    
O60   H68   S    
C2    O22   A    
C3    O27   A    
Cr7   O7    S    
C86   H10   S    
C95   C96   S    
Cr9   O37   S    
Cr5   O5    S    
C120  H99   S    
Cr11  O35   S    
C47   O31   A    
C98   H37   S    
C103  H53   S    
C107  H63   S    
O67   H115  S    
Cr4   O48   S    
C27   C28   A    
C52   C56   S    
