data_mof_unit_56508.cif
_audit_creation_date              2012-12-10T20:28:42-0500
_audit_creation_method            fapswitch 2.2
_symmetry_space_group_name_H-M    P1
_symmetry_Int_Tables_number       1
_space_group_crystal_system       triclinic
_cell_length_a                    10.730492
_cell_length_b                    10.730833
_cell_length_c                    9.859174
_cell_angle_alpha                 88.824946
_cell_angle_beta                  90.939375
_cell_angle_gamma                 91.552076
_cell_volume                      1134.45782281

loop_
_atom_site_label
_atom_site_type_symbol
_atom_type_description
_atom_site_fract_x
_atom_site_fract_y
_atom_site_fract_z
_atom_type_partial_charge
C1    C     C_R   0.505036 0.259695 0.500938 0.893472
C2    C     C_R   0.065194 0.539467 0.623512 0.116141
C3    C     C_R   0.127977 0.525931 0.499807 -0.126484
C4    C     C_R   0.062067 0.501044 0.379780 -0.203535
C5    C     C_R   0.935187 0.484295 0.382662 -0.199540
C6    C     C_R   0.873961 0.482301 0.506875 -0.131671
C7    C     C_R   0.540580 0.060265 0.621669 0.115508
C8    C     C_R   0.527613 0.128571 0.500736 -0.111147
C9    C     C_R   0.540899 0.067909 0.376662 -0.208055
C10   C     C_R   0.539867 0.938730 0.374779 -0.215822
C11   C     C_R   0.525860 0.871480 0.497057 -0.111094
C12   C     C_R   0.260818 0.512295 0.499331 0.894752
C13   C     C_R   0.537572 0.932865 0.619300 0.204615
C14   C     C_3   0.460518 0.919161 0.743339 -0.448985
C15   C     C_3   0.466633 0.059467 0.748515 -0.498209
C16   C     C_R   0.402233 0.447199 0.071111 0.139284
C17   C     C_R   0.585806 0.568486 0.072938 -0.176531
C18   C     C_R   0.584607 0.570885 0.929178 0.262451
C19   C     C_R   0.402197 0.446845 0.928338 0.138405
C20   C     C_3   0.361774 0.313263 0.928555 0.074008
C21   C     C_3   0.358059 0.315227 0.082073 -0.503259
C22   C     C_R   0.504460 0.740043 0.498722 0.887878
C23   C     C_R   0.740053 0.490508 0.501998 0.889220
C24   C     C_R   0.121646 0.591611 0.741144 -0.115875
C25   C     C_R   0.066570 0.574309 0.867465 -0.088376
C26   C     C_R   0.956267 0.504007 0.877954 -0.059437
C27   C     C_R   0.894111 0.463817 0.760567 -0.072768
C28   C     C_R   0.942295 0.494182 0.630647 0.109725
H1    H     H_    0.108382 0.493042 0.283587 0.171019
H2    H     H_    0.510555 0.873846 0.829667 0.241717
H3    H     H_    0.374150 0.102184 0.734019 0.250370
H4    H     H_    0.525225 0.090946 0.835769 0.201682
H5    H     H_    0.655714 0.622315 0.128333 0.177750
H6    H     H_    0.436932 0.256809 0.891130 0.130700
H7    H     H_    0.262794 0.306773 0.124477 0.229331
H8    H     H_    0.427688 0.253870 0.131557 0.188782
H9    H     H_    0.208365 0.645267 0.736639 0.141737
H10   H     H_    0.112212 0.610687 0.957621 0.131409
H11   H     H_    0.916996 0.483458 0.976633 0.131603
H12   H     H_    0.809907 0.407700 0.773641 0.156060
H13   H     H_    0.885320 0.472024 0.287176 0.169717
H14   H     H_    0.543026 0.118746 0.280802 0.166832
H15   H     H_    0.540784 0.892638 0.278073 0.178731
H16   H     H_    0.365056 0.880647 0.721992 0.197347
N1    N     N_R   0.499160 0.499140 0.142800 -0.120730
N2    N     N_R   0.499160 0.499180 0.857150 -0.152034
O1    O     O_R   0.500020 0.316790 0.614690 -0.613735
O2    O     O_R   0.500000 0.316760 0.385350 -0.625769
O3    O     O_R   0.316770 0.500020 0.614690 -0.596642
O4    O     O_R   0.316760 0.499980 0.385350 -0.618372
O5    O     O_R   0.500000 0.683240 0.614650 -0.590331
O6    O     O_R   0.499980 0.683210 0.385310 -0.627156
O7    O     O_R   0.683240 0.500020 0.614650 -0.596455
O8    O     O_R   0.683230 0.499980 0.385310 -0.627445
Zn1   Zn    Zn3+2 0.500010 0.500020 0.653130 0.988511
Zn2   Zn    Zn3+2 0.499990 0.499980 0.346870 0.952018
Br1   Br    Br    0.699647 0.683784 0.841670 -0.549983
Br2   Br    Br    0.199636 0.283819 0.843839 -0.541333

loop_
_geom_bond_atom_site_label_1
_geom_bond_atom_site_label_2
_ccdc_geom_bond_type
C16   N1    A    
N2    Zn1   S    
C4    H1    S    
C12   O4    A    
C1    O2    A    
C15   H3    S    
C16   C21   S    
C21   H7    S    
C25   H10   S    
C24   H9    S    
C1    C8    S    
O4    Zn2   S    
C9    C10   A    
C10   H15   S    
C11   C22   S    
C1    O1    A    
C19   C20   S    
C27   H12   S    
C20   H6    S    
C7    C15   S    
C2    C3    A    
C9    H14   S    
C19   N2    A    
C7    C8    A    
C21   H8    S    
C13   C14   S    
C24   C25   A    
C4    C5    A    
C11   C13   A    
C26   C27   A    
C17   H5    S    
C14   H2    S    
C16   C19   A    
C6    C23   S    
C18   N2    A    
C23   O7    A    
C14   H16   S    
C17   N1    A    
C17   C18   A    
O5    Zn1   S    
O7    Zn1   S    
C2    C24   A    
C5    C6    A    
O8    Zn2   S    
C26   H11   S    
C12   O3    A    
C10   C11   A    
C20   Br2   S    
C3    C4    A    
C7    C13   A    
C20   C21   S    
C23   O8    A    
C22   O6    A    
C27   C28   A    
O2    Zn2   S    
O1    Zn1   S    
C5    H13   S    
C14   C15   S    
C22   O5    A    
C2    C28   A    
C3    C12   S    
C18   Br1   S    
C25   C26   A    
O3    Zn1   S    
C6    C28   A    
O6    Zn2   S    
N1    Zn2   S    
C8    C9    A    
C15   H4    S    
