data_mof_unit_65794.cif
_audit_creation_date              2012-10-26T17:24:35-0400
_audit_creation_method            fapswitch 2.2
_symmetry_space_group_name_H-M    P1
_symmetry_Int_Tables_number       1
_space_group_crystal_system       triclinic
_cell_length_a                    42.649933
_cell_length_b                    29.424219
_cell_length_c                    29.419301
_cell_angle_alpha                 90.000083
_cell_angle_beta                  133.920844
_cell_angle_gamma                 90.000148
_cell_volume                      26593.0617902

loop_
_atom_site_label
_atom_site_type_symbol
_atom_type_description
_atom_site_fract_x
_atom_site_fract_y
_atom_site_fract_z
_atom_type_partial_charge
C1    C     C_R   0.499963 0.585483 0.499981 0.552558
C2    C     C_1   0.835166 0.000766 0.335456 -0.055405
C3    C     C_3   0.760966 0.965758 0.236257 -0.005334
C4    C     C_1   0.373352 0.499699 0.373775 -0.020943
C5    C     C_1   0.873352 0.000309 0.373775 -0.020995
C6    C     C_1   0.120451 0.499926 0.120987 -0.023637
C7    C     C_1   0.620451 0.000077 0.120953 -0.023672
C8    C     C_3   0.261166 0.502470 0.303681 0.008128
C9    C     C_3   0.761153 0.997400 0.303617 0.008158
C10   C     C_3   0.289125 0.498755 0.288945 0.025700
C11   C     C_3   0.789125 0.001280 0.288919 0.025657
C12   C     C_R   0.279393 0.573001 0.227375 0.029757
C13   C     C_1   0.158652 0.499719 0.159232 -0.056173
C14   C     C_R   0.273019 0.618355 0.234319 -0.098687
C15   C     C_R   0.290356 0.653838 0.225827 -0.109954
C16   C     C_R   0.314113 0.644343 0.210351 -0.099846
C17   C     C_R   0.320557 0.599332 0.203311 -0.106955
C18   C     C_R   0.303285 0.563784 0.211781 -0.083748
C19   C     C_R   0.279843 0.416879 0.242116 0.020720
C20   C     C_R   0.269132 0.374246 0.249726 -0.100389
C21   C     C_R   0.287393 0.334631 0.250035 -0.110601
C22   C     C_R   0.316443 0.337239 0.242806 -0.100619
C23   C     C_R   0.327261 0.379481 0.235201 -0.110938
C24   C     C_1   0.658652 0.000292 0.159178 -0.056234
C25   C     C_R   0.309063 0.419147 0.234843 -0.097369
C26   C     C_R   0.779833 0.083299 0.242388 0.020696
C27   C     C_R   0.768924 0.125874 0.249807 -0.100385
C28   C     C_R   0.787165 0.165568 0.250246 -0.110621
C29   C     C_R   0.816394 0.163094 0.243344 -0.100628
C30   C     C_R   0.827404 0.120909 0.235924 -0.110984
C31   C     C_R   0.809220 0.081166 0.235423 -0.097495
C32   C     C_R   0.779409 0.927243 0.227071 0.029856
C33   C     C_R   0.773059 0.881838 0.233872 -0.098668
C34   C     C_R   0.790403 0.846465 0.225244 -0.109947
C35   C     C_1   0.499930 0.636529 0.499915 -0.042356
C36   C     C_R   0.814140 0.856121 0.209774 -0.099837
C37   C     C_R   0.820558 0.901185 0.202876 -0.106940
C38   C     C_R   0.803280 0.936624 0.211484 -0.083684
C39   C     C_R   0.210995 0.494868 0.121291 0.028473
C40   C     C_R   0.208513 0.454752 0.093015 -0.099152
C41   C     C_R   0.188042 0.454841 0.029974 -0.111925
C42   C     C_R   0.169463 0.494755 0.994435 -0.099101
C43   C     C_R   0.171071 0.534604 0.021776 -0.109288
C44   C     C_R   0.191512 0.534646 0.084771 -0.085988
C45   C     C_R   0.711031 0.005453 0.121281 0.028541
C46   C     C_1   0.499904 0.363471 0.499887 -0.043703
C47   C     C_R   0.708726 0.045596 0.093204 -0.099221
C48   C     C_R   0.688297 0.045615 0.030183 -0.111939
C49   C     C_R   0.669589 0.005784 0.994469 -0.099074
C50   C     C_R   0.671030 0.965910 0.021615 -0.109264
C51   C     C_R   0.691430 0.965759 0.084591 -0.085912
C52   C     C_R   0.279487 0.504257 0.369460 0.039699
C53   C     C_R   0.272482 0.542144 0.390504 -0.089522
C54   C     C_R   0.290079 0.543287 0.452028 -0.108096
C55   C     C_R   0.314730 0.506719 0.492839 -0.098944
C56   C     C_R   0.321820 0.468918 0.472185 -0.107935
C57   C     C_1   0.999903 0.136529 0.499886 -0.043710
C58   C     C_R   0.304260 0.467635 0.410709 -0.090890
C59   C     C_R   0.779460 0.995432 0.369377 0.039702
C60   C     C_R   0.772452 0.957436 0.390267 -0.089529
C61   C     C_R   0.790036 0.956124 0.451779 -0.108100
C62   C     C_R   0.814679 0.992631 0.492731 -0.098945
C63   C     C_R   0.821772 0.030541 0.472231 -0.107937
C64   C     C_R   0.804224 0.031993 0.410768 -0.090877
C65   C     C_1   0.999931 0.863471 0.499916 -0.042357
C66   C     C_1   0.499912 0.678850 0.499886 -0.036885
C67   C     C_1   0.499879 0.321150 0.499849 -0.037952
C68   C     C_1   0.999877 0.178850 0.499848 -0.037954
C69   C     C_R   0.499949 0.414517 0.499966 0.551602
C70   C     C_1   0.999912 0.821149 0.499887 -0.036885
C71   C     C_1   0.499906 0.729015 0.499882 0.000150
C72   C     C_1   0.499873 0.270986 0.499844 -0.000646
C73   C     C_1   0.999872 0.229014 0.499843 -0.000647
C74   C     C_1   0.999907 0.770985 0.499883 0.000154
C75   C     C_1   0.499912 0.771336 0.499897 0.000045
C76   C     C_1   0.499886 0.228664 0.499866 -0.000531
C77   C     C_1   0.999885 0.271335 0.499864 -0.000533
C78   C     C_1   0.999914 0.728664 0.499898 0.000050
C79   C     C_1   0.499929 0.821502 0.499927 -0.036542
C80   C     C_R   0.999949 0.085483 0.499966 0.551601
C81   C     C_1   0.499914 0.178499 0.499909 -0.036860
C82   C     C_1   0.999913 0.321501 0.499908 -0.036861
C83   C     C_1   0.999930 0.678498 0.499928 -0.036538
C84   C     C_1   0.499943 0.863824 0.499955 -0.040907
C85   C     C_1   0.499939 0.136177 0.499948 -0.041061
C86   C     C_1   0.999938 0.363823 0.499947 -0.041062
C87   C     C_1   0.999945 0.636176 0.499956 -0.040906
C88   C     C_R   0.418285 0.500111 0.418458 0.572622
C89   C     C_R   0.918285 0.999885 0.418458 0.572622
C90   C     C_1   0.635086 0.500000 0.634767 -0.045278
C91   C     C_R   0.999964 0.914517 0.499981 0.552560
C92   C     C_1   0.135086 0.000000 0.634767 -0.045278
C93   C     C_1   0.676567 0.500000 0.676236 -0.030683
C94   C     C_1   0.176567 1.000000 0.676236 -0.030683
C95   C     C_1   0.726139 0.500000 0.725873 0.001383
C96   C     C_1   0.226139 1.000000 0.725873 0.001383
C97   C     C_1   0.767621 0.499999 0.767432 0.001396
C98   C     C_1   0.267621 1.000000 0.767432 0.001396
C99   C     C_1   0.817192 0.499999 0.817106 -0.030645
C100  C     C_1   0.317192 1.000000 0.817106 -0.030645
C101  C     C_1   0.858674 0.499999 0.858671 -0.045259
C102  C     C_3   0.204608 0.499437 0.204667 0.019991
C103  C     C_1   0.358674 0.999999 0.858671 -0.045259
C104  C     C_R   0.994841 0.500000 0.080446 0.550980
C105  C     C_R   0.494840 1.000000 0.080446 0.550989
C106  C     C_R   0.075492 0.499993 0.075761 0.570900
C107  C     C_R   0.575492 0.000007 0.075753 0.570891
C108  C     C_R   0.993282 0.500000 0.907849 0.552441
C109  C     C_R   0.493282 1.000000 0.907849 0.552426
C110  C     C_R   0.909164 0.500000 0.909250 0.544951
C111  C     C_R   0.409164 1.000000 0.909250 0.544952
C112  C     C_R   0.584598 0.500000 0.584495 0.544741
C113  C     C_3   0.704607 0.000584 0.204608 0.019958
C114  C     C_R   0.084598 0.000000 0.584495 0.544744
C115  C     C_R   0.499073 1.000000 0.414018 0.547850
C116  C     C_R   0.999073 0.500000 0.414018 0.547850
C117  C     C_R   0.499956 0.914871 0.499982 0.547744
C118  C     C_R   0.499955 0.085129 0.499980 0.547723
C119  C     C_R   0.999955 0.414871 0.499980 0.547723
C120  C     C_R   0.999956 0.585129 0.499982 0.547745
C121  C     C_R   0.500776 1.000000 0.585916 0.547620
C122  C     C_R   0.000776 0.500000 0.585916 0.547620
C123  C     C_1   0.995581 0.500000 0.132223 -0.043469
C124  C     C_3   0.232068 0.495600 0.188879 0.006356
C125  C     C_1   0.495581 1.000000 0.132223 -0.043467
C126  C     C_1   0.996205 0.500000 0.175164 -0.037165
C127  C     C_1   0.496205 1.000000 0.175164 -0.037163
C128  C     C_1   0.996940 0.500000 0.226054 0.000678
C129  C     C_1   0.496940 1.000000 0.226054 0.000681
C130  C     C_1   0.497542 0.999999 0.268973 0.000691
C131  C     C_1   0.997542 0.500000 0.268973 0.000690
C132  C     C_1   0.498211 1.000000 0.319798 -0.036163
C133  C     C_1   0.998211 0.500000 0.319798 -0.036164
C134  C     C_1   0.498692 1.000000 0.362598 -0.040723
C135  C     C_3   0.732079 0.004588 0.188855 0.006374
C136  C     C_1   0.998692 0.500000 0.362598 -0.040723
C137  C     C_1   0.994368 0.500001 0.857875 -0.042867
C138  C     C_1   0.494368 0.999999 0.857875 -0.042877
C139  C     C_3   0.232601 0.538566 0.251196 -0.123054
C140  C     C_3   0.232228 0.463404 0.256937 -0.119200
C141  C     C_3   0.732217 0.036528 0.257012 -0.119142
C142  C     C_3   0.732599 0.961391 0.250998 -0.123094
C143  C     C_1   0.995579 0.500002 0.816771 -0.038285
C144  C     C_1   0.495579 0.999998 0.816771 -0.038286
C145  C     C_1   0.997132 0.500002 0.768163 -0.002250
C146  C     C_1   0.335166 0.499256 0.335463 -0.055311
C147  C     C_1   0.497132 0.999998 0.768163 -0.002243
C148  C     C_1   0.498406 0.999998 0.727123 -0.001884
C149  C     C_1   0.998406 0.500002 0.727123 -0.001888
C150  C     C_1   0.499754 0.999999 0.678303 -0.037436
C151  C     C_1   0.999755 0.500001 0.678303 -0.037436
C152  C     C_1   0.500572 0.999999 0.636790 -0.041499
C153  C     C_1   0.000572 0.500000 0.636790 -0.041498
C154  C     C_3   0.260956 0.534368 0.236416 -0.005338
C155  C     C_3   0.260644 0.459914 0.242107 -0.008853
C156  C     C_3   0.760646 0.040184 0.242217 -0.008826
Cu1   Cu    Cu3+1 0.500480 0.500000 0.542990 0.947247
Cu2   Cu    Cu3+1 0.958020 0.500000 0.458050 0.944416
Cu3   Cu    Cu3+1 0.541920 1.000000 0.541950 0.944697
Cu4   Cu    Cu3+1 0.041920 0.500000 0.541950 0.944695
Cu5   Cu    Cu3+1 0.000480 0.000000 0.542990 0.947241
Cu6   Cu    Cu3+1 0.499450 0.500000 0.457010 0.939831
Cu7   Cu    Cu3+1 0.999450 1.000000 0.457010 0.939797
Cu8   Cu    Cu3+1 0.993800 0.542460 0.993900 0.943181
Cu9   Cu    Cu3+1 0.993800 0.457540 0.993900 0.946917
Cu10  Cu    Cu3+1 0.493800 0.042460 0.993900 0.946926
Cu11  Cu    Cu3+1 0.493800 0.957540 0.993900 0.943165
Cu12  Cu    Cu3+1 0.458020 0.000000 0.458050 0.944413
H1    H     H_    0.254831 0.626484 0.246424 0.097912
H2    H     H_    0.317752 0.451558 0.228888 0.103166
H3    H     H_    0.746339 0.128633 0.255141 0.099750
H4    H     H_    0.778630 0.198276 0.255946 0.110444
H5    H     H_    0.830491 0.193855 0.243728 0.112766
H6    H     H_    0.850039 0.118990 0.230562 0.111466
H7    H     H_    0.818056 0.048801 0.229607 0.103211
H8    H     H_    0.754889 0.873586 0.245972 0.097898
H9    H     H_    0.785453 0.811541 0.230593 0.110243
H10   H     H_    0.827536 0.828698 0.203110 0.112007
H11   H     H_    0.838890 0.908666 0.190800 0.109688
H12   H     H_    0.285386 0.688722 0.231284 0.110242
H13   H     H_    0.808330 0.971302 0.205674 0.101871
H14   H     H_    0.218670 0.569890 0.252316 0.092852
H15   H     H_    0.218494 0.435564 0.264157 0.103123
H16   H     H_    0.718482 0.064288 0.264334 0.103126
H17   H     H_    0.718668 0.930007 0.251992 0.092849
H18   H     H_    0.221464 0.423131 0.118717 0.124588
H19   H     H_    0.186289 0.423827 0.008514 0.111929
H20   H     H_    0.153523 0.494711 0.945596 0.114404
H21   H     H_    0.156313 0.565433 0.994082 0.111926
H22   H     H_    0.191992 0.565697 0.104996 0.115931
H23   H     H_    0.327505 0.671851 0.203794 0.112015
H24   H     H_    0.721789 0.077158 0.119042 0.124623
H25   H     H_    0.686682 0.076649 0.008877 0.111912
H26   H     H_    0.653684 0.005911 0.945646 0.114393
H27   H     H_    0.656178 0.935144 0.993789 0.111923
H28   H     H_    0.691795 0.934687 0.104673 0.115850
H29   H     H_    0.253627 0.570843 0.359716 0.098033
H30   H     H_    0.284641 0.572563 0.468099 0.109602
H31   H     H_    0.328344 0.507687 0.540448 0.110917
H32   H     H_    0.340937 0.440620 0.503813 0.110636
H33   H     H_    0.310022 0.438180 0.395244 0.110165
H34   H     H_    0.338906 0.591976 0.191232 0.109699
H35   H     H_    0.753604 0.928781 0.359369 0.098032
H36   H     H_    0.784597 0.926763 0.467731 0.109605
H37   H     H_    0.828284 0.991533 0.540330 0.110921
H38   H     H_    0.840882 0.058793 0.503968 0.110641
H39   H     H_    0.809989 0.061531 0.395422 0.110223
H40   H     H_    0.308356 0.529149 0.205865 0.101857
H41   H     H_    0.246697 0.371384 0.255330 0.099683
H42   H     H_    0.279015 0.301880 0.255894 0.110443
H43   H     H_    0.330555 0.306538 0.243086 0.112752
H44   H     H_    0.349760 0.381504 0.229590 0.111427
O1    O     O_R   0.500410 0.561970 0.536310 -0.483132
O2    O     O_R   0.963790 0.500000 0.401850 -0.482669
O3    O     O_R   0.534640 0.000000 0.472710 -0.482173
O4    O     O_R   0.034640 0.500000 0.472710 -0.482174
O5    O     O_R   0.464530 0.938000 0.464560 -0.482712
O6    O     O_R   0.464530 0.062000 0.464560 -0.482895
O7    O     O_R   0.964530 0.438000 0.464560 -0.482896
O8    O     O_R   0.964530 0.562000 0.464560 -0.482709
O9    O     O_R   0.535390 0.937990 0.535420 -0.482293
O10   O     O_R   0.535390 0.062010 0.535420 -0.482186
O11   O     O_R   0.035390 0.437990 0.535420 -0.482185
O12   O     O_R   0.500410 0.438030 0.536310 -0.484222
O13   O     O_R   0.035390 0.562010 0.535420 -0.482294
O14   O     O_R   0.465290 0.000000 0.527290 -0.481924
O15   O     O_R   0.965290 0.500000 0.527290 -0.481923
O16   O     O_R   0.536150 0.000000 0.598150 -0.483023
O17   O     O_R   0.036150 0.500000 0.598150 -0.483023
O18   O     O_R   0.499540 0.561910 0.463710 -0.483987
O19   O     O_R   0.499540 0.438090 0.463710 -0.484555
O20   O     O_R   0.999540 0.061910 0.463710 -0.484579
O21   O     O_R   0.999540 0.938090 0.463710 -0.483974
O22   O     O_R   0.439190 0.500000 0.475090 -0.493665
O23   O     O_R   0.000410 0.061970 0.536310 -0.484206
O24   O     O_R   0.939190 0.000000 0.475090 -0.493659
O25   O     O_R   0.438320 0.500000 0.402480 -0.499720
O26   O     O_R   0.938320 0.000000 0.402480 -0.499742
O27   O     O_R   0.561610 0.500000 0.597520 -0.480953
O28   O     O_R   0.061610 0.000000 0.597520 -0.480952
O29   O     O_R   0.560740 0.500000 0.524910 -0.480595
O30   O     O_R   0.060740 0.000000 0.524910 -0.480591
O31   O     O_R   0.994560 0.535840 0.056620 -0.484187
O32   O     O_R   0.994560 0.464160 0.056620 -0.483987
O33   O     O_R   0.494560 0.035840 0.056620 -0.483986
O34   O     O_R   0.000410 0.938030 0.536310 -0.483136
O35   O     O_R   0.494560 0.964160 0.056620 -0.484178
O36   O     O_R   0.055010 0.535850 0.055100 -0.498323
O37   O     O_R   0.055010 0.464150 0.055100 -0.495509
O38   O     O_R   0.555010 0.035850 0.055100 -0.495492
O39   O     O_R   0.555010 0.964150 0.055100 -0.498339
O40   O     O_R   0.993040 0.535870 0.931160 -0.484241
O41   O     O_R   0.993040 0.464130 0.931160 -0.482929
O42   O     O_R   0.493040 0.035870 0.931160 -0.482924
O43   O     O_R   0.493040 0.964130 0.931160 -0.484253
O44   O     O_R   0.932590 0.535860 0.932690 -0.480527
O45   O     O_R   0.932590 0.464140 0.932690 -0.480554
O46   O     O_R   0.432590 0.035860 0.932690 -0.480555
O47   O     O_R   0.432590 0.964140 0.932690 -0.480524
O48   O     O_R   0.463790 1.000000 0.401850 -0.482670

loop_
_geom_bond_atom_site_label_1
_geom_bond_atom_site_label_2
_ccdc_geom_bond_type
C25   H2    S    
C83   C87   T    
C55   C56   A    
C49   H26   S    
C124  C154  S    
C108  O41   A    
C118  O10   A    
C19   C155  S    
C41   C42   A    
C26   C156  S    
C147  C148  T    
C80   O23   A    
C12   C154  S    
C90   C112  S    
C116  O4    A    
C10   C154  S    
Cu4   O17   S    
C104  C123  S    
C31   H7    S    
C53   C54   A    
Cu3   Cu12  S    
C59   C64   A    
C29   C30   A    
C121  O16   A    
C108  O40   A    
C8    C139  S    
Cu9   O37   S    
Cu10  O46   S    
C106  O37   A    
C103  C111  S    
C36   C37   A    
Cu8   O40   S    
C148  C150  S    
C116  C136  S    
C76   C81   S    
C115  O48   A    
C149  C151  S    
C61   H36   S    
Cu12  O14   S    
C108  C137  S    
C48   H25   S    
Cu1   O22   S    
C40   H18   S    
C23   H44   S    
C88   O25   A    
C7    C24   T    
Cu4   O4    S    
C143  C145  S    
C109  O42   A    
Cu11  O39   S    
Cu4   O13   S    
C41   H19   S    
Cu7   O30   S    
C18   H40   S    
C67   C72   S    
C47   H24   S    
C142  H17   S    
C33   H8    S    
C105  O35   A    
C46   C69   S    
C77   C82   S    
C85   C118  S    
C44   H22   S    
Cu8   Cu9   S    
C117  O9    A    
C78   C83   S    
C28   H4    S    
C55   H31   S    
C66   C71   S    
C58   H33   S    
Cu9   O45   S    
C84   C117  S    
C63   H38   S    
C96   C98   T    
C70   C74   S    
C133  C136  T    
Cu5   Cu7   S    
C117  O5    A    
C86   C119  S    
C32   C38   A    
Cu12  O5    S    
C8    C52   S    
C62   H37   S    
C3    C135  S    
Cu6   O19   S    
C120  O8    A    
C23   C25   A    
C137  C143  T    
C91   O34   A    
C59   C60   A    
C93   C95   S    
C15   H12   S    
C119  O7    A    
C79   C84   T    
C57   C80   S    
C144  C147  S    
C17   H34   S    
C3    C142  S    
Cu11  O47   S    
C80   O20   A    
C14   H1    S    
C102  C124  S    
C2    C11   S    
C1    O18   A    
C111  O47   A    
C97   C99   S    
Cu1   O27   S    
C50   C51   A    
C45   C51   A    
C45   C47   A    
C5    C89   S    
C33   C34   A    
C37   H11   S    
C64   H39   S    
C45   C135  S    
C140  H15   S    
Cu3   O3    S    
C15   C16   A    
C24   C113  S    
C115  O3    A    
Cu11  O43   S    
C110  O45   A    
C116  O2    A    
Cu7   O20   S    
C110  O44   A    
C39   C40   A    
Cu5   O28   S    
Cu6   O25   S    
C9    C141  S    
Cu2   O7    S    
C123  C126  T    
C140  C155  S    
C35   C66   T    
C101  C110  S    
C82   C86   T    
C56   C58   A    
C109  O43   A    
C100  C103  T    
C135  C156  S    
C46   C67   T    
C109  C138  S    
C9    C59   S    
C26   C27   A    
C130  C132  S    
C43   C44   A    
C127  C129  S    
C118  O6    A    
C37   C38   A    
Cu7   O21   S    
C16   H23   S    
Cu1   O12   S    
C9    C11   S    
C50   H27   S    
C51   H28   S    
C60   H35   S    
C47   C48   A    
Cu5   O23   S    
C30   C31   A    
C48   C49   A    
C112  O27   A    
C4    C146  T    
C22   H43   S    
C62   C63   A    
C119  O11   A    
C17   C18   A    
C6    C106  S    
C36   H10   S    
C3    C32   S    
Cu9   O32   S    
C102  C140  S    
Cu3   O16   S    
Cu6   O29   S    
C94   C96   S    
C38   H13   S    
C105  O33   A    
Cu6   O18   S    
Cu7   O26   S    
C52   C58   A    
C11   C156  S    
C10   C146  S    
C112  O29   A    
Cu8   O44   S    
Cu2   O8    S    
C40   C41   A    
C114  O30   A    
Cu10  O38   S    
C12   C14   A    
C98   C100  S    
C1    O1    A    
Cu10  Cu11  S    
C122  C153  S    
C7    C107  S    
C2    C5    T    
C42   C43   A    
C57   C68   T    
Cu3   O10   S    
C128  C131  T    
C27   H3    S    
C52   C53   A    
C1    C35   S    
C90   C93   T    
C114  O28   A    
C129  C130  T    
C42   H20   S    
C65   C91   S    
C122  O17   A    
C54   C55   A    
C28   C29   A    
C126  C128  S    
C111  O46   A    
C107  O38   A    
C99   C101  T    
C14   C15   A    
Cu10  O33   S    
C26   C31   A    
C89   O26   A    
C8    C10   S    
C29   H5    S    
C131  C133  S    
C10   C155  S    
C9    C142  S    
C20   H41   S    
C141  C156  S    
Cu12  O6    S    
C39   C44   A    
C4    C88   S    
C115  C134  S    
C105  C125  S    
Cu2   O2    S    
C104  O31   A    
C88   O22   A    
C139  C154  S    
C91   O21   A    
Cu1   O1    S    
C54   H30   S    
C121  C152  S    
C107  O39   A    
C8    C140  S    
C141  H16   S    
C53   H29   S    
C32   C33   A    
C69   O12   A    
C19   C20   A    
C69   O19   A    
C68   C73   S    
C39   C124  S    
Cu5   O34   S    
Cu3   O9    S    
C6    C13   T    
C71   C75   T    
C21   H42   S    
Cu2   Cu4   S    
C139  H14   S    
C92   C94   T    
C16   C17   A    
Cu5   O24   S    
C75   C79   S    
C150  C152  T    
C72   C76   T    
Cu11  O35   S    
C122  O15   A    
C120  O13   A    
C74   C78   T    
Cu10  O42   S    
C113  C141  S    
C34   C36   A    
C102  C139  S    
C151  C153  T    
Cu12  O48   S    
C61   C62   A    
Cu8   O36   S    
C145  C149  T    
C3    C11   S    
C121  O14   A    
C19   C25   A    
C89   O24   A    
C63   C64   A    
C87   C120  S    
Cu4   O11   S    
C104  O32   A    
C20   C21   A    
C43   H21   S    
C132  C134  T    
C49   C50   A    
C113  C135  S    
C124  C155  S    
C12   C18   A    
C27   C28   A    
C125  C127  T    
C73   C77   T    
C22   C23   A    
C60   C61   A    
C34   H9    S    
C138  C144  T    
C113  C142  S    
C106  O36   A    
C13   C102  S    
C21   C22   A    
Cu8   O31   S    
C92   C114  S    
Cu2   O15   S    
C30   H6    S    
C81   C85   T    
Cu1   Cu6   S    
C65   C70   T    
C95   C97   T    
C56   H32   S    
Cu9   O41   S    
