data_mof_unit_11051.cif
_audit_creation_date              2012-12-11T14:49:56-0500
_audit_creation_method            fapswitch 2.2
_symmetry_space_group_name_H-M    P1
_symmetry_Int_Tables_number       1
_space_group_crystal_system       triclinic
_cell_length_a                    16.922045
_cell_length_b                    16.73812
_cell_length_c                    19.487461
_cell_angle_alpha                 117.886056
_cell_angle_beta                  62.120015
_cell_angle_gamma                 100.955096
_cell_volume                      4309.55627814

loop_
_atom_site_label
_atom_site_type_symbol
_atom_type_description
_atom_site_fract_x
_atom_site_fract_y
_atom_site_fract_z
_atom_type_partial_charge
C1    C     C_R   0.041242 0.759463 0.010495 -0.137995
C2    C     C_R   0.251217 0.517017 0.827996 -0.131760
C3    C     C_R   0.182542 0.490551 0.088316 -0.137154
C4    C     C_R   0.762365 0.421607 0.164826 -0.141518
C5    C     C_R   0.987042 0.341072 0.759944 -0.149711
C6    C     C_R   0.256388 0.541424 0.066118 0.068730
C7    C     C_R   0.938050 0.264909 0.759827 0.084194
C8    C     C_R   0.257104 0.453990 0.747243 0.075893
C9    C     C_R   0.028698 0.222324 0.002516 0.061543
C10   C     C_R   0.850723 0.132548 0.706866 -0.260252
C11   C     C_R   0.900818 0.207270 0.698253 0.114646
C12   C     C_R   0.760411 0.446204 0.243883 0.112825
C13   C     C_R   0.922325 0.221652 0.626005 -0.262736
C14   C     C_R   0.907252 0.155068 0.556753 0.143240
C15   C     C_R   0.867643 0.074577 0.561248 0.027423
C16   C     C_R   0.804617 0.559327 0.960431 -0.125327
C17   C     C_R   0.834798 0.065428 0.638297 0.143197
C18   C     C_R   0.939752 0.163636 0.479898 -0.208003
C19   C     C_R   0.942496 0.089060 0.405071 -0.205043
C20   C     C_R   0.912767 0.005710 0.406902 0.143551
C21   C     C_R   0.870243 0.999746 0.486145 0.026421
C22   C     C_R   0.839650 0.916337 0.488662 0.141401
C23   C     C_R   0.723045 0.546820 0.020589 0.060442
C24   C     C_R   0.797437 0.910848 0.567603 -0.205862
C25   C     C_R   0.795178 0.985239 0.642284 -0.206699
C26   C     C_R   0.933983 0.926671 0.330302 -0.256798
C27   C     C_R   0.916049 0.842316 0.332614 0.117110
C28   C     C_R   0.953449 0.673093 0.248963 -0.132679
C29   C     C_R   0.861068 0.838160 0.411559 -0.258590
C30   C     C_R   0.422835 0.423054 0.670134 -0.262271
C31   C     C_R   0.338520 0.406209 0.669288 0.113421
C32   C     C_R   0.333441 0.354609 0.590433 -0.260948
C33   C     C_R   0.409082 0.339834 0.513524 0.151507
C34   C     C_R   0.962151 0.759737 0.254977 0.073720
C35   C     C_R   0.492208 0.369317 0.515123 0.065182
C36   C     C_R   0.500335 0.404759 0.592830 0.135023
C37   C     C_R   0.400467 0.307036 0.436951 -0.237512
C38   C     C_R   0.470148 0.315900 0.365873 -0.167936
C39   C     C_R   0.549924 0.354786 0.370053 -0.006068
C40   C     C_R   0.738264 0.482275 0.039077 -0.134040
C41   C     C_R   0.564113 0.373542 0.441724 -0.034543
C42   C     C_R   0.646042 0.407316 0.444305 0.150779
C43   C     C_R   0.657116 0.430930 0.518453 -0.187571
C44   C     C_R   0.584085 0.431149 0.592966 -0.208257
C45   C     C_R   0.249775 0.569844 0.012746 -0.143981
C46   C     C_R   0.610834 0.384968 0.309061 0.473464
C47   C     C_R   0.694766 0.416117 0.309348 -0.068107
C48   C     C_R   0.712850 0.423239 0.375462 -0.333969
C49   C     C_R   0.636335 0.589931 0.055477 0.134571
C50   C     C_R   0.322882 0.568742 0.100310 0.130162
C51   C     C_R   0.402675 0.534173 0.159057 -0.227002
C52   C     C_R   0.023627 0.753095 0.173886 -0.124985
C53   C     C_R   0.326616 0.527834 0.147357 -0.172228
C54   C     C_R   0.390230 0.626832 0.076327 -0.281862
C55   C     C_R   0.468735 0.628959 0.083084 0.191289
C56   C     C_R   0.920273 0.262035 0.835638 -0.135046
C57   C     C_R   0.476189 0.578766 0.121273 0.190354
C58   C     C_R   0.559586 0.563238 0.110524 -0.290190
C59   C     C_R   0.627724 0.649356 0.026791 -0.169458
C60   C     C_R   0.543601 0.670099 0.041916 -0.225703
C61   C     C_R   0.833829 0.183118 0.147395 0.122725
C62   C     C_R   0.963049 0.863751 0.995275 0.129487
C63   C     C_R   0.889424 0.950849 0.968761 -0.225600
C64   C     C_R   0.838401 0.492180 0.242589 -0.154599
C65   C     C_R   0.928344 0.869721 0.944770 -0.176678
C66   C     C_R   0.960915 0.941785 0.068975 -0.275974
C67   C     C_R   0.171600 0.448301 0.752298 -0.131322
C68   C     C_R   0.920899 0.023228 0.094132 0.188952
C69   C     C_R   0.883710 0.027392 0.044170 0.188940
C70   C     C_R   0.839983 0.107582 0.071547 -0.282448
C71   C     C_R   0.871424 0.179493 0.196231 -0.157694
C72   C     C_R   0.914838 0.099931 0.169923 -0.228890
C73   C     C_R   0.963076 0.690521 0.934545 -0.132583
C74   C     C_R   0.991011 0.774733 0.977916 0.057879
C75   C     C_3   0.554241 0.486185 0.293171 0.192201
C76   C     C_3   0.452796 0.493045 0.327346 -0.314602
C77   C     C_3   0.421392 0.589095 0.359544 -1.007151
C78   C     C_R   0.051364 0.307492 0.051265 -0.122913
C79   C     C_R   0.973325 0.238588 0.974850 -0.117479
H1    H     H_    0.083524 0.807715 0.036808 0.087951
H2    H     H_    0.957759 0.280519 0.619509 0.115850
H3    H     H_    0.968820 0.225856 0.476178 0.126342
H4    H     H_    0.723422 0.370451 0.135930 0.149664
H5    H     H_    0.973712 0.094885 0.344816 0.123083
H6    H     H_    0.971527 0.931215 0.269642 0.113847
H7    H     H_    0.841895 0.773974 0.414353 0.117841
H8    H     H_    0.772269 0.847368 0.570452 0.129032
H9    H     H_    0.768189 0.978013 0.701575 0.128263
H10   H     H_    0.428155 0.458031 0.730538 0.122144
H11   H     H_    0.269718 0.335591 0.588155 0.119994
H12   H     H_    0.872960 0.220048 0.863497 0.085170
H13   H     H_    0.337309 0.282585 0.434531 0.131884
H14   H     H_    0.459488 0.297349 0.309675 0.165568
H15   H     H_    0.815880 0.600879 0.928496 0.086649
H16   H     H_    0.776121 0.447670 0.377249 0.142151
H17   H     H_    0.720163 0.455739 0.520938 0.123142
H18   H     H_    0.591842 0.456788 0.651776 0.130269
H19   H     H_    0.564213 0.520911 0.136632 0.119424
H20   H     H_    0.685584 0.674996 0.987874 0.116255
H21   H     H_    0.407357 0.496029 0.189158 0.139612
H22   H     H_    0.538434 0.710529 0.013947 0.126566
H23   H     H_    0.150416 0.405581 0.702549 0.096773
H24   H     H_    0.274543 0.484952 0.169222 0.114347
H25   H     H_    0.386967 0.662206 0.043357 0.116435
H26   H     H_    0.810403 0.111948 0.034648 0.120439
H27   H     H_    0.912121 0.651899 0.299022 0.094655
H28   H     H_    0.866378 0.238417 0.254804 0.124454
H29   H     H_    0.861877 0.953104 0.929426 0.125049
H30   H     H_    0.942774 0.098057 0.209137 0.123420
H31   H     H_    0.929535 0.811186 0.887467 0.114909
H32   H     H_    0.986148 0.938235 0.109395 0.116179
H33   H     H_    0.690895 0.453866 0.081628 0.099670
H34   H     H_    0.091818 0.321014 0.084780 0.097255
H35   H     H_    0.049587 0.808174 0.156835 0.086816
H36   H     H_    0.866026 0.508873 0.287483 0.089381
H37   H     H_    0.932370 0.675499 0.892487 0.082424
H38   H     H_    0.288221 0.620620 0.992471 0.088257
H39   H     H_    0.586981 0.508641 0.241135 0.117711
H40   H     H_    0.573669 0.534808 0.345662 0.088607
H41   H     H_    0.433107 0.445536 0.275281 0.199923
H42   H     H_    0.419136 0.473917 0.381691 0.206429
H43   H     H_    0.436255 0.636567 0.414888 0.271187
H44   H     H_    0.348056 0.591194 0.381122 0.271634
H45   H     H_    0.941223 0.187999 0.937185 0.096459
H46   H     H_    0.455237 0.611369 0.307284 0.271388
H47   H     H_    0.304557 0.537530 0.847666 0.097746
H48   H     H_    0.158871 0.468691 0.138594 0.084255
H49   H     H_    0.001151 0.372717 0.718395 0.087437
H50   H     H_    0.830648 0.121972 0.763376 0.116713
N1    N     N_R   0.036080 0.671900 0.995420 -0.037385
N2    N     N_R   0.867430 0.509300 0.948100 -0.038428
N3    N     N_R   0.003360 0.617250 0.167070 -0.040356
N4    N     N_R   0.825450 0.461270 0.995400 -0.040259
N5    N     N_R   0.045340 0.665280 0.119770 -0.039646
N6    N     N_R   0.883740 0.497640 0.167070 -0.038744
N7    N     N_R   0.987050 0.628910 0.948110 -0.037632
N8    N     N_R   0.174550 0.538730 0.004600 -0.038658
N9    N     N_R   0.954660 0.334720 0.880230 -0.038939
N10   N     N_R   0.116260 0.502360 0.832930 -0.042369
N11   N     N_R   0.012950 0.371090 0.051890 -0.041238
N12   N     N_R   0.963920 0.328100 0.004580 -0.042944
N13   N     N_R   0.165290 0.545350 0.880240 -0.041847
N14   N     N_R   0.132570 0.490700 0.051900 -0.037703
N15   N     N_R   0.996640 0.382750 0.832930 -0.038773
N16   N     N_R   0.834710 0.454650 0.119760 -0.048251
Ni1   Ni    Ni4+2 0.104370 0.604370 0.000010 0.213613
Ni2   Ni    Ni4+2 0.895630 0.395630 0.999990 0.209015
Ni3   Ni    Ni4+2 0.991920 0.505780 0.891500 0.212400
Ni4   Ni    Ni4+2 0.008080 0.494220 0.108500 0.209534
O1    O     O_3   0.582534 0.394829 0.257128 -0.692576

loop_
_geom_bond_atom_site_label_1
_geom_bond_atom_site_label_2
_ccdc_geom_bond_type
C61   C70   A    
C66   C68   A    
C63   C65   A    
C48   H16   S    
C71   H28   S    
N1    Ni1   S    
C52   N5    A    
C41   C42   A    
C14   C18   A    
C35   C36   A    
C58   H19   S    
N15   Ni3   S    
C3    C6    A    
C39   C41   A    
C7    C11   S    
C26   C27   A    
C50   C54   A    
C73   H37   S    
C1    C74   A    
C54   H25   S    
C6    C45   A    
C30   H10   S    
C30   C31   A    
C12   C64   A    
N10   N13   A    
C3    H48   S    
C23   C49   S    
C27   C29   A    
C75   O1    S    
C23   C40   A    
C13   H2    S    
C59   H20   S    
C5    H49   S    
C18   C19   A    
C9    C79   A    
C16   N2    A    
N13   Ni1   S    
C77   H43   S    
C18   H3    S    
C72   H30   S    
C56   H12   S    
C32   H11   S    
C63   C69   A    
C28   H27   S    
C68   C69   A    
N6    N16   A    
N4    Ni2   S    
C66   H32   S    
C4    C12   A    
C67   N10   A    
C62   C65   A    
C55   C60   A    
C61   C71   A    
N8    N14   A    
C64   N6    A    
C28   C34   A    
C59   C60   A    
C64   H36   S    
C21   C22   A    
N3    Ni4   S    
C75   H39   S    
C7    C56   A    
C12   C47   S    
N16   Ni2   S    
C27   C34   S    
N11   N12   A    
C38   C39   A    
N5    Ni1   S    
N1    N7    A    
N10   Ni3   S    
C50   C53   A    
C62   C66   A    
N8    Ni1   S    
C75   H40   S    
C76   C77   S    
C40   H33   S    
C1    N1    A    
C5    C7    A    
C5    N15   A    
C42   C48   A    
N6    Ni4   S    
C25   H9    S    
C33   C37   A    
C49   C58   A    
C28   N3    A    
C75   C76   S    
C37   C38   A    
C77   H44   S    
C56   N9    A    
C44   H18   S    
C47   C48   A    
C73   N7    A    
N14   Ni4   S    
N9    Ni2   S    
C68   C72   A    
C45   N8    A    
C43   H17   S    
C3    N14   A    
N2    Ni3   S    
C76   H41   S    
C24   C25   A    
C29   H7    S    
N7    Ni3   S    
C39   C46   A    
C51   C57   A    
C2    H47   S    
C46   O1    S    
C16   C23   A    
C55   C57   A    
C43   C44   A    
C2    N13   A    
C22   C24   A    
C36   C44   A    
C78   H34   S    
C42   C43   A    
C76   H42   S    
C60   H22   S    
C73   C74   A    
C77   H46   S    
C40   N4    A    
C45   H38   S    
C51   H21   S    
C15   C17   A    
C46   C47   A    
C6    C50   S    
C37   H13   S    
C8    C31   S    
C34   C52   A    
C31   C32   A    
C2    C8    A    
N2    N4    A    
C70   H26   S    
C78   N11   A    
C54   C55   A    
C52   H35   S    
C79   H45   S    
C16   H15   S    
C49   C59   A    
C30   C36   A    
C17   C25   A    
C32   C33   A    
C19   C20   A    
C10   H50   S    
C71   C72   A    
N9    N15   A    
C11   C13   A    
C57   C58   A    
C79   N12   A    
C4    H4    S    
C20   C26   A    
C53   H24   S    
C26   H6    S    
C4    N16   A    
C38   H14   S    
C33   C35   A    
C9    C78   A    
C69   C70   A    
C35   C41   A    
C24   H8    S    
C65   H31   S    
C10   C11   A    
N12   Ni2   S    
C15   C21   A    
C20   C21   A    
C8    C67   A    
N3    N5    A    
C22   C29   A    
C1    H1    S    
C14   C15   A    
C62   C74   S    
C10   C17   A    
C51   C53   A    
C63   H29   S    
C13   C14   A    
N11   Ni4   S    
C19   H5    S    
C67   H23   S    
