data_mof_unit_34753.cif
_audit_creation_date              2012-12-10T20:41:46-0500
_audit_creation_method            fapswitch 2.2
_symmetry_space_group_name_H-M    P1
_symmetry_Int_Tables_number       1
_space_group_crystal_system       triclinic
_cell_length_a                    14.904124
_cell_length_b                    15.455097
_cell_length_c                    9.919393
_cell_angle_alpha                 91.162935
_cell_angle_beta                  90.347865
_cell_angle_gamma                 90.0494
_cell_volume                      2284.36557949

loop_
_atom_site_label
_atom_site_type_symbol
_atom_type_description
_atom_site_fract_x
_atom_site_fract_y
_atom_site_fract_z
_atom_type_partial_charge
C1    C     C_R   0.376578 0.883533 0.498505 0.892139
C2    C     C_R   0.381835 0.121585 0.499821 0.903167
C3    C     C_R   0.882257 0.378038 0.499014 0.907912
C4    C     C_R   0.880223 0.619819 0.500306 0.916141
C5    C     C_3   0.281499 0.211223 0.748152 -0.509866
C6    C     C_3   0.333008 0.758173 0.727915 -0.444588
C7    C     C_3   0.685388 0.621311 0.643614 -0.470681
C8    C     C_3   0.723134 0.349088 0.704066 -0.492454
C9    C     C_R   0.422585 0.985231 0.070375 0.222147
C10   C     C_R   0.921817 0.489339 0.070147 0.180081
C11   C     C_R   0.578270 0.000877 0.072447 0.367291
C12   C     C_R   0.077948 0.501910 0.072951 0.349211
C13   C     C_R   0.578261 0.001916 0.928589 0.434774
C14   C     C_R   0.077465 0.502242 0.929664 0.326685
C15   C     C_R   0.422837 0.984597 0.928027 0.126901
C16   C     C_R   0.921819 0.489254 0.927988 0.131060
C17   C     C_3   0.342251 0.039896 0.925141 -0.505545
C18   C     C_3   0.841758 0.546813 0.924526 -0.469781
C19   C     C_3   0.340277 0.039226 0.076971 -0.406359
C20   C     C_3   0.841690 0.546607 0.077471 -0.418359
C21   C     C_R   0.621225 0.118576 0.501034 0.928990
C22   C     C_R   0.619630 0.880206 0.499336 0.908376
C23   C     C_R   0.119519 0.620404 0.501003 0.993566
C24   C     C_R   0.122851 0.383481 0.499220 0.955994
C25   C     C_R   0.256864 0.197956 0.603313 0.011948
C26   C     C_R   0.274223 0.793269 0.619694 -0.003530
C27   C     C_R   0.726498 0.666843 0.528078 -0.021471
C28   C     C_R   0.777149 0.288563 0.617696 0.045313
C29   C     C_R   0.316614 0.188964 0.496168 -0.147463
C30   C     C_R   0.300251 0.827531 0.497082 -0.161649
C31   C     C_R   0.815072 0.686658 0.498061 -0.135990
C32   C     C_R   0.824426 0.304467 0.499720 -0.210010
C33   C     C_R   0.312309 0.246232 0.386260 0.362104
C34   C     C_R   0.253019 0.803906 0.377698 0.389942
C35   C     C_R   0.836135 0.767925 0.444596 0.369589
C36   C     C_R   0.817656 0.245572 0.389549 0.382505
C37   C     C_R   0.770334 0.831944 0.443153 -0.164610
C38   C     C_R   0.751866 0.182150 0.392269 -0.173073
C39   C     C_R   0.245921 0.308638 0.384337 -0.157201
C40   C     C_R   0.190285 0.738330 0.382338 -0.129565
C41   C     C_R   0.685547 0.814448 0.496209 -0.088741
C42   C     C_R   0.695022 0.176823 0.503869 -0.232038
C43   C     C_R   0.191713 0.320599 0.497103 -0.115896
C44   C     C_R   0.177524 0.693654 0.501918 -0.122540
C45   C     C_R   0.662913 0.730481 0.530050 0.016186
C46   C     C_R   0.713306 0.225179 0.620188 0.148785
C47   C     C_R   0.202007 0.269242 0.608092 -0.006464
C48   C     C_R   0.216533 0.724355 0.621349 0.012376
C49   C     C_3   0.614539 0.692311 0.646562 0.258137
C50   C     C_3   0.651670 0.279062 0.705554 0.256675
C51   C     C_3   0.234895 0.296510 0.745034 0.332409
C52   C     C_3   0.273692 0.679149 0.723004 0.303289
H1    H     H_    0.786423 0.895899 0.407380 0.205896
H2    H     H_    0.743068 0.139887 0.305196 0.252155
H3    H     H_    0.240845 0.351258 0.299384 0.236496
H4    H     H_    0.156080 0.718834 0.289848 0.226720
H5    H     H_    0.355058 0.216541 0.766091 0.254890
H6    H     H_    0.403207 0.746432 0.694869 0.236849
H7    H     H_    0.729945 0.621414 0.733275 0.233997
H8    H     H_    0.755953 0.361891 0.803397 0.249456
H9    H     H_    0.362817 0.103378 0.889420 0.227909
H10   H     H_    0.283824 0.007868 0.874901 0.227651
H11   H     H_    0.857245 0.611391 0.883038 0.233099
H12   H     H_    0.782463 0.513458 0.879313 0.207441
N1    N     N_R   0.499140 0.000000 0.142800 -0.168274
N2    N     N_R   0.999140 0.500000 0.142800 -0.165928
N3    N     N_R   0.499160 0.000000 0.857150 -0.170616
N4    N     N_R   0.999160 0.500000 0.857150 -0.168340
O1    O     O_R   0.408400 0.908380 0.614690 -0.622626
O2    O     O_R   0.408400 0.091620 0.614690 -0.631994
O3    O     O_R   0.908400 0.408380 0.614690 -0.620610
O4    O     O_R   0.908400 0.591620 0.614690 -0.628243
O5    O     O_R   0.408370 0.908370 0.385350 -0.569701
O6    O     O_R   0.408370 0.091630 0.385350 -0.590703
O7    O     O_R   0.908370 0.408370 0.385350 -0.574594
O8    O     O_R   0.908370 0.591630 0.385350 -0.611414
O9    O     O_R   0.591610 0.091610 0.614650 -0.567217
O10   O     O_R   0.591610 0.908390 0.614650 -0.541577
O11   O     O_R   0.091610 0.591610 0.614650 -0.582024
O12   O     O_R   0.091610 0.408390 0.614650 -0.588849
O13   O     O_R   0.591590 0.091600 0.385310 -0.572787
O14   O     O_R   0.591590 0.908400 0.385310 -0.586297
O15   O     O_R   0.091590 0.591600 0.385310 -0.584644
O16   O     O_R   0.091590 0.408400 0.385310 -0.587677
Zn1   Zn    Zn3+2 0.500010 0.000000 0.653130 1.044828
Zn2   Zn    Zn3+2 0.000010 0.500000 0.653130 1.021429
Zn3   Zn    Zn3+2 0.499980 0.000000 0.346870 1.067356
Zn4   Zn    Zn3+2 0.999980 0.500000 0.346870 1.054620
Cl1   Cl    Cl    0.395088 0.252416 0.260238 -0.547979
Cl2   Cl    Cl    0.274076 0.844949 0.216968 -0.610462
Cl3   Cl    Cl    0.944844 0.793340 0.388681 -0.586959
Cl4   Cl    Cl    0.886231 0.249270 0.245353 -0.526808
H13   H     H_    0.352208 0.103844 0.123581 0.255055
H14   H     H_    0.280942 0.005076 0.116337 0.258490
H15   H     H_    0.856800 0.611094 0.123968 0.234933
H16   H     H_    0.782586 0.513016 0.119937 0.225117
Cl5   Cl    Cl    0.619936 0.756602 0.798442 -0.528950
Cl6   Cl    Cl    0.636240 0.234575 0.868466 -0.478441
Cl7   Cl    Cl    0.318878 0.379594 0.738684 -0.405385
Cl8   Cl    Cl    0.332375 0.588395 0.651052 -0.460958
H17   H     H_    0.546218 0.668858 0.618991 0.141909
H18   H     H_    0.588328 0.296648 0.652958 0.127297
H19   H     H_    0.181413 0.305042 0.821751 0.139014
H20   H     H_    0.239366 0.668957 0.820214 0.181426
H21   H     H_    0.244064 0.165424 0.811845 0.183724
H22   H     H_    0.327122 0.796472 0.823598 0.211981
H23   H     H_    0.657817 0.557068 0.612841 0.182953
H24   H     H_    0.701814 0.407794 0.649636 0.164804
Cl9   Cl    Cl    0.681078 0.997912 0.159565 -0.495316
Cl10  Cl    Cl    0.180851 0.506139 0.160668 -0.490017
Cl11  Cl    Cl    0.680909 0.005228 0.842192 -0.407745
Cl12  Cl    Cl    0.178032 0.508425 0.845408 -0.460180

loop_
_geom_bond_atom_site_label_1
_geom_bond_atom_site_label_2
_ccdc_geom_bond_type
C11   Cl9   S    
N4    Zn2   S    
C6    H6    S    
C12   Cl10  S    
C6    C52   S    
C5    H21   S    
C14   Cl12  S    
C28   C46   A    
C33   C39   A    
C23   O15   A    
C22   O14   A    
C2    C29   S    
C34   C40   A    
C32   C36   A    
C35   C37   A    
C38   C42   A    
C37   C41   A    
N2    Zn4   S    
C18   H11   S    
C22   C41   S    
C51   H19   S    
O14   Zn3   S    
C29   C33   A    
C7    C27   S    
C42   C46   A    
O5    Zn3   S    
O12   Zn2   S    
C17   H9    S    
C9    C19   S    
C39   H3    S    
C10   C20   S    
C40   H4    S    
C16   N4    A    
O6    Zn3   S    
C3    O7    A    
O8    Zn4   S    
C40   C44   A    
C2    O6    A    
C26   C48   A    
C37   H1    S    
C27   C45   A    
O15   Zn4   S    
C20   H16   S    
O9    Zn1   S    
C25   C29   A    
C8    H24   S    
C7    H7    S    
C24   O12   A    
N1    Zn3   S    
C10   N2    A    
C51   Cl7   S    
C50   Cl6   S    
N3    Zn1   S    
C30   C34   A    
C27   C31   A    
C28   C32   A    
C7    C49   S    
C47   C51   S    
C12   N2    A    
C52   Cl8   S    
C1    O1    A    
C23   C44   S    
C3    O3    A    
C34   Cl2   S    
C33   Cl1   S    
C17   H10   S    
O3    Zn2   S    
O4    Zn2   S    
C38   H2    S    
C45   C49   S    
C15   N3    A    
C6    H22   S    
C22   O10   A    
O13   Zn3   S    
C19   H14   S    
C5    C25   S    
O10   Zn1   S    
C20   H15   S    
C12   C14   A    
C26   C30   A    
C8    C28   S    
C7    H23   S    
C8    C50   S    
C4    O4    A    
O1    Zn1   S    
C13   N3    A    
C15   C17   S    
C25   C47   A    
C52   H20   S    
C14   N4    A    
O16   Zn4   S    
C21   O13   A    
C19   H13   S    
C39   C43   A    
C50   H18   S    
C46   C50   S    
C5    H5    S    
C1    O5    A    
C36   C38   A    
C9    C15   A    
C13   Cl11  S    
C10   C16   A    
C8    H8    S    
C49   H17   S    
C11   C13   A    
C18   H12   S    
C6    C26   S    
C31   C35   A    
C1    C30   S    
C17   C19   S    
C18   C20   S    
C24   O16   A    
C3    C32   S    
C9    N1    A    
C4    O8    A    
C4    C31   S    
C36   Cl4   S    
C49   Cl5   S    
C21   C42   S    
C44   C48   A    
O7    Zn4   S    
C48   C52   S    
C16   C18   S    
C21   O9    A    
C24   C43   S    
C41   C45   A    
C5    C51   S    
C23   O11   A    
C2    O2    A    
O2    Zn1   S    
C43   C47   A    
O11   Zn2   S    
C11   N1    A    
C35   Cl3   S    
