data_mof_unit_61543.cif
_audit_creation_date              2012-12-10T19:52:27-0500
_audit_creation_method            fapswitch 2.2
_symmetry_space_group_name_H-M    P1
_symmetry_Int_Tables_number       1
_space_group_crystal_system       triclinic
_cell_length_a                    18.277158
_cell_length_b                    18.278061
_cell_length_c                    31.896081
_cell_angle_alpha                 89.999939
_cell_angle_beta                  89.999723
_cell_angle_gamma                 90.000038
_cell_volume                      10655.5559573

loop_
_atom_site_label
_atom_site_type_symbol
_atom_type_description
_atom_site_fract_x
_atom_site_fract_y
_atom_site_fract_z
_atom_type_partial_charge
C1    C     C_R   0.641227 0.500020 0.000000 0.935030
C2    C     C_1   0.499997 0.499988 0.163210 0.143061
C3    C     C_2   0.997421 0.853222 0.722474 0.404769
C4    C     C_1   0.000002 0.999988 0.336790 0.143061
C5    C     C_1   0.999997 0.999988 0.663210 0.143061
C6    C     C_1   0.500000 0.499926 0.663234 -0.034544
C7    C     C_1   0.500000 0.499926 0.336765 -0.034544
C8    C     C_1   1.000000 0.999926 0.163235 -0.034544
C9    C     C_1   0.000000 0.999926 0.836765 -0.034544
C10   C     C_1   0.717652 0.500056 0.000000 -0.162261
C11   C     C_1   0.282348 0.500055 1.000000 -0.162276
C12   C     C_1   0.217652 0.000056 0.500000 -0.162261
C13   C     C_R   0.358773 0.500020 1.000000 0.935019
C14   C     C_1   0.782348 0.000056 0.500000 -0.162277
C15   C     C_1   0.782397 0.500048 0.000000 -0.167686
C16   C     C_1   0.217603 0.500047 1.000000 -0.167701
C17   C     C_1   0.282397 0.000048 0.500000 -0.167686
C18   C     C_1   0.717603 0.000047 0.500000 -0.167702
C19   C     C_R   0.500000 0.358650 0.500000 0.931477
C20   C     C_R   1.000000 0.858650 1.000000 0.931477
C21   C     C_R   0.500000 0.499874 0.581367 0.906095
C22   C     C_R   0.500000 0.499874 0.418633 0.906095
C23   C     C_R   1.000000 0.999874 0.081367 0.906095
C24   C     C_R   0.141227 0.000020 0.500000 0.935031
C25   C     C_R   0.000000 0.999874 0.918633 0.906095
C26   C     C_R   0.500000 0.641070 0.500000 0.929716
C27   C     C_R   0.000000 0.141070 0.000000 0.929716
C28   C     C_R   1.000000 0.641143 1.000000 0.929526
C29   C     C_R   0.500000 0.141143 0.500000 0.929525
C30   C     C_R   0.858823 0.500018 0.000000 0.927648
C31   C     C_R   0.141177 0.500017 1.000000 0.927650
C32   C     C_R   0.358823 0.000018 0.500000 0.927648
C33   C     C_R   0.641177 0.000017 0.500000 0.927651
C34   C     C_R   0.500000 0.500000 0.918638 0.895752
C35   C     C_R   0.858773 0.000020 0.500000 0.935018
C36   C     C_R   0.499999 0.500000 0.081362 0.895752
C37   C     C_R   1.000000 1.000000 0.418638 0.895752
C38   C     C_R   0.999999 1.000000 0.581362 0.895752
C39   C     C_R   0.000000 0.358805 0.000000 0.927263
C40   C     C_R   0.500000 0.858805 0.500000 0.927263
C41   C     C_1   0.500000 0.282258 0.500000 -0.179864
C42   C     C_1   1.000000 0.782258 1.000000 -0.179864
C43   C     C_1   1.000000 0.717534 1.000000 -0.174394
C44   C     C_1   0.500000 0.217534 0.500000 -0.174394
C45   C     C_1   0.500000 0.717549 0.500000 -0.181517
C46   C     C_3   0.498953 0.569743 0.735594 -0.283400
C47   C     C_1   0.000000 0.217549 0.000000 -0.181517
C48   C     C_1   0.000000 0.282325 0.000000 -0.176985
C49   C     C_1   0.500000 0.782325 0.500000 -0.176985
C50   C     C_3   0.560963 0.465972 0.735603 -0.283318
C51   C     C_3   0.559827 0.464015 0.264395 -0.283338
C52   C     C_3   0.440087 0.464158 0.735604 -0.283359
C53   C     C_3   0.438956 0.466117 0.264397 -0.283336
C54   C     C_3   0.060958 0.965964 0.235603 -0.283317
C55   C     C_3   0.059821 0.964005 0.764395 -0.283337
C56   C     C_3   0.940082 0.964166 0.235604 -0.283358
C57   C     C_3   0.501212 0.569740 0.264406 -0.283401
C58   C     C_3   0.938950 0.966127 0.764397 -0.283336
C59   C     C_3   0.558900 0.535158 0.763477 0.008149
C60   C     C_3   0.560005 0.533231 0.236522 0.008238
C61   C     C_3   0.440073 0.533374 0.763478 0.008233
C62   C     C_3   0.441182 0.535298 0.236523 0.008144
C63   C     C_3   0.058905 0.035150 0.263477 0.008150
C64   C     C_3   0.060011 0.033222 0.736522 0.008238
C65   C     C_3   0.940077 0.033382 0.263478 0.008233
C66   C     C_3   0.941188 0.035307 0.736523 0.008144
C67   C     C_1   0.500001 0.499997 0.874239 -0.083410
C68   C     C_3   0.998963 0.069743 0.235594 -0.283401
C69   C     C_1   0.499998 0.499997 0.125761 -0.083410
C70   C     C_1   0.000001 0.999997 0.374238 -0.083410
C71   C     C_1   0.999998 0.999997 0.625761 -0.083410
C72   C     C_1   0.500000 0.499902 0.625781 -0.179534
C73   C     C_1   0.500000 0.499902 0.374219 -0.179533
C74   C     C_1   1.000000 0.999902 0.125781 -0.179534
C75   C     C_1   0.000000 0.999902 0.874219 -0.179533
C76   C     C_3   0.501031 0.431364 0.763487 0.005965
C77   C     C_3   0.498804 0.431367 0.236513 0.005965
C78   C     C_3   0.001022 0.931364 0.263487 0.005965
C79   C     C_3   0.001223 0.069740 0.764406 -0.283401
C80   C     C_3   0.998793 0.931367 0.736513 0.005965
C81   C     C_3   0.500002 0.499973 0.791320 0.144987
C82   C     C_3   0.499997 0.499973 0.208679 0.144987
C83   C     C_3   0.000002 0.999973 0.291320 0.144987
C84   C     C_3   0.999997 0.999973 0.708679 0.144987
C85   C     C_3   0.500001 0.499950 0.708588 0.177337
C86   C     C_3   0.499999 0.499949 0.291412 0.177337
C87   C     C_3   0.000001 0.999949 0.208588 0.177337
C88   C     C_3   0.999999 0.999949 0.791412 0.177337
C89   C     C_2   0.626003 0.575248 0.777505 0.404270
C90   C     C_1   0.500002 0.499988 0.836790 0.143061
C91   C     C_2   0.628371 0.571127 0.222492 0.404249
C92   C     C_2   0.371797 0.571432 0.777508 0.404247
C93   C     C_2   0.374175 0.575547 0.222495 0.404268
C94   C     C_2   0.126013 0.075231 0.277505 0.404270
C95   C     C_2   0.128382 0.071107 0.722492 0.404249
C96   C     C_2   0.871807 0.071449 0.277508 0.404247
C97   C     C_2   0.874187 0.075567 0.722495 0.404266
C98   C     C_2   0.502206 0.353216 0.777526 0.404768
C99   C     C_2   0.497444 0.353222 0.222474 0.404769
C100  C     C_2   0.002186 0.853216 0.277526 0.404768
H1    H     H_    0.610814 0.438177 0.723677 0.150719
H2    H     H_    0.502205 0.626800 0.276341 0.148951
H3    H     H_    0.998114 0.126805 0.223659 0.148951
H4    H     H_    0.002225 0.126799 0.776341 0.148951
H5    H     H_    0.663224 0.597510 0.754305 0.067933
H6    H     H_    0.666293 0.592174 0.245691 0.067928
H7    H     H_    0.333923 0.592564 0.754308 0.067920
H8    H     H_    0.337005 0.597894 0.245696 0.067926
H9    H     H_    0.163237 0.097488 0.254305 0.067933
H10   H     H_    0.166308 0.092148 0.745691 0.067928
H11   H     H_    0.833936 0.092587 0.254308 0.067920
H12   H     H_    0.608752 0.434619 0.276320 0.150663
H13   H     H_    0.837021 0.097919 0.745696 0.067926
H14   H     H_    0.502851 0.309843 0.754331 0.067583
H15   H     H_    0.496687 0.309850 0.245669 0.067583
H16   H     H_    0.002825 0.809842 0.254331 0.067583
H17   H     H_    0.996657 0.809850 0.745669 0.067583
H18   H     H_    0.391093 0.434878 0.723679 0.150660
H19   H     H_    0.389039 0.438441 0.276324 0.150716
H20   H     H_    0.110805 0.938162 0.223677 0.150719
H21   H     H_    0.108741 0.934602 0.776320 0.150663
H22   H     H_    0.891084 0.934893 0.223679 0.150661
H23   H     H_    0.889029 0.938458 0.776324 0.150717
H24   H     H_    0.498096 0.626805 0.723659 0.148951
O1    O     O_R   0.607370 0.439420 0.000000 -0.617349
O2    O     O_R   0.392710 0.560580 0.000000 -0.613939
O3    O     O_R   0.107290 0.060580 0.500000 -0.613949
O4    O     O_R   0.892710 0.060580 0.500000 -0.613939
O5    O     O_R   0.500000 0.439420 0.938390 -0.606125
O6    O     O_R   0.500000 0.439420 0.061610 -0.606125
O7    O     O_R   1.000000 0.939420 0.438390 -0.606125
O8    O     O_R   0.000000 0.939420 0.561610 -0.606125
O9    O     O_R   0.500000 0.560580 0.938390 -0.607640
O10   O     O_R   0.500000 0.560580 0.061610 -0.607640
O11   O     O_R   0.000000 0.060580 0.438390 -0.607640
O12   O     O_R   0.392630 0.439420 0.000000 -0.617341
O13   O     O_R   1.000000 0.060580 0.561610 -0.607640
O14   O     O_R   0.560550 0.392540 0.500000 -0.616859
O15   O     O_R   0.439450 0.392540 0.500000 -0.616865
O16   O     O_R   0.060550 0.892540 0.000000 -0.616860
O17   O     O_R   0.939450 0.892540 0.000000 -0.616864
O18   O     O_R   0.560580 0.499860 0.561610 -0.615609
O19   O     O_R   0.560580 0.499860 0.438390 -0.615656
O20   O     O_R   0.439420 0.499860 0.561610 -0.615661
O21   O     O_R   0.439420 0.499860 0.438390 -0.615614
O22   O     O_R   0.060580 0.999860 0.061610 -0.615609
O23   O     O_R   0.107370 0.939420 0.500000 -0.617349
O24   O     O_R   0.060580 0.999860 0.938390 -0.615656
O25   O     O_R   0.939420 0.999860 0.061610 -0.615661
O26   O     O_R   0.939420 0.999860 0.938390 -0.615614
O27   O     O_R   0.560630 0.607160 0.500000 -0.617140
O28   O     O_R   0.439370 0.607160 0.500000 -0.617144
O29   O     O_R   0.060630 0.107160 0.000000 -0.617141
O30   O     O_R   0.939370 0.107160 0.000000 -0.617144
O31   O     O_R   0.000000 0.607310 0.965210 -0.617352
O32   O     O_R   1.000000 0.607310 0.034790 -0.617352
O33   O     O_R   0.500000 0.107310 0.465210 -0.617352
O34   O     O_R   0.892630 0.939420 0.500000 -0.617340
O35   O     O_R   0.500000 0.107310 0.534790 -0.617352
O36   O     O_R   0.892680 0.500000 0.965220 -0.615630
O37   O     O_R   0.892680 0.500000 0.034780 -0.615440
O38   O     O_R   0.107320 0.500000 0.965220 -0.615449
O39   O     O_R   0.107320 0.500000 0.034780 -0.615638
O40   O     O_R   0.392680 0.000000 0.465220 -0.615629
O41   O     O_R   0.392680 0.000000 0.534780 -0.615440
O42   O     O_R   0.607320 0.000000 0.465220 -0.615449
O43   O     O_R   0.607320 0.000000 0.534780 -0.615638
O44   O     O_2   0.639211 0.583105 0.814724 -0.560153
O45   O     O_R   1.000000 0.392690 0.965220 -0.618659
O46   O     O_2   0.641826 0.578551 0.185272 -0.560356
O47   O     O_2   0.358363 0.578893 0.814727 -0.560341
O48   O     O_2   0.360988 0.583440 0.185276 -0.560138
O49   O     O_2   0.139222 0.083087 0.314724 -0.560154
O50   O     O_2   0.141838 0.078529 0.685272 -0.560357
O51   O     O_2   0.858374 0.078913 0.314727 -0.560341
O52   O     O_2   0.861001 0.083462 0.685276 -0.560136
O53   O     O_2   0.502443 0.337867 0.814747 -0.555293
O54   O     O_2   0.497179 0.337873 0.185253 -0.555294
O55   O     O_2   0.002421 0.837866 0.314747 -0.555293
O56   O     O_R   1.000000 0.392690 0.034780 -0.618660
O57   O     O_2   0.997153 0.837873 0.685253 -0.555294
O58   O     O_R   0.500000 0.892690 0.465220 -0.618659
O59   O     O_R   0.500000 0.892690 0.534780 -0.618659
O60   O     O_R   0.607290 0.560580 0.000000 -0.613949
Zn1   Zn    Zn3+2 0.500000 0.419100 0.000000 1.023775
Zn2   Zn    Zn3+2 1.000000 0.500000 0.046450 0.996520
Zn3   Zn    Zn3+2 0.500000 0.000000 0.453550 0.996519
Zn4   Zn    Zn3+2 0.500000 0.000000 0.546450 0.996520
Zn5   Zn    Zn3+2 0.000000 0.919100 0.500000 1.023775
Zn6   Zn    Zn3+2 0.500000 0.580900 0.000000 1.022464
Zn7   Zn    Zn3+2 0.000000 0.080900 0.500000 1.022464
Zn8   Zn    Zn3+2 0.580910 0.499830 0.500000 0.989186
Zn9   Zn    Zn3+2 0.419090 0.499830 0.500000 0.989169
Zn10  Zn    Zn3+2 0.080910 0.999830 0.000000 0.989186
Zn11  Zn    Zn3+2 0.919090 0.999830 0.000000 0.989170
Zn12  Zn    Zn3+2 0.000000 0.500000 0.953550 0.996519

loop_
_geom_bond_atom_site_label_1
_geom_bond_atom_site_label_2
_ccdc_geom_bond_type
C27   O29   A    
C55   H21   S    
C93   O48   D    
C51   H12   S    
C96   O51   D    
O5    Zn1   S    
O12   Zn1   S    
C14   C18   T    
C53   C77   S    
C33   O42   A    
C100  H16   S    
C68   H3    S    
C80   C84   S    
O40   Zn3   S    
C4    C70   T    
C39   O56   A    
O6    Zn1   S    
C57   C62   S    
C7    C73   T    
C16   C31   S    
C30   O36   A    
C57   H2    S    
C63   C94   S    
C58   H23   S    
C6    C85   S    
O28   Zn9   S    
O39   Zn2   S    
C50   C59   S    
C66   C97   S    
C52   C85   S    
C95   O50   D    
C1    O1    A    
C21   O18   A    
C50   C76   S    
C52   C61   S    
C9    C88   S    
C99   H15   S    
C54   C87   S    
C46   C59   S    
C65   C83   S    
C7    C86   S    
C54   C63   S    
C92   O47   D    
C76   C98   S    
C56   C65   S    
C56   C78   S    
C57   C86   S    
O1    Zn1   S    
C59   C89   S    
C55   C88   S    
O2    Zn6   S    
C64   C84   S    
O31   Zn12  S    
C3    H17   S    
C50   C85   S    
O13   Zn7   S    
C60   C82   S    
C78   C83   S    
C58   C66   S    
C65   C96   S    
O29   Zn10  S    
C34   O5    A    
C22   O19   A    
C28   O31   A    
O19   Zn8   S    
C37   O11   A    
C53   C86   S    
O22   Zn10  S    
C2    C69   T    
O21   Zn9   S    
C26   C45   S    
C61   C92   S    
C58   C80   S    
O36   Zn12  S    
C46   C85   S    
C27   O30   A    
C58   C88   S    
C23   O25   A    
C31   O38   A    
C97   O52   D    
C32   O41   A    
C56   C87   S    
C91   H6    S    
C46   H24   S    
C33   O43   A    
C3    C80   S    
C51   C86   S    
C79   C88   S    
C96   H11   S    
C1    O60   A    
O9    Zn6   S    
O45   Zn12  S    
C40   O58   A    
O7    Zn5   S    
O17   Zn11  S    
C23   O22   A    
C31   O39   A    
O41   Zn4   S    
C21   C72   S    
O42   Zn3   S    
O33   Zn3   S    
C21   O20   A    
C99   O54   D    
C29   O35   A    
O34   Zn5   S    
C14   C35   S    
C5    C84   S    
C57   C60   S    
C29   O33   A    
O20   Zn9   S    
C46   C61   S    
C34   O9    A    
C95   H10   S    
C67   C90   T    
O3    Zn7   S    
C37   O7    A    
C63   C83   S    
C25   O26   A    
C25   C75   S    
C56   H22   S    
O35   Zn4   S    
C12   C17   T    
C6    C72   T    
C51   C77   S    
C89   O44   D    
O37   Zn2   S    
C66   C79   S    
C36   O6    A    
C24   O3    A    
C53   C62   S    
C54   H20   S    
C92   H7    S    
C47   C48   T    
C22   O21   A    
C45   C49   T    
C65   C68   S    
O18   Zn8   S    
C55   C64   S    
C8    C74   T    
C98   O53   D    
C3    O57   D    
O11   Zn7   S    
O56   Zn2   S    
C81   C90   S    
O24   Zn10  S    
O27   Zn8   S    
C29   C44   S    
C78   C100  S    
C41   C44   T    
O60   Zn6   S    
C79   H4    S    
C2    C82   S    
C42   C43   T    
C13   O2    A    
C23   C74   S    
C97   H13   S    
C20   O16   A    
C36   C69   S    
C15   C30   S    
C60   C91   S    
C27   C47   S    
C68   C87   S    
C12   C24   S    
C38   C71   S    
C26   O27   A    
C13   O12   A    
C28   C43   S    
C91   O46   D    
O30   Zn11  S    
C20   O17   A    
O14   Zn8   S    
C1    C10   S    
C59   C81   S    
C64   C95   S    
C52   C76   S    
C24   O23   A    
C36   O10   A    
C76   C81   S    
C20   C42   S    
C53   H19   S    
O15   Zn9   S    
C51   C60   S    
O32   Zn2   S    
O38   Zn12  S    
C63   C68   S    
C94   H9    S    
C30   O37   A    
C10   C15   T    
C8    C87   S    
C40   O59   A    
C26   O28   A    
C35   O34   A    
C5    C71   T    
C61   C81   S    
O59   Zn4   S    
O25   Zn11  S    
C55   C80   S    
C11   C13   S    
O10   Zn6   S    
C4    C83   S    
C77   C82   S    
O23   Zn5   S    
C19   O14   A    
O43   Zn4   S    
C32   O40   A    
C64   C79   S    
C38   O13   A    
C77   C99   S    
C25   O24   A    
O58   Zn3   S    
C62   C82   S    
C35   O4    A    
C18   C33   S    
O26   Zn11  S    
C11   C16   T    
C98   H14   S    
C94   O49   D    
C66   C84   S    
C34   C67   S    
C19   C41   S    
C50   H1    S    
C19   O15   A    
C93   H8    S    
C62   C93   S    
C89   H5    S    
O4    Zn7   S    
C28   O32   A    
C17   C32   S    
C39   O45   A    
C9    C75   T    
C22   C73   S    
C37   C70   S    
C100  O55   D    
O16   Zn10  S    
O8    Zn5   S    
C40   C49   S    
C38   O8    A    
C39   C48   S    
C54   C78   S    
C52   H18   S    
