data_mof_unit_35752.cif
_audit_creation_date              2012-12-10T19:00:44-0500
_audit_creation_method            fapswitch 2.2
_symmetry_space_group_name_H-M    P1
_symmetry_Int_Tables_number       1
_space_group_crystal_system       triclinic
_cell_length_a                    15.08477
_cell_length_b                    10.838934
_cell_length_c                    9.538884
_cell_angle_alpha                 90.313761
_cell_angle_beta                  89.995955
_cell_angle_gamma                 90.344456
_cell_volume                      1559.58292425

loop_
_atom_site_label
_atom_site_type_symbol
_atom_type_description
_atom_site_fract_x
_atom_site_fract_y
_atom_site_fract_z
_atom_type_partial_charge
C1    C     C_R   0.497992 0.262342 0.499639 0.810493
C2    C     C_R   0.907126 0.494605 0.628350 0.109479
C3    C     C_R   0.953815 0.496297 0.244443 -0.207370
C4    C     C_R   0.046244 0.497095 0.244443 -0.203900
C5    C     C_R   0.092920 0.497241 0.371544 0.109398
C6    C     C_R   0.046495 0.496260 0.499970 0.060909
C7    C     C_R   0.092900 0.496178 0.628410 0.108794
C8    C     C_R   0.046202 0.494955 0.755491 -0.203323
C9    C     C_R   0.953772 0.494101 0.755462 -0.208075
C10   C     C_R   0.185286 0.498429 0.372465 -0.238770
C11   C     C_R   0.231676 0.498611 0.500001 -0.070414
C12   C     C_R   0.328580 0.499644 0.500010 0.818660
C13   C     C_R   0.185268 0.497391 0.627521 -0.235039
C14   C     C_R   0.483433 0.064585 0.624568 0.135300
C15   C     C_R   0.488620 0.129342 0.498758 -0.153610
C16   C     C_R   0.481199 0.063662 0.371723 -0.182193
C17   C     C_R   0.481600 0.934962 0.372055 -0.200212
C18   C     C_R   0.489545 0.870971 0.499410 -0.105224
C19   C     C_R   0.484259 0.937486 0.624784 0.087885
C20   C     C_3   0.541669 0.933271 0.752046 -0.509320
C21   C     C_3   0.540516 0.073239 0.752219 0.108851
C22   C     C_R   0.575840 0.525749 0.073978 0.272363
C23   C     C_R   0.498475 0.737802 0.500122 0.809273
C24   C     C_R   0.427466 0.462801 0.074079 -0.044295
C25   C     C_R   0.427340 0.463280 0.925424 -0.012886
C26   C     C_R   0.576111 0.524665 0.926502 0.276492
C27   C     C_3   0.629663 0.640448 0.921350 -0.521174
C28   C     C_3   0.628403 0.642460 0.080283 -0.502330
C29   C     C_R   0.671428 0.498914 0.499982 0.810059
C30   C     C_R   0.814770 0.494605 0.627392 -0.247671
C31   C     C_R   0.768352 0.496505 0.499958 -0.072284
C32   C     C_R   0.814792 0.495797 0.372493 -0.243369
C33   C     C_R   0.907147 0.495737 0.371549 0.108980
C34   C     C_R   0.953561 0.495536 0.499957 0.063340
Cu1   Cu    Cu3+1 0.500000 0.499980 0.640670 0.965891
Cu2   Cu    Cu3+1 0.500000 0.500020 0.359330 0.955474
H1    H     H_    0.779233 0.492994 0.726005 0.148867
H2    H     H_    0.480168 0.886408 0.272526 0.175243
H3    H     H_    0.506308 0.891516 0.842477 0.228723
H4    H     H_    0.608393 0.894877 0.729425 0.170922
H5    H     H_    0.606359 0.116197 0.731678 0.130090
H6    H     H_    0.368382 0.433522 0.128889 0.139811
H7    H     H_    0.368158 0.434369 0.870287 0.145237
H8    H     H_    0.696882 0.625504 0.877319 0.191766
H9    H     H_    0.592610 0.717197 0.873960 0.216986
H10   H     H_    0.695017 0.629176 0.127045 0.192028
H11   H     H_    0.779275 0.495208 0.273834 0.148831
H12   H     H_    0.590170 0.720823 0.124838 0.217438
H13   H     H_    0.918845 0.496434 0.145191 0.136294
H14   H     H_    0.081203 0.497744 0.145183 0.136597
H15   H     H_    0.220890 0.499268 0.273730 0.147999
H16   H     H_    0.220859 0.497398 0.726265 0.148044
H17   H     H_    0.081146 0.494791 0.854760 0.136684
H18   H     H_    0.918786 0.493383 0.854704 0.136275
H19   H     H_    0.479666 0.111031 0.272079 0.206327
N1    N     N_R   0.500570 0.500930 0.147930 -0.192726
N2    N     N_R   0.500570 0.500890 0.852020 -0.187999
O1    O     O_R   0.500000 0.319640 0.618810 -0.552385
O2    O     O_R   0.500010 0.319680 0.381230 -0.574397
O3    O     O_R   0.370250 0.499950 0.618800 -0.594646
O4    O     O_R   0.370260 0.499990 0.381220 -0.596738
O5    O     O_R   0.499990 0.680320 0.618770 -0.578036
O6    O     O_R   0.500000 0.680360 0.381190 -0.588768
O7    O     O_R   0.629740 0.500010 0.618780 -0.588319
O8    O     O_R   0.629750 0.500050 0.381200 -0.585900
Br1   Br    Br    0.476969 0.141618 0.911410 -0.564435

loop_
_geom_bond_atom_site_label_1
_geom_bond_atom_site_label_2
_ccdc_geom_bond_type
C8    H17   S    
C11   C12   S    
C6    C7    A    
C1    C15   S    
C21   Br1   S    
C24   N1    A    
Cu2   O6    S    
C24   H6    S    
C19   C20   S    
Cu1   N2    S    
C2    C30   A    
Cu2   O2    S    
C32   C33   A    
C27   H9    S    
C23   O6    A    
C17   C18   A    
C3    H13   S    
C16   H19   S    
C5    C10   A    
C29   C31   S    
C22   C28   S    
C1    O1    A    
C24   C25   A    
C12   O4    A    
C11   C13   A    
C28   H10   S    
C26   C27   S    
Cu1   O7    S    
C25   N2    A    
Cu1   O1    S    
C29   O8    A    
C10   H15   S    
C14   C19   A    
C14   C21   S    
C25   H7    S    
C32   H11   S    
C33   C34   A    
Cu1   O5    S    
C17   H2    S    
C1    O2    A    
Cu2   O4    S    
C30   C31   A    
C20   H4    S    
C26   N2    A    
C21   H5    S    
C29   O7    A    
C7    C8    A    
C10   C11   A    
C3    C33   A    
C18   C23   S    
C13   H16   S    
C6    C34   A    
C7    C13   A    
C20   C21   S    
C30   H1    S    
C18   C19   A    
C22   C26   A    
Cu2   N1    S    
C27   C28   S    
C5    C6    A    
C20   H3    S    
Cu2   O8    S    
Cu1   O3    S    
C22   N1    A    
C9    H18   S    
C23   O5    A    
C2    C34   A    
C14   C15   A    
C2    C9    A    
C4    C5    A    
C27   H8    S    
C31   C32   A    
C28   H12   S    
C3    C4    A    
C15   C16   A    
C16   C17   A    
C4    H14   S    
C8    C9    A    
Cu1   Cu2   S    
C12   O3    A    
