data_mof_unit_27582.cif
_audit_creation_date              2012-10-26T17:12:29-0400
_audit_creation_method            fapswitch 2.2
_symmetry_space_group_name_H-M    P1
_symmetry_Int_Tables_number       1
_space_group_crystal_system       triclinic
_cell_length_a                    16.854712
_cell_length_b                    16.792438
_cell_length_c                    16.645029
_cell_angle_alpha                 67.392665
_cell_angle_beta                  67.883955
_cell_angle_gamma                 68.177127
_cell_volume                      3884.55382238

loop_
_atom_site_label
_atom_site_type_symbol
_atom_type_description
_atom_site_fract_x
_atom_site_fract_y
_atom_site_fract_z
_atom_type_partial_charge
C1    C     C_R   0.032011 0.827759 0.563301 0.593573
C2    C     C_R   0.032777 0.563193 0.827489 0.591109
C3    C     C_R   0.169531 0.984172 0.430256 0.589044
C4    C     C_R   0.830470 0.015827 0.569744 0.589049
C5    C     C_R   0.456670 0.096110 0.686766 0.247270
C6    C     C_R   0.543333 0.903889 0.313232 0.247272
C7    C     C_R   0.059686 0.708627 0.449148 0.276315
C8    C     C_R   0.940313 0.291373 0.550852 0.276319
C9    C     C_R   0.735340 0.512157 0.924535 0.239018
C10   C     C_R   0.264676 0.487951 0.075336 0.239033
C11   C     C_R   0.269963 0.074664 0.474302 0.240797
C12   C     C_R   0.967989 0.172241 0.436699 0.593574
C13   C     C_R   0.730039 0.925332 0.525699 0.240799
C14   C     C_R   0.529502 0.318637 0.904200 0.251213
C15   C     C_R   0.470530 0.681312 0.095839 0.251216
C16   C     C_R   0.926065 0.550045 0.297242 0.272228
C17   C     C_R   0.073935 0.449954 0.702758 0.272218
C18   C     C_R   0.546862 0.007757 0.550543 0.027637
C19   C     C_R   0.453140 0.992237 0.449459 0.027637
C20   C     C_R   0.022341 0.543795 0.543038 0.037678
C21   C     C_R   0.977658 0.456205 0.456962 0.037664
C22   C     C_R   0.550793 0.548547 0.004436 0.028352
C23   C     C_R   0.834445 0.571397 0.006651 0.609945
C24   C     C_R   0.449238 0.451476 0.995504 0.028349
C25   C     C_R   0.592847 0.959374 0.485390 -0.012601
C26   C     C_R   0.407154 0.040621 0.514612 -0.012601
C27   C     C_R   0.018497 0.454099 0.584872 -0.003199
C28   C     C_R   0.981502 0.545901 0.415129 -0.003207
C29   C     C_R   0.458120 0.567153 0.046335 -0.015056
C30   C     C_R   0.541920 0.432848 0.953625 -0.015022
C31   C     C_R   0.546123 0.953277 0.433025 -0.014277
C32   C     C_R   0.453879 0.046720 0.566976 -0.014278
C33   C     C_R   0.406897 0.518935 0.041017 -0.011333
C34   C     C_R   0.165560 0.428606 0.993343 0.609918
C35   C     C_R   0.593135 0.481114 0.958887 -0.011335
C36   C     C_R   0.991870 0.411851 0.543717 -0.004388
C37   C     C_R   0.008129 0.588150 0.456284 -0.004386
C38   C     C_R   0.410712 0.090694 0.635578 -0.089583
C39   C     C_R   0.589291 0.909308 0.364419 -0.089581
C40   C     C_R   0.031460 0.669013 0.408866 -0.058972
C41   C     C_R   0.968539 0.330987 0.591135 -0.058980
C42   C     C_R   0.685521 0.465863 0.918126 -0.084852
C43   C     C_R   0.314494 0.534285 0.081677 -0.084831
C44   C     C_R   0.316629 0.085934 0.520982 -0.087780
C45   C     C_R   0.563403 0.032120 0.827701 0.591846
C46   C     C_R   0.683373 0.914062 0.479019 -0.087780
C47   C     C_R   0.579206 0.368965 0.904380 -0.086419
C48   C     C_R   0.420853 0.630944 0.095684 -0.086463
C49   C     C_R   0.949818 0.593193 0.338078 -0.061503
C50   C     C_R   0.050181 0.406807 0.661922 -0.061519
C51   C     C_R   0.548472 0.054725 0.673087 -0.001660
C52   C     C_R   0.451530 0.945271 0.326914 -0.001657
C53   C     C_R   0.050204 0.677381 0.543785 0.026358
C54   C     C_R   0.949795 0.322619 0.456215 0.026357
C55   C     C_R   0.695297 0.573205 0.976648 -0.008538
C56   C     C_R   0.436598 0.967880 0.172298 0.591830
C57   C     C_R   0.304719 0.426830 0.023302 -0.008545
C58   C     C_R   0.311653 0.014132 0.421616 -0.005913
C59   C     C_R   0.688348 0.985864 0.578386 -0.005912
C60   C     C_R   0.440603 0.327763 0.956074 0.001507
C61   C     C_R   0.559409 0.672236 0.043918 0.001501
C62   C     C_R   0.944340 0.455439 0.325509 0.022937
C63   C     C_R   0.055661 0.544561 0.674491 0.022985
C64   C     C_R   0.597662 0.052327 0.727195 0.023582
C65   C     C_R   0.402339 0.947671 0.272806 0.023584
C66   C     C_R   0.054520 0.727440 0.594448 0.022465
C67   C     C_R   0.433053 0.171132 0.976282 0.603062
C68   C     C_R   0.945480 0.272560 0.405552 0.022462
C69   C     C_R   0.743709 0.615286 0.994281 0.047700
C70   C     C_R   0.256300 0.384726 0.005707 0.047684
C71   C     C_R   0.265123 0.983422 0.388096 0.017733
C72   C     C_R   0.734878 0.016575 0.611904 0.017737
C73   C     C_R   0.390880 0.267340 0.972958 0.025377
C74   C     C_R   0.609125 0.732662 0.027044 0.025394
C75   C     C_R   0.943116 0.404964 0.273976 0.023984
C76   C     C_R   0.056884 0.595035 0.726024 0.024022
C77   C     C_R   0.687134 0.052809 0.685629 0.038933
C78   C     C_R   0.566946 0.828868 0.023723 0.603069
C79   C     C_R   0.312868 0.947188 0.314371 0.038936
C80   C     C_R   0.068567 0.682188 0.681284 0.053050
C81   C     C_R   0.931433 0.317812 0.318716 0.053051
C82   C     C_R   0.703051 0.701969 0.002037 0.060043
C83   C     C_R   0.296955 0.298036 0.997972 0.060019
C84   C     C_R   0.594448 0.016749 0.600159 -0.043354
C85   C     C_R   0.405554 0.983246 0.399843 -0.043355
C86   C     C_R   0.041657 0.589117 0.587692 -0.021025
C87   C     C_R   0.958343 0.410883 0.412308 -0.021051
C88   C     C_R   0.601758 0.597949 0.008222 -0.043171
C89   C     C_R   0.967224 0.436806 0.172510 0.591065
C90   C     C_R   0.398262 0.402071 0.991737 -0.043161
Cl1   Cl    Cl    0.398743 0.170862 0.753948 -0.511120
Cl2   Cl    Cl    0.425567 0.736681 0.180060 -0.572847
Cl3   Cl    Cl    0.850454 0.618917 0.231787 -0.533069
Cl4   Cl    Cl    0.149546 0.381082 0.768213 -0.533095
Cl5   Cl    Cl    0.601263 0.829142 0.246046 -0.511114
Cl6   Cl    Cl    0.134053 0.772757 0.372711 -0.585828
Cl7   Cl    Cl    0.865945 0.227243 0.627289 -0.585828
Cl8   Cl    Cl    0.840771 0.508041 0.846130 -0.595213
Cl9   Cl    Cl    0.159242 0.492131 0.153745 -0.595137
Cl10  Cl    Cl    0.168316 0.155244 0.465734 -0.596590
Cl11  Cl    Cl    0.831686 0.844753 0.534267 -0.596564
Cl12  Cl    Cl    0.574486 0.263250 0.819991 -0.572879
Cu1   Cu    Cu3+1 0.995180 0.995180 0.424630 1.125310
Cu2   Cu    Cu3+1 0.004820 0.004820 0.575370 1.125311
Cu3   Cu    Cu3+1 0.995180 0.424630 0.995180 1.125578
Cu4   Cu    Cu3+1 0.004820 0.575370 0.004820 1.125648
Cu5   Cu    Cu3+1 0.424630 0.995180 0.995180 1.073001
Cu6   Cu    Cu3+1 0.575370 0.004820 0.004820 1.073002
H1    H     H_    0.340466 0.122232 0.651596 0.151492
H2    H     H_    0.353701 0.641477 0.138105 0.157825
H3    H     H_    0.935526 0.665366 0.313656 0.147326
H4    H     H_    0.064473 0.334634 0.686344 0.147320
H5    H     H_    0.738971 0.152519 0.656596 0.285164
H6    H     H_    0.684180 0.125266 0.763084 0.308307
H7    H     H_    0.315828 0.874724 0.236921 0.308280
H8    H     H_    0.261023 0.847485 0.343403 0.285164
H9    H     H_    0.142557 0.759027 0.671446 0.229273
H10   H     H_    0.141146 0.673319 0.759736 0.235425
H11   H     H_    0.858863 0.326678 0.240255 0.235438
H12   H     H_    0.659541 0.877773 0.348395 0.151490
H13   H     H_    0.857435 0.240980 0.328556 0.229269
H14   H     H_    0.747758 0.813480 0.922311 0.253206
H15   H     H_    0.753116 0.776909 0.033903 0.305307
H16   H     H_    0.252260 0.186519 0.077703 0.253202
H17   H     H_    0.246874 0.223099 0.966123 0.305300
H18   H     H_    0.038518 0.696525 0.336903 0.151701
H19   H     H_    0.961480 0.303475 0.663098 0.151684
H20   H     H_    0.721714 0.419749 0.878056 0.150942
H21   H     H_    0.278284 0.580549 0.121578 0.150882
H22   H     H_    0.280816 0.134588 0.558306 0.151372
H23   H     H_    0.719186 0.865408 0.441695 0.151373
H24   H     H_    0.646419 0.358270 0.862099 0.157756
N1    N     N_3   0.727845 0.097066 0.711803 -0.519034
N2    N     N_3   0.272158 0.902934 0.288194 -0.519033
N3    N     N_3   0.098581 0.723344 0.722376 -0.554764
N4    N     N_3   0.901419 0.276654 0.277625 -0.554762
N5    N     N_3   0.759754 0.758567 0.977891 -0.568876
N6    N     N_3   0.240250 0.241437 0.022132 -0.568906
O1    O     O_R   0.124540 0.978640 0.385460 -0.455715
O2    O     O_R   0.124540 0.385460 0.978640 -0.450655
O3    O     O_R   0.021360 0.875460 0.614540 -0.498947
O4    O     O_R   0.978640 0.124540 0.385460 -0.498940
O5    O     O_R   0.013780 0.867370 0.487190 -0.428787
O6    O     O_R   0.986220 0.132630 0.512810 -0.428787
O7    O     O_R   0.867370 0.487190 0.013780 -0.499260
O8    O     O_R   0.132630 0.512810 0.986220 -0.499216
O9    O     O_R   0.487190 0.013780 0.867370 -0.475482
O10   O     O_R   0.512810 0.986220 0.132630 -0.475484
O11   O     O_R   0.512810 0.132630 0.986220 -0.480818
O12   O     O_R   0.875460 0.021360 0.614540 -0.455709
O13   O     O_R   0.487190 0.867370 0.013780 -0.480840
O14   O     O_R   0.986220 0.512810 0.132630 -0.430209
O15   O     O_R   0.013780 0.487190 0.867370 -0.430226
O16   O     O_R   0.132630 0.986220 0.512810 -0.495386
O17   O     O_R   0.867370 0.013780 0.487190 -0.495389
O18   O     O_R   0.978640 0.385460 0.124540 -0.502126
O19   O     O_R   0.021360 0.614540 0.875460 -0.502113
O20   O     O_R   0.385460 0.124540 0.978640 -0.502577
O21   O     O_R   0.614540 0.875460 0.021360 -0.502588
O22   O     O_R   0.614540 0.021360 0.875460 -0.502996
O23   O     O_R   0.385460 0.978640 0.124540 -0.503010
O24   O     O_R   0.875460 0.614540 0.021360 -0.450642

loop_
_geom_bond_atom_site_label_1
_geom_bond_atom_site_label_2
_ccdc_geom_bond_type
C25   C31   A    
Cu3   O15   S    
C21   C87   A    
C26   C32   A    
C9    Cl8   S    
C65   C79   A    
C22   C29   A    
C67   O11   A    
C64   C77   A    
C41   H19   S    
C48   H2    S    
C4    O12   A    
C19   C31   A    
C71   C79   A    
C26   C44   A    
Cu6   O21   S    
C22   C35   A    
C23   O7    A    
C16   Cl3   S    
C80   N3    S    
C16   C62   A    
C30   C35   A    
C1    O5    A    
C68   C81   A    
H16   N6    S    
C52   C85   A    
C82   N5    S    
C54   C87   A    
C58   C71   A    
C14   Cl12  S    
H8    N2    S    
C63   C76   A    
C44   H22   S    
C39   H12   S    
C29   C33   A    
C60   C73   A    
Cu2   O12   S    
C55   C88   A    
C35   C42   A    
C19   C26   A    
C23   C69   S    
C69   C82   A    
C15   Cl2   S    
C89   O14   A    
Cu5   O23   S    
C12   O4    A    
C20   C86   A    
C18   C84   A    
C7    C40   A    
Cu2   O6    S    
C53   C86   A    
C9    C55   A    
C22   C88   A    
C57   C70   A    
C11   C58   A    
Cu6   O22   S    
C34   C70   S    
C27   C50   A    
C42   H20   S    
C59   C72   A    
C49   H3    S    
C23   O24   A    
Cu5   O13   S    
C3    O1    A    
C40   H18   S    
H5    N1    S    
C5    C38   A    
C36   C41   A    
C45   O22   A    
C77   N1    S    
C15   C48   A    
C74   C82   A    
Cu6   O10   S    
C78   O13   A    
C15   C61   A    
Cu4   O14   S    
C57   C90   A    
C29   C48   A    
C33   C43   A    
C30   C47   A    
C43   H21   S    
C10   C57   A    
C16   C49   A    
C24   C33   A    
C8    C54   A    
C46   H23   S    
C21   C36   A    
C75   C81   A    
C89   O18   A    
C56   O23   A    
C3    O16   A    
C12   O6    A    
Cu1   O5    S    
C11   Cl10  S    
C56   O10   A    
C3    C71   S    
C8    Cl7   S    
C72   C77   A    
C7    Cl6   S    
C61   C88   A    
Cu1   O1    S    
Cu5   O9    S    
C28   C49   A    
Cu1   O4    S    
Cu5   Cu6   S    
Cu3   O7    S    
Cu3   O18   S    
C50   H4    S    
C1    C66   S    
C9    C42   A    
C11   C44   A    
C5    Cl1   S    
C8    C41   A    
C38   H1    S    
C70   C83   A    
C55   C69   A    
C67   C73   S    
Cu1   O17   S    
H7    N2    S    
C21   C28   A    
C2    O15   A    
C32   C38   A    
Cu2   O3    S    
C63   C86   A    
C61   C74   A    
C62   C75   A    
C18   C32   A    
C7    C53   A    
C13   Cl11  S    
H9    N3    S    
C58   C85   A    
C4    C72   S    
Cu5   O20   S    
C2    C76   S    
C81   N4    S    
Cu3   Cu4   S    
C14   C60   A    
C79   N2    S    
C53   C66   A    
C10   C43   A    
C45   O9    A    
C51   C64   A    
C76   C80   A    
H14   N5    S    
C19   C85   A    
C24   C90   A    
C17   C50   A    
H10   N3    S    
C14   C47   A    
C13   C59   A    
C20   C27   A    
C60   C90   A    
H17   N6    S    
C37   C40   A    
Cu4   O19   S    
C66   C80   A    
C62   C87   A    
H15   N5    S    
C45   C64   S    
C59   C84   A    
Cu4   O8    S    
C47   H24   S    
C27   C36   A    
C6    C52   A    
C12   C68   S    
C18   C25   A    
C17   C63   A    
H11   N4    S    
C20   C37   A    
C34   O8    A    
C13   C46   A    
C28   C37   A    
C2    O19   A    
C51   C84   A    
C34   O2    A    
H6    N1    S    
C31   C39   A    
C67   O20   A    
Cu4   O24   S    
H13   N4    S    
C10   Cl9   S    
C24   C30   A    
C1    O3    A    
C75   C89   S    
Cu6   O11   S    
C78   O21   A    
C4    O17   A    
C54   C68   A    
C6    Cl5   S    
C74   C78   S    
Cu1   Cu2   S    
C6    C39   A    
C5    C51   A    
C17   Cl4   S    
Cu2   O16   S    
C25   C46   A    
C73   C83   A    
C83   N6    S    
C52   C65   A    
C56   C65   S    
Cu3   O2    S    
