data_mof_unit_48230.cif
_audit_creation_date              2012-12-11T17:00:20-0500
_audit_creation_method            fapswitch 2.2
_symmetry_space_group_name_H-M    P1
_symmetry_Int_Tables_number       1
_space_group_crystal_system       triclinic
_cell_length_a                    6.987638
_cell_length_b                    13.659778
_cell_length_c                    20.268378
_cell_angle_alpha                 103.198059
_cell_angle_beta                  90.262366
_cell_angle_gamma                 90.284295
_cell_volume                      1883.45313374

loop_
_atom_site_label
_atom_site_type_symbol
_atom_type_description
_atom_site_fract_x
_atom_site_fract_y
_atom_site_fract_z
_atom_type_partial_charge
O1    O     O_R   0.506770 0.599700 0.449550 -0.554806
O2    O     O_R   0.179980 0.595740 0.587960 -0.534180
O3    O     O_R   0.004580 0.400300 0.550450 -0.556735
C1    C     C_R   0.348064 0.616031 0.615501 0.760893
O4    O     O_R   0.177380 0.611700 0.452380 -0.529278
O5    O     O_R   0.001970 0.416370 0.413900 -0.548281
C2    C     C_R   0.345566 0.635779 0.433956 0.825133
O6    O     O_R   0.509390 0.583630 0.586100 -0.532692
O7    O     O_3   0.337530 0.435890 0.487530 -0.374441
V1    V     V_3+5 0.064660 0.511890 0.502310 1.578076
O8    O     O_R   0.671950 0.404260 0.412040 -0.522195
C3    C     C_R   0.839839 0.383765 0.384642 0.735614
O9    O     O_R   0.674540 0.388300 0.547620 -0.523316
C4    C     C_R   0.843969 0.361900 0.564030 0.799228
V2    V     V_3+5 0.564030 0.488110 0.497690 1.595195
O10   O     O_3   0.841030 0.564110 0.512470 -0.367938
C5    C     C_R   0.014387 0.129113 0.611143 0.710522
H1    H     H_    0.006238 0.182464 0.519857 0.197332
H2    H     H_    0.103562 0.014501 0.694219 0.191774
C6    C     C_R   0.861498 0.283106 0.601629 -0.272893
C7    C     C_R   0.792859 0.306950 0.925631 0.503984
C8    C     C_R   0.781562 0.383505 0.891188 -0.226552
C9    C     C_R   0.821787 0.365178 0.822329 0.663651
C10   C     C_R   0.865906 0.266691 0.785035 -0.075870
C11   C     C_R   0.906737 0.191862 0.822374 -0.128711
C12   C     C_R   0.883521 0.241895 0.712743 -0.070144
C13   C     C_R   0.976058 0.151100 0.680999 -0.151737
C14   C     C_R   0.032184 0.083305 0.718991 -0.151469
C15   C     C_R   0.996996 0.101337 0.788552 0.412924
C16   C     C_R   0.810177 0.302472 0.670091 0.649063
C17   C     C_R   0.964170 0.196896 0.572597 -0.294640
C18   C     C_R   0.860128 0.211988 0.892860 -0.226099
H3    H     H_    0.744644 0.458718 0.918515 0.215970
C19   C     C_R   0.710229 0.252729 0.202499 -0.169688
C20   C     C_R   0.866728 0.189274 0.182664 -0.150039
C21   C     C_R   0.010790 0.189429 0.231276 0.643975
C22   C     C_R   0.002684 0.253785 0.296118 -0.182470
H4    H     H_    0.110220 0.248800 0.333450 0.167264
C23   C     C_R   0.848335 0.318542 0.315389 -0.097363
C24   C     C_R   0.700125 0.315595 0.268182 -0.125354
C25   C     C_3   0.498307 0.283792 0.276531 0.524722
C26   C     C_3   0.509424 0.217671 0.205037 1.074985
C27   C     C_R   0.503717 0.750922 0.705242 -0.093224
C28   C     C_R   0.351279 0.684857 0.683605 -0.076607
C29   C     C_R   0.195447 0.688509 0.728201 -0.058570
H5    H     H_    0.075493 0.637743 0.713868 0.154952
C30   C     C_R   0.198181 0.752936 0.793400 -0.050072
H6    H     H_    0.081825 0.750085 0.827643 0.214061
C31   C     C_R   0.356652 0.815247 0.816108 -0.117586
C32   C     C_R   0.507295 0.813356 0.770488 -0.062343
C33   C     C_3   0.712568 0.791226 0.779951 1.036999
C34   C     C_3   0.710851 0.725889 0.708363 0.080290
H7    H     H_    0.736206 0.644689 0.705324 0.156223
C35   C     C_R   0.275705 0.880684 0.384988 0.581157
H8    H     H_    0.258607 0.005103 0.302083 0.209560
C36   C     C_R   0.350639 0.711357 0.393045 -0.375659
C37   C     C_R   0.372563 0.680491 0.065430 0.625051
C38   C     C_R   0.362605 0.603668 0.100000 -0.174693
C39   C     C_R   0.348463 0.625861 0.170444 -0.180762
C40   C     C_R   0.349823 0.726587 0.208744 0.160381
C41   C     C_R   0.342197 0.804223 0.172438 -0.078268
C42   C     C_R   0.346838 0.753026 0.281490 0.007732
C43   C     C_R   0.302984 0.853959 0.314639 -0.209228
C44   C     C_R   0.288020 0.927730 0.277334 -0.005181
C45   C     C_R   0.313960 0.903708 0.207855 -0.099467
C46   C     C_R   0.390935 0.684362 0.322600 0.226399
C47   C     C_R   0.291655 0.808838 0.423240 0.550486
C48   C     C_R   0.358940 0.780817 0.100947 -0.220383
H9    H     H_    0.326586 0.562619 0.193065 0.204310
H10   H     H_    0.363806 0.526028 0.071964 0.193158
H11   H     H_    0.304631 0.963191 0.181241 0.231216
O11   O     O_R   0.203450 0.916320 0.913910 -0.530221
O12   O     O_R   0.535520 0.888300 0.047620 -0.536464
O13   O     O_R   0.710860 0.083650 0.086100 -0.522367
C49   C     C_R   0.366758 0.860226 0.062803 0.772838
O14   O     O_R   0.532860 0.904250 0.912040 -0.515981
O15   O     O_R   0.708190 0.099710 0.949550 -0.546504
C50   C     C_R   0.364175 0.881781 0.885166 0.751398
O16   O     O_R   0.206120 0.900260 0.050460 -0.552738
O17   O     O_3   0.375280 0.064080 0.012470 -0.356718
V3    V     V_3+5 0.648180 0.988110 0.997690 1.690257
O18   O     O_R   0.038220 0.111740 0.952370 -0.531447
C51   C     C_R   0.869760 0.135157 0.933253 0.897979
O19   O     O_R   0.040880 0.095790 0.087940 -0.507556
C52   C     C_R   0.872728 0.117809 0.115061 0.800311
V4    V     V_3+5 0.148800 0.011950 0.002300 1.677321
O20   O     O_3   0.871820 0.935920 0.987530 -0.376434
O21   O     O_3   0.367341 0.363584 0.285128 -0.636962
H12   H     H_    0.389911 0.400817 0.249138 0.310146
O22   O     O_3   0.485588 0.231442 0.328697 -0.620299
H13   H     H_    0.390495 0.176682 0.314938 0.331275
F1    F     F_    0.393392 0.247124 0.157564 -0.666196
F2    F     F_    0.501675 0.115425 0.201704 -0.698913
F3    F     F_    0.738670 0.736937 0.829233 -0.673990
F4    F     F_    0.825904 0.876211 0.789100 -0.703885
O23   O     O_3   0.823008 0.764043 0.662197 -0.608717
H14   H     H_    0.780551 0.833433 0.662396 0.344392
F5    F     F_    0.253180 0.834907 0.490617 -0.588620
F6    F     F_    0.227581 0.976105 0.416599 -0.614258
O24   O     O_3   0.482609 0.595507 0.293775 -0.647814
H15   H     H_    0.529177 0.561708 0.328813 0.306541
F7    F     F_    0.388628 0.656915 0.996876 -0.661214
F8    F     F_    0.108255 0.044042 0.580618 -0.586442
F9    F     F_    0.681473 0.376569 0.692425 -0.634339
F10   F     F_    0.748373 0.327196 0.992548 -0.659282
F11   F     F_    0.840430 0.447003 0.795513 -0.602995
O25   O     O_3   0.061809 0.033494 0.824340 -0.618653
H16   H     H_    0.135348 0.979625 0.794062 0.308009
F12   F     F_    0.147284 0.118802 0.218741 -0.704810

loop_
_geom_bond_atom_site_label_1
_geom_bond_atom_site_label_2
_ccdc_geom_bond_type
C26   F2    S    
C25   C26   S    
C20   C21   A    
C19   C26   S    
C1    O6    A    
O22   H13   S    
C30   C31   A    
C6    C16   A    
C29   H5    S    
C28   C29   A    
C48   C49   S    
C37   F7    S    
C12   C13   A    
C42   C43   A    
C19   C24   A    
C21   C22   A    
O14   C50   A    
O5    C3    A    
C27   C34   S    
C35   C43   A    
O15   C51   A    
V2    O10   S    
C31   C50   S    
C40   C42   A    
C19   C20   A    
C46   O24   S    
C25   O21   S    
O17   V4    S    
C47   F5    S    
O8    V2    S    
O11   C50   A    
O25   H16   S    
O1    V2    S    
O7    V1    S    
C11   C18   A    
C25   O22   S    
C39   C40   A    
O9    C4    A    
O23   H14   S    
O12   C49   A    
C2    C36   S    
C8    H3    S    
O12   V3    S    
C29   C30   A    
C11   C15   A    
C7    C18   A    
C42   C46   A    
C33   C34   S    
C5    C13   A    
C4    C6    S    
C10   C11   A    
C23   C24   A    
O4    C2    A    
V4    O20   S    
C38   H10   S    
C35   C47   A    
C1    C28   S    
C38   C39   A    
C45   H11   S    
C9    F11   S    
C40   C41   A    
O2    C1    A    
C27   C28   A    
C22   H4    S    
C30   H6    S    
O15   V3    S    
C9    C10   A    
H8    C44   S    
C32   C33   S    
O19   C52   A    
H2    C14   S    
V3    O20   S    
O3    C4    A    
C39   H9    S    
C24   C25   S    
C12   C16   A    
O6    V2    S    
O9    V2    S    
C5    C17   A    
C31   C32   A    
C35   F6    S    
C37   C48   A    
O2    V1    S    
C13   C14   A    
C34   H7    S    
C18   C51   S    
C14   C15   A    
O1    C2    A    
C15   O25   S    
C10   C12   A    
O17   V3    S    
O14   V3    S    
O5    V1    S    
O11   V4    S    
O8    C3    A    
C27   C32   A    
C36   C47   A    
C44   C45   A    
C3    C23   S    
O7    V2    S    
O4    V1    S    
C22   C23   A    
O3    V1    S    
V1    O10   S    
O18   V4    S    
C20   C52   S    
C41   C48   A    
C37   C38   A    
C36   C46   A    
O24   H15   S    
C34   O23   S    
C26   F1    S    
O13   C52   A    
C5    F8    S    
C33   F3    S    
C43   C44   A    
C41   C45   A    
O21   H12   S    
O18   C51   A    
C16   F9    S    
C21   F12   S    
C8    C9    A    
O19   V4    S    
H1    C17   S    
O13   V3    S    
C7    C8    A    
C49   O16   A    
O16   V4    S    
C7    F10   S    
C33   F4    S    
C6    C17   A    
