data_mof_unit_27138.cif
_audit_creation_date              2012-12-10T16:57:16-0500
_audit_creation_method            fapswitch 2.2
_symmetry_space_group_name_H-M    P1
_symmetry_Int_Tables_number       1
_space_group_crystal_system       triclinic
_cell_length_a                    15.849611
_cell_length_b                    10.959634
_cell_length_c                    9.987151
_cell_angle_alpha                 90.435404
_cell_angle_beta                  91.496266
_cell_angle_gamma                 93.268619
_cell_volume                      1731.34283471

loop_
_atom_site_label
_atom_site_type_symbol
_atom_type_description
_atom_site_fract_x
_atom_site_fract_y
_atom_site_fract_z
_atom_type_partial_charge
C1    C     C_R   0.492261 0.267259 0.498955 0.770764
C2    C     C_3   0.950289 0.417127 0.616064 0.230218
C3    C     C_3   0.915707 0.490701 0.493672 -0.024619
C4    C     C_3   0.958190 0.624548 0.511839 0.243184
C5    C     C_3   0.055172 0.627099 0.488872 0.217417
C6    C     C_1   0.823706 0.491864 0.498432 0.022353
C7    C     C_1   0.175070 0.491580 0.489343 0.028966
C8    C     C_1   0.250879 0.493813 0.493655 -0.141211
C9    C     C_2   0.458451 0.930649 0.407164 -0.217149
C10   C     C_2   0.480568 0.866687 0.515220 0.344079
C11   C     C_2   0.478517 0.063403 0.402176 -0.214315
C12   C     C_R   0.340838 0.497952 0.498367 0.808179
C13   C     C_2   0.457365 0.142612 0.496942 0.228025
C14   C     C_2   0.453767 0.426354 0.922092 -0.002878
C15   C     C_2   0.448664 0.431365 0.074552 0.608194
C16   C     C_R   0.493991 0.733829 0.502403 0.646195
C17   C     C_R   0.658919 0.498696 0.500997 0.789181
C18   C     C_3   0.048839 0.424672 0.614081 -0.471145
C19   C     C_3   0.042719 0.427136 0.358922 0.113311
C20   C     C_3   0.944731 0.421168 0.365573 0.039478
C21   C     C_1   0.748312 0.494529 0.501453 -0.174196
C22   C     C_3   0.082556 0.492018 0.487165 0.016349
Cu1   Cu    Cu3+1 0.500020 0.500020 0.638630 0.962276
Cu2   Cu    Cu3+1 0.499980 0.499980 0.361370 0.993674
H1    H     H_    0.074367 0.474162 0.705528 0.135106
H2    H     H_    0.932567 0.462064 0.711261 0.079171
H3    H     H_    0.441542 0.884283 0.313663 0.133415
H4    H     H_    0.521355 0.094698 0.324941 0.129159
H5    H     H_    0.415150 0.354761 0.870918 0.111137
H6    H     H_    0.072858 0.331303 0.619029 0.265311
H7    H     H_    0.062667 0.479155 0.268949 0.205813
H8    H     H_    0.922580 0.323783 0.375270 0.243447
H9    H     H_    0.087060 0.676594 0.576507 0.062149
H10   H     H_    0.954975 0.642758 0.621431 0.080068
N1    N     N_2   0.499090 0.498660 0.846910 -0.007275
N2    N     N_2   0.499070 0.498630 0.153040 -0.013493
O1    O     O_R   0.500010 0.321960 0.617040 -0.555819
O2    O     O_R   0.499990 0.321920 0.382900 -0.587904
O3    O     O_R   0.379450 0.500030 0.617120 -0.573335
O4    O     O_R   0.379420 0.499980 0.382980 -0.535223
O5    O     O_R   0.500010 0.678080 0.617100 -0.585151
O6    O     O_R   0.499990 0.678040 0.382960 -0.622254
O7    O     O_R   0.620580 0.500020 0.617020 -0.607883
O8    O     O_R   0.620550 0.499970 0.382880 -0.563633
O9    O     O_3   0.920803 0.291808 0.610001 -0.577177
C23   C     C_3   0.857317 0.263447 0.703805 0.063728
H11   H     H_    0.819724 0.181097 0.665993 0.172639
H12   H     H_    0.811981 0.336677 0.712754 0.134701
C24   C     C_3   0.896705 0.233869 0.840785 -0.346194
H13   H     H_    0.938493 0.156552 0.829675 0.234677
H14   H     H_    0.935677 0.314183 0.880524 0.238718
C25   C     C_3   0.828690 0.199354 0.941311 -0.846937
H15   H     H_    0.786535 0.275892 0.954639 0.272840
H16   H     H_    0.859017 0.179640 0.039665 0.286035
H17   H     H_    0.790385 0.116617 0.906345 0.237518
O10   O     O_3   0.916174 0.727500 0.462451 -0.601187
C26   C     C_3   0.891410 0.722886 0.326058 0.159175
H18   H     H_    0.832518 0.664075 0.312338 0.170945
H19   H     H_    0.941576 0.690999 0.261769 0.233695
C27   C     C_3   0.871511 0.851705 0.282111 -0.346612
H20   H     H_    0.817038 0.882434 0.338920 0.220386
H21   H     H_    0.926858 0.915939 0.304839 0.245075
C28   C     C_3   0.850104 0.856066 0.132484 -0.926660
H22   H     H_    0.904721 0.829589 0.073462 0.271328
H23   H     H_    0.834697 0.950238 0.104694 0.264545
H24   H     H_    0.794597 0.793259 0.107415 0.246411
O11   O     O_3   0.499753 0.931848 0.634497 -0.595295
C29   C     C_3   0.465251 0.880477 0.753373 0.151441
H25   H     H_    0.468043 0.954773 0.829838 0.150155
H26   H     H_    0.507971 0.813855 0.795148 0.162565
C30   C     C_3   0.371991 0.828062 0.743819 -0.349896
H27   H     H_    0.328328 0.902347 0.731865 0.249152
H28   H     H_    0.359703 0.764803 0.657608 0.205441
C31   C     C_3   0.347702 0.759499 0.870884 -0.891937
H29   H     H_    0.382056 0.674608 0.878899 0.296124
H30   H     H_    0.278845 0.734035 0.867270 0.251686
H31   H     H_    0.362598 0.817280 0.961146 0.241595
Br1   Br    Br    0.363731 0.115515 0.612468 -0.603094
O12   O     O_3   0.534413 0.602407 0.900266 -0.544222
C32   C     C_3   0.617682 0.629623 0.851743 0.278650
H32   H     H_    0.642572 0.715235 0.901453 0.064913
H33   H     H_    0.617670 0.662879 0.748995 0.162485
C33   C     C_3   0.684405 0.533243 0.880502 -0.324838
H34   H     H_    0.691178 0.510168 0.987105 0.255715
H35   H     H_    0.667767 0.444972 0.829065 0.227892
C34   C     C_3   0.772268 0.582833 0.841225 -0.951776
H36   H     H_    0.772253 0.612719 0.735669 0.260830
H37   H     H_    0.818418 0.511546 0.856099 0.271278
H38   H     H_    0.793037 0.662538 0.905529 0.264137
O13   O     O_3   0.379964 0.370954 0.133136 -0.615549
C35   C     C_3   0.379795 0.243171 0.110771 0.010901
H39   H     H_    0.384232 0.198311 0.209746 0.191992
H40   H     H_    0.434041 0.212739 0.052140 0.105057
C36   C     C_3   0.296112 0.198532 0.042363 -0.306410
H41   H     H_    0.243362 0.213559 0.110717 0.258248
H42   H     H_    0.285518 0.251395 0.949546 0.230484
C37   C     C_3   0.295895 0.063127 0.006131 -0.897841
H43   H     H_    0.345050 0.048302 0.931650 0.275597
H44   H     H_    0.233341 0.031873 0.961783 0.271819
H45   H     H_    0.308779 0.008103 0.096481 0.239829
O14   O     O_3   0.575638 0.535920 0.109008 -0.536945
C38   C     C_3   0.601959 0.656922 0.157166 0.322274
H46   H     H_    0.664576 0.679574 0.114879 0.074723
H47   H     H_    0.619728 0.663306 0.262841 0.163654
C39   C     C_3   0.544810 0.763347 0.121753 -0.380016
H48   H     H_    0.532576 0.776335 0.014831 0.228977
H49   H     H_    0.481395 0.748467 0.163896 0.226870
C40   C     C_3   0.588132 0.885095 0.168080 -0.997707
H50   H     H_    0.603356 0.884395 0.277130 0.270018
H51   H     H_    0.546299 0.960336 0.144634 0.258288
H52   H     H_    0.647879 0.902855 0.113925 0.262569
Br2   Br    Br    0.083110 0.263626 0.331500 -0.560876
Br3   Br    Br    0.891222 0.455656 0.192735 -0.638232
O15   O     O_3   0.074417 0.685192 0.365723 -0.606315
C41   C     C_3   0.148875 0.762570 0.374184 0.050974
H53   H     H_    0.178019 0.762278 0.274199 0.171783
H54   H     H_    0.197221 0.730754 0.446675 0.113211
C42   C     C_3   0.127611 0.893127 0.408864 -0.334878
H55   H     H_    0.078698 0.924009 0.337159 0.248946
H56   H     H_    0.102368 0.895932 0.511532 0.226143
C43   C     C_3   0.206060 0.979535 0.402190 -0.808710
H57   H     H_    0.258984 0.941993 0.460597 0.264367
H58   H     H_    0.192702 0.070068 0.444533 0.314723
H59   H     H_    0.225006 0.991348 0.296726 0.252250

loop_
_geom_bond_atom_site_label_1
_geom_bond_atom_site_label_2
_ccdc_geom_bond_type
C28   H23   S    
O14   C38   S    
C5    O15   S    
C2    C18   S    
Cu2   O6    S    
C19   C20   S    
C3    C6    S    
C19   H7    S    
O15   C41   S    
O13   C35   S    
C7    C8    T    
C10   O11   S    
C40   H50   S    
C39   H49   S    
C23   C24   S    
Cu2   N2    S    
C31   H30   S    
C27   C28   S    
C20   Br3   S    
C34   H37   S    
C26   H19   S    
C41   H53   S    
Cu1   O7    S    
O10   C26   S    
C38   C39   S    
C27   H21   S    
C42   H55   S    
C43   H59   S    
C13   Br1   S    
C5    C22   S    
C29   H25   S    
C41   H54   S    
C31   H31   S    
C5    H9    S    
Cu2   O2    S    
Cu1   Cu2   S    
C18   H6    S    
C9    C10   D    
C25   H17   S    
C1    O1    A    
C41   C42   S    
C28   H24   S    
C4    O10   S    
C38   H46   S    
C18   H1    S    
C32   C33   S    
C37   H44   S    
C25   H16   S    
C37   H43   S    
C23   H12   S    
C2    O9    S    
C39   C40   S    
C4    H10   S    
C31   H29   S    
O11   C29   S    
C19   C22   S    
C32   H33   S    
C35   H39   S    
C30   H28   S    
C34   H36   S    
C32   H32   S    
C26   C27   S    
C36   C37   S    
C24   H14   S    
O9    C23   S    
C6    C21   T    
C17   C21   S    
C28   H22   S    
N2    O14   S    
C42   C43   S    
C12   O4    A    
C38   H47   S    
C17   O7    A    
C35   H40   S    
C33   H34   S    
C8    C12   S    
C24   C25   S    
C3    C20   S    
C2    H2    S    
C19   Br2   S    
C36   H42   S    
C9    C11   S    
C43   H57   S    
C1    O2    A    
C33   H35   S    
Cu1   N1    S    
Cu2   O8    S    
C1    C13   S    
C14   H5    S    
C3    C4    S    
C16   O6    A    
C15   N2    D    
C14   N1    D    
C37   H45   S    
C25   H15   S    
C9    H3    S    
C20   H8    S    
C23   H11   S    
C18   C22   S    
C4    C5    S    
C34   H38   S    
C30   C31   S    
C7    C22   S    
C39   H48   S    
Cu1   O5    S    
C40   H52   S    
C12   O3    A    
C2    C3    S    
C17   O8    A    
C30   H27   S    
Cu1   O1    S    
C35   C36   S    
C11   C13   D    
C26   H18   S    
C11   H4    S    
C29   C30   S    
Cu1   O3    S    
N1    O12   S    
Cu2   O4    S    
C40   H51   S    
C36   H41   S    
C42   H56   S    
C43   H58   S    
O12   C32   S    
C33   C34   S    
C29   H26   S    
C24   H13   S    
C14   C15   S    
C27   H20   S    
C10   C16   S    
C16   O5    A    
C15   O13   S    
