data_mof_unit_17685.cif
_audit_creation_date              2013-03-05T16:13:23-0500
_audit_creation_method            fapswitch 2.2
_symmetry_space_group_name_H-M    P1
_symmetry_Int_Tables_number       1
_space_group_crystal_system       triclinic
_cell_length_a                    10.837517
_cell_length_b                    9.923664
_cell_length_c                    19.260304
_cell_angle_alpha                 88.923578
_cell_angle_beta                  93.082555
_cell_angle_gamma                 87.240577
_cell_volume                      2065.53483267

loop_
_atom_site_label
_atom_site_type_symbol
_atom_site_description
_atom_site_fract_x
_atom_site_fract_y
_atom_site_fract_z
_atom_type_partial_charge
O1    O     O_R   0.316770 0.614620 0.500000 -0.662724
O2    O     O_R   0.683230 0.385380 0.500000 -0.662710
O3    O     O_R   0.683230 0.614620 0.500000 -0.640374
O4    O     O_R   0.316770 0.385380 0.500000 -0.644568
C1    C     C_R   0.872862 0.491362 0.494195 -0.218232
C2    C     C_R   0.127176 0.509586 0.506231 -0.223401
C3    C     C_R   0.260092 0.503325 0.501503 0.808325
C4    C     C_R   0.739854 0.496812 0.498249 0.809407
O5    O     O_R   0.500030 0.614710 0.398180 -0.640215
O6    O     O_R   0.499970 0.385290 0.601820 -0.640006
O7    O     O_R   0.499970 0.614710 0.601820 -0.634657
O8    O     O_R   0.500030 0.385290 0.398180 -0.582446
C5    C     C_R   0.499789 0.500945 0.366364 0.837194
C6    C     C_R   0.499000 0.499184 0.633746 0.834047
Zn1   Zn    Zn3+2 0.500000 0.653120 0.500000 0.942195
Zn2   Zn    Zn3+2 0.500000 0.346880 0.500000 0.955141
C7    C     C_R   0.073416 0.400201 0.539045 -0.070294
C8    C     C_R   0.926625 0.601823 0.462147 -0.048213
C9    C     C_R   0.946021 0.388101 0.530585 -0.038759
C10   C     C_R   0.053957 0.613825 0.470731 -0.006227
C11   C     C_R   0.593057 0.448688 0.751659 -0.140787
C12   C     C_R   0.600635 0.485683 0.254999 -0.097967
C13   C     C_R   0.373252 0.522088 0.256317 -0.112999
C14   C     C_R   0.380887 0.551635 0.736798 -0.124166
C15   C     C_R   0.584370 0.450973 0.824061 0.429693
C16   C     C_R   0.591301 0.489400 0.182096 0.435155
C17   C     C_R   0.365678 0.525076 0.183310 0.449163
C18   C     C_R   0.372028 0.548058 0.809091 0.431630
C19   C     C_R   0.473945 0.499493 0.851787 -0.067375
C20   C     C_R   0.474393 0.509000 0.147277 -0.085633
C21   C     C_R   0.568378 0.066355 0.549611 -0.030497
C22   C     C_R   0.432588 0.933565 0.449490 -0.052260
C23   C     C_R   0.431839 0.078057 0.450074 0.043881
C24   C     C_R   0.575870 0.922510 0.546403 0.036141
C25   C     C_R   0.490645 0.498607 0.708633 -0.270221
C26   C     C_R   0.491233 0.502711 0.291237 -0.242338
C27   C     C_R   0.487522 0.626296 0.961337 -0.075503
C28   C     C_R   0.441948 0.386768 0.037150 -0.082329
C29   C     C_R   0.486055 0.629005 0.034123 -0.072841
C30   C     C_R   0.441336 0.384673 0.964258 -0.070434
N1    N     N_R   0.500000 0.857200 0.500000 -0.179382
N2    N     N_R   0.500000 0.142800 0.500000 -0.181101
C31   C     C_R   0.465797 0.508604 0.071379 0.153925
C32   C     C_R   0.466501 0.503757 0.927188 0.150478
C33   C     C_2   0.629437 0.133915 0.608743 0.565468
H1    H     H_    0.667750 0.230393 0.601339 0.084318
O9    O     O_2   0.634824 0.083264 0.667180 -0.490422
C34   C     C_2   0.364994 0.863672 0.393071 0.494390
H2    H     H_    0.330805 0.766059 0.402603 0.106604
O10   O     O_2   0.350465 0.911378 0.334190 -0.456507
C35   C     C_2   0.349640 0.159722 0.400487 0.581579
H3    H     H_    0.262394 0.202805 0.416841 0.054447
O11   O     O_2   0.378280 0.178089 0.340722 -0.481753
C36   C     C_2   0.677125 0.845430 0.587003 0.567961
H4    H     H_    0.664613 0.748127 0.610010 0.102351
O12   O     O_2   0.779998 0.890271 0.593718 -0.510356
C37   C     C_2   0.151288 0.300507 0.583703 0.580683
H5    H     H_    0.221580 0.335707 0.620326 0.048734
O13   O     O_2   0.142311 0.179145 0.577089 -0.521097
C38   C     C_2   0.848743 0.703965 0.418948 0.622946
H6    H     H_    0.777452 0.671043 0.382383 0.051819
O14   O     O_2   0.858214 0.824870 0.427127 -0.513157
C39   C     C_2   0.891008 0.267726 0.560609 0.489302
H7    H     H_    0.838637 0.202002 0.527079 0.091747
O15   O     O_2   0.906080 0.239902 0.622599 -0.480034
C40   C     C_2   0.108591 0.736272 0.442793 0.473487
H8    H     H_    0.161132 0.799697 0.477511 0.078534
O16   O     O_2   0.093062 0.768468 0.381323 -0.488161
C41   C     C_2   0.709878 0.401953 0.720159 0.610554
H9    H     H_    0.732421 0.441645 0.669758 0.001989
O17   O     O_2   0.780559 0.316223 0.748804 -0.394453
C42   C     C_2   0.722546 0.461145 0.294231 0.502634
H10   H     H_    0.727085 0.415765 0.346018 0.033884
O18   O     O_2   0.818906 0.494855 0.270552 -0.451221
C43   C     C_2   0.259867 0.534772 0.297155 0.599035
H11   H     H_    0.262085 0.497681 0.350514 -0.001922
O19   O     O_2   0.163279 0.588798 0.272727 -0.404008
C44   C     C_2   0.276337 0.608890 0.690126 0.573627
H12   H     H_    0.262824 0.572809 0.637865 -0.003893
O20   O     O_2   0.206919 0.700412 0.708410 -0.447813
Cl1   Cl    Cl    0.712915 0.402424 0.881608 -0.406145
Cl2   Cl    Cl    0.723248 0.460003 0.132702 -0.394973
Cl3   Cl    Cl    0.221446 0.543091 0.134992 -0.388251
Cl4   Cl    Cl    0.232306 0.597635 0.847692 -0.413789
C45   C     C_2   0.507708 0.753340 0.921430 0.480217
H13   H     H_    0.471743 0.849602 0.939534 0.066954
O21   O     O_2   0.566893 0.752660 0.869257 -0.503411
C46   C     C_2   0.413571 0.261917 0.076747 0.473277
H14   H     H_    0.348320 0.193022 0.054449 0.092231
O22   O     O_2   0.464259 0.232803 0.133545 -0.491006
C47   C     C_2   0.512557 0.756625 0.070971 0.457769
H15   H     H_    0.575581 0.826412 0.049828 0.086209
O23   O     O_2   0.462510 0.786846 0.124187 -0.488144
C48   C     C_2   0.420614 0.255584 0.927538 0.480608
H16   H     H_    0.452380 0.159859 0.952000 0.058802
O24   O     O_2   0.365774 0.254243 0.870522 -0.499356

loop_
_geom_bond_atom_site_label_1
_geom_bond_atom_site_label_2
_geom_bond_distance
_ccdc_geom_bond_type
C40   O16   1.221170 D    
C39   O15   1.220957 D    
C21   N2    1.371191 A    
C18   Cl4   1.775044 S    
C45   H13   1.085050 S    
C23   N2    1.369544 A    
C10   C40   1.481759 S    
C18   C19   1.401657 A    
O7    C6    1.291479 A    
C44   O20   1.220495 D    
C37   O13   1.221424 D    
C38   O14   1.221527 D    
C27   C45   1.495440 S    
C29   C47   1.495652 S    
C41   O17   1.220283 D    
O5    C5    1.294673 A    
O7    Zn1   1.990763 S    
O8    Zn2   1.990762 S    
C9    C39   1.482072 S    
C22   N1    1.377317 A    
O1    Zn1   2.040162 S    
C13   C17   1.403783 A    
O2    Zn2   2.040161 S    
C34   O10   1.220032 D    
C40   H8    1.084852 S    
C16   Cl2   1.775266 S    
C17   C20   1.403302 A    
C15   Cl1   1.774988 S    
C22   C34   1.479902 S    
C48   H16   1.084957 S    
C24   N1    1.374386 A    
O4    C3    1.296937 A    
C12   C42   1.493524 S    
C33   O9    1.221350 D    
C15   C19   1.404312 A    
C36   O12   1.221535 D    
C14   C25   1.416319 A    
C45   O21   1.220809 D    
C35   H3    1.083611 S    
Zn1   N1    2.025221 S    
C5    C26   1.444686 S    
C42   O18   1.220490 D    
O3    C4    1.295807 A    
O6    C6    1.296672 A    
C30   C48   1.495430 S    
C6    C25   1.449955 S    
C44   H12   1.079598 S    
C29   C31   1.414454 A    
C1    C8    1.413095 A    
C33   H1    1.071864 S    
C11   C41   1.490880 S    
C38   H6    1.083543 S    
C35   O11   1.220885 D    
O4    Zn2   2.004036 S    
C43   H11   1.083756 S    
C47   O23   1.220786 D    
C21   C24   1.428554 A    
C46   H14   1.084839 S    
C48   O24   1.220842 D    
C43   O19   1.219856 D    
C1    C9    1.415968 A    
C8    C38   1.497507 S    
C34   H2    1.069830 S    
C46   O22   1.220723 D    
C24   C36   1.484985 S    
C19   C32   1.460100 S    
C12   C16   1.401990 A    
C20   C31   1.459865 S    
Zn2   N2    2.025221 S    
C47   H15   1.084813 S    
O3    Zn1   2.004035 S    
C14   C44   1.491297 S    
C2    C7    1.411350 A    
C11   C15   1.403238 A    
C36   H4    1.072440 S    
O1    C3    1.289959 A    
O2    C4    1.291010 A    
C14   C18   1.400748 A    
C13   C43   1.495739 S    
C42   H10   1.084350 S    
C1    C4    1.446248 S    
C16   C20   1.404579 A    
C2    C3    1.446665 S    
C11   C25   1.413047 A    
C23   C35   1.473896 S    
C12   C26   1.412664 A    
C22   C23   1.433783 A    
C27   C32   1.415576 A    
C17   Cl3   1.775315 S    
O5    Zn1   2.004815 S    
C28   C31   1.415965 A    
C27   C29   1.403561 A    
O6    Zn2   2.004814 S    
C28   C30   1.404144 A    
C37   H5    1.084887 S    
C2    C10   1.415360 A    
C7    C9    1.392717 A    
C8    C10   1.392075 A    
C41   H9    1.085158 S    
C39   H7    1.084729 S    
C30   C32   1.414554 A    
O8    C5    1.290688 A    
C13   C26   1.415334 A    
C21   C33   1.474730 S    
C28   C46   1.495891 S    
C7    C37   1.496796 S    
