data_mof_unit_5587.cif
_audit_creation_date              2012-12-10T19:00:14-0500
_audit_creation_method            fapswitch 2.2
_symmetry_space_group_name_H-M    P1
_symmetry_Int_Tables_number       1
_space_group_crystal_system       triclinic
_cell_length_a                    9.536113
_cell_length_b                    10.861569
_cell_length_c                    13.456122
_cell_angle_alpha                 90.564442
_cell_angle_beta                  72.2901
_cell_angle_gamma                 90.436705
_cell_volume                      1327.61553761

loop_
_atom_site_label
_atom_site_type_symbol
_atom_type_description
_atom_site_fract_x
_atom_site_fract_y
_atom_site_fract_z
_atom_type_partial_charge
C1    C     C_R   0.502547 0.737852 0.497340 0.811072
C2    C     C_R   0.434241 0.488232 0.979229 0.085340
C3    C     C_R   0.469822 0.456699 0.871830 0.083160
C4    C     C_R   0.542763 0.472117 0.030914 0.080837
C5    C     C_R   0.678838 0.415377 0.977361 0.157742
C6    C     C_R   0.704087 0.372078 0.875820 -0.236274
C7    C     C_R   0.600204 0.390247 0.824486 -0.195602
C8    C     C_R   0.520734 0.510962 0.134261 -0.243019
C9    C     C_R   0.759361 0.434077 0.130985 -0.172619
C10   C     C_R   0.372875 0.491238 0.815113 -0.100671
C11   C     C_R   0.396144 0.935572 0.468592 0.131510
C12   C     C_R   0.421095 0.494252 0.700156 0.777124
C13   C     C_R   0.512457 0.871323 0.486721 -0.190484
C14   C     C_R   0.637363 0.940077 0.493524 -0.010849
C15   C     C_R   0.629098 0.068012 0.499854 -0.217365
C16   C     C_R   0.503980 0.129744 0.493049 -0.120321
C17   C     C_R   0.392606 0.062283 0.470382 0.125373
C18   C     C_3   0.229691 0.065069 0.520200 -0.438191
C19   C     C_3   0.233602 0.925189 0.518084 -0.455118
C20   C     C_R   0.948468 0.410751 0.446656 0.236357
C21   C     C_R   0.899775 0.579215 0.561545 -0.028569
C22   C     C_R   0.048816 0.579472 0.561360 -0.079508
C23   C     C_R   0.499607 0.262521 0.499975 0.821726
C24   C     C_R   0.096121 0.411321 0.446482 0.215706
C25   C     C_3   0.151828 0.387339 0.332229 -0.495283
C26   C     C_3   0.993125 0.386181 0.331853 -0.083334
C27   C     C_R   0.578904 0.499355 0.299818 0.819079
C28   C     C_R   0.787168 0.399676 0.026962 -0.184610
C29   C     C_R   0.623802 0.485718 0.186034 -0.052078
C30   C     C_R   0.232241 0.535693 0.868939 -0.191848
C31   C     C_R   0.190785 0.553308 0.976168 -0.140860
C32   C     C_R   0.290981 0.532972 0.030713 -0.161690
Cu1   Cu    Cu3+1 0.359330 0.500020 0.500010 0.948347
Cu2   Cu    Cu3+1 0.640670 0.499980 0.499990 0.979734
H1    H     H_    0.841392 0.415732 0.169036 0.172024
H2    H     H_    0.720581 0.119185 0.512142 0.196882
H3    H     H_    0.197536 0.104895 0.600389 0.200436
H4    H     H_    0.171421 0.104104 0.467674 0.218010
H5    H     H_    0.203431 0.883808 0.597114 0.192295
H6    H     H_    0.178148 0.883661 0.464040 0.221380
H7    H     H_    0.823527 0.644614 0.610001 0.154498
H8    H     H_    0.084686 0.645485 0.609366 0.130812
H9    H     H_    0.214313 0.466403 0.288636 0.194350
H10   H     H_    0.208449 0.297128 0.313902 0.219864
H11   H     H_    0.967610 0.464271 0.287655 0.161502
H12   H     H_    0.804630 0.323503 0.835816 0.151005
H13   H     H_    0.891660 0.357271 0.986222 0.149868
H14   H     H_    0.423471 0.560336 0.177096 0.140282
H15   H     H_    0.155086 0.560164 0.827727 0.154638
H16   H     H_    0.251462 0.550806 0.113358 0.124735
H17   H     H_    0.081647 0.587042 0.016941 0.151658
H18   H     H_    0.622527 0.348445 0.748135 0.174368
N1    N     N_R   0.852320 0.499070 0.499340 -0.196809
N2    N     N_R   0.148230 0.499110 0.499340 -0.182282
O1    O     O_R   0.381190 0.680360 0.500000 -0.580049
O2    O     O_R   0.618780 0.680320 0.499990 -0.557625
O3    O     O_R   0.323230 0.500000 0.650990 -0.585149
O4    O     O_R   0.560820 0.499960 0.650980 -0.590832
O5    O     O_R   0.381220 0.319680 0.500010 -0.581415
O6    O     O_R   0.618810 0.319640 0.500000 -0.577086
O7    O     O_R   0.439180 0.500040 0.349020 -0.585621
O8    O     O_R   0.676770 0.500000 0.349010 -0.570995
I1    I     I_    0.925231 0.208022 0.293873 -0.405961
C33   C     C_2   0.775973 0.885461 0.499679 0.875744
O9    O     O_2   0.852316 0.823913 0.426952 -0.576365
O10   O     O_R   0.822859 0.910452 0.586642 -0.783393
H19   H     H_    0.919127 0.868657 0.582337 0.314418

loop_
_geom_bond_atom_site_label_1
_geom_bond_atom_site_label_2
_ccdc_geom_bond_type
C17   C18   S    
Cu1   O1    S    
C2    C4    A    
C26   I1    S    
C8    H14   S    
C28   H13   S    
Cu2   O2    S    
C6    C7    A    
C27   O8    A    
C27   C29   S    
C5    C28   A    
C6    H12   S    
C10   C30   A    
C3    C7    A    
C31   C32   A    
C9    C29   A    
C30   C31   A    
C4    C8    A    
C14   C33   S    
C33   O9    D    
C25   H9    S    
O10   H19   S    
C23   O5    A    
C12   O4    A    
Cu1   O5    S    
C3    C10   A    
C8    C29   A    
C21   C22   A    
Cu2   O6    S    
C4    C5    A    
C11   C13   A    
C32   H16   S    
C22   H8    S    
C20   C26   S    
C21   H7    S    
C5    C6    A    
C21   N1    A    
C25   H10   S    
C2    C32   A    
C30   H15   S    
C7    H18   S    
Cu1   Cu2   S    
C16   C23   S    
C2    C3    A    
C22   N2    A    
C18   H4    S    
C23   O6    A    
C10   C12   S    
Cu2   O4    S    
C1    O2    A    
C1    O1    A    
C1    C13   S    
C19   H6    S    
C12   O3    A    
C19   H5    S    
C24   N2    A    
C15   C16   A    
C16   C17   A    
C15   H2    S    
Cu2   O8    S    
C24   C25   S    
Cu2   N1    S    
Cu1   O7    S    
C18   C19   S    
Cu1   N2    S    
C9    H1    S    
C14   C15   A    
C11   C19   S    
Cu1   O3    S    
C27   O7    A    
C26   H11   S    
C25   C26   S    
C13   C14   A    
C18   H3    S    
C11   C17   A    
C20   C24   A    
C9    C28   A    
C31   H17   S    
C20   N1    A    
C33   O10   S    
