data_mof_unit_46338.cif
_audit_creation_date              2012-12-11T16:08:52-0500
_audit_creation_method            fapswitch 2.2
_symmetry_space_group_name_H-M    P1
_symmetry_Int_Tables_number       1
_space_group_crystal_system       triclinic
_cell_length_a                    12.970189
_cell_length_b                    13.310117
_cell_length_c                    27.753745
_cell_angle_alpha                 94.670185
_cell_angle_beta                  90.44014
_cell_angle_gamma                 119.204996
_cell_volume                      4162.11388752

loop_
_atom_site_label
_atom_site_type_symbol
_atom_type_description
_atom_site_fract_x
_atom_site_fract_y
_atom_site_fract_z
_atom_type_partial_charge
C1    C     C_R   0.627641 0.894781 0.427788 0.550181
C2    C     C_R   0.586980 0.344050 0.228854 -0.098776
C3    C     C_R   0.577854 0.329684 0.278271 -0.096695
C4    C     C_R   0.665955 0.321050 0.304138 0.033063
C5    C     C_R   0.683489 0.348529 0.204768 0.033607
C6    C     C_1   0.694930 0.370086 0.154496 -0.049232
C7    C     C_1   0.651267 0.297524 0.354161 -0.055451
C8    C     C_1   0.704400 0.396252 0.113494 0.001254
C9    C     C_R   0.180751 0.753347 0.349337 -0.128743
C10   C     C_R   0.169498 0.747744 0.299268 0.019484
C11   C     C_R   0.162301 0.741794 0.198738 0.009990
C12   C     C_R   0.600705 0.221680 0.440465 0.549646
C13   C     C_R   0.153285 0.647261 0.221027 -0.127465
C14   C     C_R   0.155122 0.649561 0.271030 -0.133466
C15   C     C_R   0.149978 0.733644 0.149004 -0.131500
C16   C     C_R   0.134464 0.815565 0.126210 0.020285
C17   C     C_R   0.214554 0.950145 0.356185 -0.136711
C18   C     C_R   0.200975 0.944874 0.305912 -0.016928
C19   C     C_R   0.181338 0.844626 0.277172 0.066215
C20   C     C_R   0.219266 0.042593 0.284090 -0.108063
C21   C     C_R   0.218063 0.042871 0.233547 -0.001647
C22   C     C_R   0.186842 0.938065 0.203651 -0.050398
C23   C     C_R   0.269138 0.876517 0.425607 0.545649
C24   C     C_R   0.176428 0.841699 0.226466 0.041860
C25   C     C_R   0.160601 0.922502 0.152564 -0.016481
C26   C     C_R   0.211572 0.856963 0.377634 -0.001386
C27   C     C_R   0.758810 0.914846 0.361111 -0.131379
C28   C     C_R   0.768744 0.899839 0.311559 0.012332
C29   C     C_R   0.779946 0.888629 0.211302 -0.001430
C30   C     C_R   0.880368 0.965785 0.240909 -0.123394
C31   C     C_R   0.874974 0.970884 0.290868 -0.121979
C32   C     C_R   0.786087 0.885410 0.161798 -0.146410
C33   C     C_R   0.691056 0.802296 0.130948 0.020979
C34   C     C_R   0.626745 0.899533 0.565361 0.542347
C35   C     C_R   0.552878 0.763682 0.352430 -0.130015
C36   C     C_R   0.561158 0.748161 0.302741 0.010088
C37   C     C_R   0.668343 0.818809 0.281902 0.066927
C38   C     C_R   0.461518 0.669680 0.273321 -0.116275
C39   C     C_R   0.466879 0.662639 0.223143 -0.123677
C40   C     C_R   0.572886 0.733489 0.201175 -0.015423
C41   C     C_R   0.673887 0.812563 0.231378 0.051998
C42   C     C_R   0.581168 0.728702 0.150163 -0.003527
C43   C     C_R   0.649142 0.852489 0.380981 -0.003158
C44   C     C_R   0.687364 0.223284 0.657162 -0.131840
C45   C     C_R   0.602115 0.224204 0.578728 0.543771
C46   C     C_R   0.693942 0.243201 0.707134 -0.021276
C47   C     C_R   0.704237 0.279682 0.808554 -0.010751
C48   C     C_R   0.752630 0.213459 0.785894 0.039775
C49   C     C_R   0.742613 0.192807 0.735349 -0.108809
C50   C     C_R   0.700403 0.297194 0.859534 -0.055285
C51   C     C_R   0.697860 0.397328 0.878164 0.008325
C52   C     C_R   0.596351 0.343285 0.649688 -0.103673
C53   C     C_R   0.606719 0.369381 0.699939 0.016282
C54   C     C_R   0.653263 0.315689 0.728785 0.027742
C55   C     C_R   0.564758 0.441224 0.722093 -0.012998
C56   C     C_R   0.272894 0.879856 0.563691 0.545295
C57   C     C_R   0.573402 0.461631 0.772928 -0.031339
C58   C     C_R   0.634390 0.419291 0.800187 -0.012719
C59   C     C_R   0.661557 0.336147 0.779123 -0.016759
C60   C     C_R   0.683024 0.467452 0.846695 0.053737
C61   C     C_R   0.635677 0.270552 0.628700 -0.007271
C62   C     C_1   0.226933 0.864644 0.611058 -0.005452
C63   C     C_R   0.082263 0.760442 0.720440 -0.108300
C64   C     C_R   0.068590 0.752346 0.770046 -0.121310
C65   C     C_R   0.257201 0.929952 0.787545 0.053079
C66   C     C_R   0.269572 0.936529 0.737373 -0.115057
C67   C     C_1   0.632557 0.269412 0.394820 -0.010590
C68   C     C_R   0.182784 0.852282 0.703962 0.032605
C69   C     C_R   0.155008 0.835837 0.803909 0.079721
C70   C     C_1   0.133576 0.820674 0.854532 0.066548
C71   C     C_1   0.201762 0.857272 0.652882 -0.046351
C72   C     C_1   0.105854 0.800743 0.895532 0.085191
C73   C     C_1   0.640175 0.869311 0.612529 0.002921
C74   C     C_R   0.754080 0.856380 0.727882 -0.098010
C75   C     C_R   0.762510 0.852366 0.778018 0.046303
C76   C     C_R   0.555874 0.809035 0.782301 -0.001014
C77   C     C_R   0.551363 0.815253 0.732019 -0.082172
C78   C     C_R   0.762997 0.326194 0.280164 -0.100023
C79   C     C_R   0.649635 0.838125 0.704990 0.022110
C80   C     C_R   0.662015 0.827371 0.805646 0.019768
C81   C     C_1   0.666053 0.811812 0.856588 0.012207
C82   C     C_1   0.645829 0.851812 0.654163 -0.020073
C83   C     C_1   0.679738 0.796464 0.897872 0.078717
C84   C     C_R   0.066801 0.773760 0.078926 0.565917
C85   C     C_R   0.717278 0.441638 0.067386 0.537967
C86   C     C_R   0.721366 0.782208 0.081476 0.567854
C87   C     C_R   0.057757 0.767001 0.941662 0.600696
C88   C     C_R   0.710232 0.433921 0.929465 0.562655
C89   C     C_R   0.771986 0.340352 0.230612 -0.099064
C90   C     C_R   0.714319 0.777972 0.944112 0.598120
Cr1   Cr    Cr6+3 0.416430 0.829200 0.492370 1.033754
Cr2   Cr    Cr6+3 0.674630 0.087020 0.504170 1.030052
Cr3   Cr    Cr6+3 0.408920 0.083740 0.503490 1.032052
Cr4   Cr    Cr6+3 0.914010 0.832750 0.013970 1.122445
Cr5   Cr    Cr6+3 0.922310 0.578600 0.003000 1.062005
Cr6   Cr    Cr6+3 0.656280 0.574630 0.003870 1.124661
H1    H     H_    0.242125 0.121655 0.306804 0.150475
H2    H     H_    0.238429 0.030533 0.378016 0.129567
H3    H     H_    0.870110 0.943647 0.147605 0.135702
H4    H     H_    0.833580 0.981988 0.383399 0.129667
H5    H     H_    0.962853 0.022977 0.225380 0.129571
H6    H     H_    0.386480 0.602643 0.202157 0.109722
H7    H     H_    0.378247 0.615770 0.289083 0.116887
H8    H     H_    0.847914 0.345393 0.212563 0.115361
H9    H     H_    0.468022 0.713958 0.367898 0.133267
H10   H     H_    0.778109 0.141503 0.717565 0.155589
H11   H     H_    0.553261 0.374497 0.626353 0.179035
H12   H     H_    0.015055 0.694364 0.694978 0.125516
H13   H     H_    0.830312 0.876296 0.706554 0.107826
H14   H     H_    0.501705 0.324462 0.296210 0.136337
H15   H     H_    0.136639 0.654651 0.128725 0.149900
H16   H     H_    0.177074 0.680550 0.365790 0.128239
O1    O     O_R   0.296680 0.802170 0.437540 -0.521459
O2    O     O_R   0.662610 0.183990 0.557860 -0.504615
O3    O     O_R   0.500730 0.201280 0.562180 -0.511743
O4    O     O_R   0.312500 0.978850 0.548170 -0.494733
O5    O     O_3   0.499990 0.999990 0.500010 -0.251338
O6    O     O_R   0.820790 0.857990 0.068830 -0.537466
O7    O     O_R   0.016700 0.827330 0.062850 -0.473525
O8    O     O_R   0.041970 0.673520 0.060040 -0.525845
O9    O     O_R   0.817980 0.483660 0.048840 -0.507655
O10   O     O_R   0.637200 0.461990 0.052510 -0.503609
O11   O     O_R   0.664790 0.681920 0.057970 -0.474340
O12   O     O_R   0.525380 0.838530 0.443500 -0.504655
O13   O     O_R   0.815840 0.852920 0.961840 -0.467103
O14   O     O_R   0.012100 0.822630 0.963670 -0.447167
O15   O     O_R   0.037010 0.668460 0.953040 -0.496061
O16   O     O_R   0.813390 0.478970 0.949660 -0.492760
O17   O     O_R   0.632250 0.456930 0.945520 -0.459830
O18   O     O_R   0.660200 0.677230 0.958780 -0.461355
O19   O     O_3   0.830870 0.661990 0.006950 -0.262001
O20   O     O_R   0.702130 0.995190 0.446810 -0.514262
O21   O     O_R   0.661770 0.181390 0.458760 -0.491645
O22   O     O_R   0.499820 0.198480 0.455280 -0.508893
O23   O     O_R   0.311660 0.976250 0.449080 -0.502786
O24   O     O_R   0.297580 0.804960 0.544440 -0.503028
O25   O     O_R   0.526220 0.841130 0.542590 -0.487849
O26   O     O_R   0.703030 0.997990 0.553710 -0.517215
H17   H     H_    0.831030 0.318339 0.299644 0.114174
C91   C     C_2   0.264336 0.157301 0.214481 0.180620
H18   H     H_    0.313128 0.175399 0.181841 0.137796
O27   O     O_2   0.251385 0.233996 0.235844 -0.541325
H19   H     H_    0.952620 0.032819 0.313205 0.120322
C92   C     C_2   0.476714 0.648798 0.117387 0.243898
H20   H     H_    0.416394 0.562136 0.126427 0.100589
O28   O     O_2   0.456288 0.680139 0.080063 -0.481146
C93   C     C_2   0.688522 0.210267 0.892739 0.220376
H21   H     H_    0.716346 0.236250 0.930766 0.113738
O29   O     O_2   0.642183 0.107669 0.878370 -0.478955
H22   H     H_    0.715589 0.164644 0.640592 0.137954
C94   C     C_2   0.830953 0.182175 0.812748 0.293076
H23   H     H_    0.867976 0.223024 0.848740 0.129663
O30   O     O_2   0.859004 0.113275 0.794236 -0.502656
C95   C     C_2   0.743961 0.595714 0.856786 0.252560
H24   H     H_    0.732757 0.647654 0.831472 0.106920
O31   O     O_2   0.815516 0.645772 0.890933 -0.493293
C96   C     C_2   0.512321 0.520407 0.797563 0.187082
H25   H     H_    0.489791 0.575422 0.778537 0.110841
O32   O     O_2   0.483161 0.505031 0.839227 -0.481433
C97   C     C_2   0.512412 0.495675 0.692858 0.184238
H26   H     H_    0.426248 0.485710 0.700647 0.116892
O33   O     O_2   0.567427 0.555805 0.661159 -0.515288
H27   H     H_    0.519148 0.352368 0.209460 0.132570
H28   H     H_    0.989919 0.680267 0.782111 0.116759
C98   C     C_2   0.353765 0.021836 0.820596 0.274903
H29   H     H_    0.429818 0.091161 0.805548 0.118825
O34   O     O_2   0.350691 0.021989 0.864537 -0.461896
H30   H     H_    0.348000 0.006838 0.724172 0.097261
C99   C     C_2   0.879528 0.877505 0.799183 0.253317
H31   H     H_    0.948580 0.886045 0.775276 0.099726
O35   O     O_2   0.902250 0.892205 0.842773 -0.469452
C100  C     C_2   0.448808 0.781567 0.809758 0.251929
H32   H     H_    0.453064 0.786550 0.848980 0.145395
O36   O     O_2   0.353763 0.751860 0.788788 -0.514460
H33   H     H_    0.471295 0.803015 0.713737 0.162274
H34   H     H_    0.142104 0.570310 0.199702 0.112120
H35   H     H_    0.147538 0.575443 0.287623 0.106619
C101  C     C_2   0.148423 0.010796 0.127593 0.229259
H36   H     H_    0.098252 0.049707 0.143255 0.097850
O37   O     O_2   0.196850 0.042544 0.089882 -0.477801

loop_
_geom_bond_atom_site_label_1
_geom_bond_atom_site_label_2
_ccdc_geom_bond_type
C50   C93   S    
C13   H34   S    
C66   C68   A    
C98   H29   S    
C11   C13   A    
C99   H31   S    
C35   C36   A    
C64   H28   S    
C1    O20   A    
Cr2   O26   S    
C78   H17   S    
C74   H13   S    
C87   O15   A    
C101  H36   S    
C53   C54   A    
C52   C53   A    
C46   C49   A    
C96   H25   S    
C37   C41   A    
C33   C42   A    
C36   C37   A    
C93   O29   D    
C91   O27   D    
C8    C85   S    
C29   C32   A    
C52   C61   A    
C84   O7    A    
C5    C6    S    
C65   C69   A    
C77   H33   S    
Cr4   O14   S    
C58   C60   A    
C15   C16   A    
C65   C98   S    
C11   C24   A    
C16   C84   S    
C18   C20   A    
C18   C19   A    
Cr3   O3    S    
C23   C26   S    
C45   C61   S    
C76   C100  S    
C17   H2    S    
C93   H21   S    
C81   C83   T    
Cr1   O25   S    
C11   C15   A    
C45   O2    A    
C1    C43   S    
C20   H1    S    
Cr2   O21   S    
C52   H11   S    
C100  O36   D    
C22   C25   A    
C75   C99   S    
C94   H23   S    
Cr1   O5    S    
C85   O9    A    
C29   C30   A    
C35   C43   A    
C9    C10   A    
C95   O31   D    
Cr5   O9    S    
C9    H16   S    
C40   C42   A    
C96   O32   D    
C12   O22   A    
C21   C22   A    
Cr5   O19   S    
C99   O35   D    
Cr3   O5    S    
C88   O17   A    
C4    C7    S    
Cr5   O16   S    
C56   O24   A    
C44   C46   A    
C9    C26   A    
C50   C51   A    
C47   C50   A    
C54   C59   A    
C53   C55   A    
C78   C89   A    
C38   C39   A    
C12   C67   S    
C27   H4    S    
C74   C75   A    
Cr1   O24   S    
C15   H15   S    
C76   C77   A    
C92   O28   D    
Cr3   O22   S    
C10   C14   A    
C39   C40   A    
C25   C101  S    
C92   H20   S    
C6    C8    T    
C58   C59   A    
C47   C59   A    
C34   O26   A    
C44   H22   S    
Cr1   O1    S    
Cr2   O20   S    
Cr3   O4    S    
C97   O33   D    
C2    H27   S    
C33   C86   S    
C4    C78   A    
C38   H7    S    
C35   H9    S    
Cr5   O15   S    
C23   O1    A    
Cr4   O7    S    
C45   O3    A    
C47   C48   A    
C10   C19   A    
C84   O8    A    
C46   C54   A    
C17   C18   A    
C56   O4    A    
C77   C79   A    
C85   O10   A    
C86   O6    A    
C64   C69   A    
C91   H18   S    
C95   H24   S    
Cr2   O5    S    
C40   C41   A    
C23   O23   A    
Cr1   O12   S    
Cr6   O19   S    
C89   H8    S    
C42   C92   S    
Cr5   O8    S    
C22   C24   A    
C2    C5    A    
C17   C26   A    
C3    C4    A    
C73   C82   T    
C86   O11   A    
C72   C87   S    
C100  H32   S    
C39   H6    S    
Cr6   O18   S    
C75   C80   A    
Cr4   O13   S    
C16   C25   A    
C83   C90   S    
C57   C96   S    
C63   C68   A    
C55   C97   S    
Cr6   O11   S    
C29   C41   A    
C28   C31   A    
C76   C80   A    
C80   C81   S    
Cr3   O23   S    
C51   C88   S    
C79   C82   S    
C101  O37   D    
C49   H10   S    
C66   H30   S    
C44   C61   A    
C34   O25   A    
Cr4   O19   S    
C32   H3    S    
Cr6   O10   S    
C74   C79   A    
C32   C33   A    
C55   C57   A    
C19   C24   A    
C1    O12   A    
C88   O16   A    
C97   H26   S    
Cr4   O6    S    
C57   C58   A    
C30   C31   A    
C28   C37   A    
C68   C71   S    
C48   C49   A    
C30   H5    S    
C36   C38   A    
C90   O13   A    
C62   C71   T    
C2    C3    A    
C56   C62   S    
C94   O30   D    
C31   H19   S    
C69   C70   S    
C60   C95   S    
C14   H35   S    
C34   C73   S    
C7    C67   T    
C63   C64   A    
C90   O18   A    
C27   C43   A    
C20   C21   A    
C98   O34   D    
C65   C66   A    
C48   C94   S    
C27   C28   A    
C70   C72   T    
C51   C60   A    
C3    H14   S    
C21   C91   S    
C63   H12   S    
C13   C14   A    
Cr2   O2    S    
C87   O14   A    
C5    C89   A    
C12   O21   A    
Cr6   O17   S    
