data_mof_unit_25148.cif
_audit_creation_date              2012-12-10T17:49:42-0500
_audit_creation_method            fapswitch 2.2
_symmetry_space_group_name_H-M    P1
_symmetry_Int_Tables_number       1
_space_group_crystal_system       triclinic
_cell_length_a                    10.522223
_cell_length_b                    10.740129
_cell_length_c                    9.917817
_cell_angle_alpha                 91.883097
_cell_angle_beta                  92.039336
_cell_angle_gamma                 92.175982
_cell_volume                      1118.63825385

loop_
_atom_site_label
_atom_site_type_symbol
_atom_type_description
_atom_site_fract_x
_atom_site_fract_y
_atom_site_fract_z
_atom_type_partial_charge
C1    C     C_R   0.508075 0.260795 0.498504 0.865565
C2    C     C_R   0.562424 0.068425 0.611153 0.046227
C3    C     C_R   0.515275 0.128106 0.496368 -0.136696
C4    C     C_R   0.257705 0.498799 0.497589 0.877684
C5    C     C_R   0.450426 0.061445 0.390636 -0.279468
C6    C     C_R   0.435372 0.933534 0.394570 0.198224
C7    C     C_R   0.477674 0.873533 0.511101 -0.181483
C8    C     C_R   0.331121 0.338621 0.129365 -0.159892
C9    C     C_R   0.249825 0.255891 0.054046 -0.220846
C10   C     C_R   0.248754 0.255658 0.914464 -0.202595
C11   C     C_R   0.329514 0.337608 0.849261 -0.107564
C12   C     C_3   0.958897 0.598534 0.433193 -0.243000
C13   C     C_R   0.414440 0.421970 0.922180 0.110965
C14   C     C_R   0.415010 0.421976 0.066705 0.150805
C15   C     C_R   0.584981 0.570548 0.078798 -0.139473
C16   C     C_R   0.490839 0.739845 0.502803 0.901814
C17   C     C_R   0.587812 0.570179 0.934928 0.219851
C18   C     C_R   0.742633 0.501192 0.502408 0.868853
C19   C     C_3   0.044256 0.399734 0.566461 -0.279396
C20   C     C_3   0.951290 0.396234 0.443160 0.227203
C21   C     C_3   0.877894 0.501503 0.506441 -0.069552
C22   C     C_3   0.971503 0.507978 0.627418 0.261033
C23   C     C_3   0.032696 0.491086 0.367932 -0.134246
C24   C     C_3   0.052847 0.606239 0.557414 -0.229142
C25   C     C_3   0.968369 0.205590 0.305434 -0.827853
C26   C     C_3   0.427642 0.865643 0.159228 -0.747906
C27   C     C_3   0.786398 0.706992 0.949551 -0.847487
C28   C     C_3   0.910732 0.408837 0.834991 -0.718989
C29   C     C_3   0.682362 0.240028 0.010774 -0.765544
C30   C     C_3   0.123226 0.498126 0.493449 -0.030689
C31   C     C_R   0.641860 0.130546 0.712382 -0.170505
C32   C     C_R   0.663084 0.077587 0.837727 0.275591
C33   C     C_R   0.601737 0.964246 0.862940 -0.228017
C34   C     C_R   0.532361 0.898368 0.760059 -0.197798
C35   C     C_R   0.524034 0.944314 0.627688 0.056053
H1    H     H_    0.607354 0.927470 0.962734 0.140290
H2    H     H_    0.835393 0.235848 0.452253 0.212055
H3    H     H_    0.911954 0.121945 0.265874 0.239923
H4    H     H_    0.050107 0.175193 0.368627 0.231541
H5    H     H_    0.003575 0.256919 0.218066 0.246745
H6    H     H_    0.480502 0.815780 0.789416 0.181925
H7    H     H_    0.272793 0.891455 0.278401 0.210650
H8    H     H_    0.427481 0.959842 0.116116 0.222055
H9    H     H_    0.375269 0.798868 0.087490 0.231862
H10   H     H_    0.527143 0.835654 0.171755 0.244456
H11   H     H_    0.188425 0.190511 0.104277 0.147027
H12   H     H_    0.652377 0.626844 0.141338 0.164906
H13   H     H_    0.324398 0.329436 0.742049 0.199555
H14   H     H_    0.663278 0.675782 0.779789 0.283969
H15   H     H_    0.746205 0.780591 0.014142 0.218948
H16   H     H_    0.853996 0.752171 0.881024 0.247336
H17   H     H_    0.839989 0.642873 0.013867 0.248460
H18   H     H_    0.007470 0.578871 0.822817 0.221243
H19   H     H_    0.876216 0.431191 0.936954 0.243746
H20   H     H_    0.996470 0.352448 0.846201 0.224343
H21   H     H_    0.835297 0.354341 0.776629 0.251743
H22   H     H_    0.687000 0.219838 0.694193 0.141240
H23   H     H_    0.327981 0.333012 0.236258 0.200504
H24   H     H_    0.785436 0.080289 0.005230 0.219643
H25   H     H_    0.750732 0.284950 0.087025 0.256190
H26   H     H_    0.597824 0.203500 0.063316 0.247727
H27   H     H_    0.653196 0.311316 0.938923 0.251693
H28   H     H_    0.185699 0.190742 0.856078 0.140273
H29   H     H_    0.082588 0.318018 0.617716 0.131963
H30   H     H_    0.099049 0.692221 0.605086 0.133556
H31   H     H_    0.920764 0.679442 0.380273 0.148079
H32   H     H_    0.062252 0.483078 0.261736 0.146298
H33   H     H_    0.409011 0.108827 0.305811 0.165582
N1    N     N_R   0.498800 0.498800 0.142780 -0.135072
N2    N     N_R   0.498760 0.498720 0.857170 -0.167312
N3    N     N_2   0.888532 0.284049 0.384241 -0.292841
N4    N     N_2   0.366339 0.866529 0.287479 -0.280612
N5    N     N_2   0.686571 0.638462 0.870546 -0.259628
N6    N     N_2   0.941238 0.522812 0.768049 -0.283208
N7    N     N_2   0.742410 0.139882 0.939726 -0.332122
O1    O     O_R   0.500000 0.316780 0.614690 -0.642782
O2    O     O_R   0.499990 0.316750 0.385360 -0.636034
O3    O     O_R   0.313960 0.499980 0.614650 -0.641871
O4    O     O_R   0.313940 0.499960 0.385310 -0.637978
O5    O     O_R   0.500010 0.683250 0.614640 -0.666071
O6    O     O_R   0.500000 0.683220 0.385310 -0.581046
O7    O     O_R   0.686060 0.500040 0.614690 -0.614824
O8    O     O_R   0.686040 0.500020 0.385350 -0.611920
Zn1   Zn    Zn3+2 0.500010 0.500020 0.653130 0.911186
Zn2   Zn    Zn3+2 0.499990 0.499980 0.346870 0.934880

loop_
_geom_bond_atom_site_label_1
_geom_bond_atom_site_label_2
_ccdc_geom_bond_type
C2    C35   A    
C18   C21   S    
C26   N4    S    
C19   C20   S    
C15   H12   S    
O5    Zn1   S    
C28   N6    S    
O1    Zn1   S    
C32   N7    S    
C28   H21   S    
C26   H9    S    
C6    N4    S    
C12   C23   S    
C21   C22   S    
C25   H5    S    
C5    C6    A    
C13   N2    A    
C33   H1    S    
C1    O2    A    
C34   C35   A    
C23   H32   S    
C26   H10   S    
C8    H23   S    
C10   H28   S    
C8    C9    A    
C29   H25   S    
C20   N3    S    
C25   N3    S    
N2    Zn1   S    
C9    C10   A    
C27   H15   S    
O6    Zn2   S    
O2    Zn2   S    
C17   N2    A    
C13   C14   A    
C17   N5    S    
C11   H13   S    
C34   H6    S    
C5    H33   S    
C28   H20   S    
C27   H16   S    
C26   H8    S    
C33   C34   A    
C15   N1    A    
C29   H26   S    
C23   C30   S    
C19   C22   S    
C4    O4    A    
C28   H19   S    
C12   H31   S    
C12   C21   S    
C2    C31   A    
C1    C3    S    
C4    O3    A    
C25   H3    S    
C31   C32   A    
C20   C23   S    
C19   H29   S    
H7    N4    S    
C18   O8    A    
C24   H30   S    
C7    C16   S    
O8    Zn2   S    
O7    Zn1   S    
H2    N3    S    
C14   N1    A    
H14   N5    S    
C22   N6    S    
H24   N7    S    
O4    Zn2   S    
N1    Zn2   S    
C27   H17   S    
C15   C17   A    
C29   H27   S    
C8    C14   A    
C1    O1    A    
C7    C35   A    
C3    C5    A    
C6    C7    A    
C29   N7    S    
C12   C24   S    
C32   C33   A    
C31   H22   S    
C2    C3    A    
C25   H4    S    
C11   C13   A    
C16   O6    A    
C18   O7    A    
C22   C24   S    
C24   C30   S    
C10   C11   A    
O3    Zn1   S    
C9    H11   S    
C20   C21   S    
C16   O5    A    
C27   N5    S    
C19   C30   S    
C4    C30   S    
H18   N6    S    
