data_mof_unit_66624.cif
_audit_creation_date              2013-03-05T16:08:41-0500
_audit_creation_method            fapswitch 2.2
_symmetry_space_group_name_H-M    P1
_symmetry_Int_Tables_number       1
_space_group_crystal_system       triclinic
_cell_length_a                    8.439798
_cell_length_b                    15.265289
_cell_length_c                    16.462896
_cell_angle_alpha                 111.673211
_cell_angle_beta                  97.937685
_cell_angle_gamma                 80.847135
_cell_volume                      1938.68028845

loop_
_atom_site_label
_atom_site_type_symbol
_atom_site_description
_atom_site_fract_x
_atom_site_fract_y
_atom_site_fract_z
_atom_type_partial_charge
P1    P     P_3+3 0.592580 0.619750 0.703570 0.450651
O1    O     O_2   0.428380 0.595300 0.716110 -0.361847
O2    O     O_3   0.649320 0.571650 0.606870 -0.439651
O3    O     O_3   0.202060 0.415880 0.655570 -0.407881
O4    O     O_2   0.356751 0.508536 0.809570 -0.392748
O5    O     O_3   0.551394 0.741479 0.722890 -0.575410
O6    O     O_3   0.259604 0.350464 0.797512 -0.526040
H1    H     H_    0.248863 0.263203 0.666321 0.122172
C1    C     C_3   0.244706 0.181812 0.745161 -0.448291
H2    H     H_    0.376207 0.174262 0.757296 0.261149
P2    P     P_3+3 0.156510 0.273300 0.422380 0.440970
P3    P     P_3+3 0.656306 0.237214 0.596585 0.438564
O7    O     O_2   0.338790 0.265210 0.448200 -0.383665
O8    O     O_3   0.612600 0.359140 0.609510 -0.369016
O9    O     O_2   0.525561 0.183477 0.530373 -0.386335
O10   O     O_3   0.146716 0.219730 0.306674 -0.583249
O11   O     O_3   0.616882 0.229067 0.695067 -0.516611
C2    C     C_3   0.746147 0.260883 0.756997 0.536797
H3    H     H_    0.858231 0.218454 0.729795 -0.012439
C3    C     C_3   0.732406 0.242484 0.841490 -0.685886
H4    H     H_    0.757826 0.165256 0.828061 0.202091
C4    C     C_3   0.537935 0.212230 0.286074 0.381883
H5    H     H_    0.583945 0.172392 0.330595 0.088406
H6    H     H_    0.432294 0.260334 0.314198 0.132738
C5    C     C_3   0.493794 0.140864 0.196050 -1.045665
H7    H     H_    0.600625 0.089251 0.171889 0.260876
H8    H     H_    0.397582 0.101383 0.200280 0.251769
H9    H     H_    0.452216 0.178266 0.149154 0.250211
Ba1   Ba    Ba6+2 0.364200 0.465260 0.540900 1.491384
C6    C     C_3   0.481563 0.760622 0.647660 0.311132
H10   H     H_    0.350302 0.776220 0.651341 0.077839
H11   H     H_    0.505165 0.702472 0.584628 0.120949
C7    C     C_3   0.548697 0.847150 0.646569 -0.435575
H12   H     H_    0.518272 0.855164 0.582240 0.194053
H13   H     H_    0.680913 0.836437 0.658103 0.252113
C8    C     C_3   0.109609 0.284933 0.262316 0.400426
H14   H     H_    0.220465 0.295629 0.240556 -0.016849
H15   H     H_    0.054284 0.355667 0.302575 0.125850
C9    C     C_3   0.995739 0.246216 0.179193 -0.392029
H16   H     H_    0.974379 0.299088 0.146063 0.136783
H17   H     H_    0.878214 0.240057 0.196843 0.256692
P4    P     P_3+3 0.597130 0.380170 0.296420 0.413147
O12   O     O_2   0.761310 0.404660 0.283830 -0.370224
O13   O     O_3   0.540390 0.428270 0.393120 -0.437407
O14   O     O_3   0.987650 0.584040 0.344420 -0.348182
O15   O     O_3   0.661444 0.260054 0.280181 -0.580478
P5    P     P_3+3 0.529001 0.756505 0.390735 0.430242
O16   O     O_3   0.122130 0.620580 0.549200 -0.384392
O17   O     O_3   0.577110 0.640790 0.390470 -0.385125
O18   O     O_2   0.669914 0.811811 0.445018 -0.383908
O19   O     O_3   0.539206 0.754161 0.284350 -0.541320
Ba2   Ba    Ba6+2 0.825630 0.534670 0.459090 1.505014
P6    P     P_3+3 0.209380 0.452836 0.770642 0.443699
C10   C     C_3   0.196336 0.274590 0.728271 0.433056
H18   H     H_    0.063729 0.288532 0.718548 -0.033781
H19   H     H_    0.211605 0.122497 0.684229 0.133259
O20   O     O_3   0.067580 0.379340 0.450790 -0.429677
C11   C     C_3   0.079936 0.766779 0.753311 0.492918
H20   H     H_    0.138781 0.693137 0.722756 0.078028
C12   C     C_3   0.185185 0.819980 0.839878 -0.172708
H21   H     H_    0.132849 0.820101 0.898472 0.127139
P7    P     P_3+3 0.038373 0.741828 0.578629 0.409857
O21   O     O_2   0.850900 0.734750 0.551740 -0.375567
O22   O     O_3   0.056708 0.814604 0.692405 -0.623857
H22   H     H_    0.824818 0.274921 0.893456 0.173299
C13   C     C_3   0.511031 0.663666 0.224239 0.550876
H23   H     H_    0.614168 0.610638 0.229458 0.174420
H24   H     H_    0.400135 0.641677 0.236275 0.012069
C14   C     C_3   0.492102 0.664793 0.131304 -1.090391
H25   H     H_    0.475719 0.592797 0.083419 0.243791
H26   H     H_    0.385954 0.714966 0.123103 0.260569
H27   H     H_    0.601345 0.686010 0.116660 0.275855
P8    P     P_3+3 0.983526 0.551908 0.231063 0.428932
C15   C     C_3   0.010836 0.719901 0.236446 0.383091
H28   H     H_    0.135585 0.686039 0.223681 -0.002560
O23   O     O_2   0.855277 0.482383 0.192717 -0.409703
O24   O     O_3   0.900700 0.652050 0.204920 -0.548233
H29   H     H_    0.006959 0.756873 0.308325 0.089358
C16   C     C_3   0.972537 0.790660 0.187728 -0.214694
H30   H     H_    0.953156 0.747657 0.116693 0.159375
C17   C     C_2   0.290041 0.462769 0.241843 -0.483596
C18   C     C_R   0.895408 0.539232 0.755937 -0.538620
C19   C     C_2   0.490309 0.394681 0.134180 -0.284695
C20   C     C_2   0.451479 0.414891 0.215812 0.305207
C21   C     C_2   0.181062 0.494111 0.187953 0.190993
C22   C     C_3   0.233535 0.495918 0.103003 -0.107612
C23   C     C_3   0.372961 0.419001 0.066015 -0.041411
C24   C     C_2   0.102630 0.495322 0.029561 0.236551
C25   C     C_2   0.116582 0.544876 0.977387 -0.200842
C26   C     C_R   0.845336 0.608600 0.932994 0.001407
C27   C     C_R   0.993140 0.555734 0.906766 0.010735
C28   C     C_R   0.721638 0.622917 0.872055 -0.308977
C29   C     C_R   0.745090 0.587279 0.782814 0.357641
C30   C     C_R   0.020374 0.522525 0.816335 0.193868
H31   H     H_    0.606573 0.356038 0.114731 0.150239
H32   H     H_    0.609735 0.663847 0.895195 0.142902
H33   H     H_    0.258410 0.469743 0.305835 0.165219
H34   H     H_    0.918190 0.520066 0.688348 0.167265
H35   H     H_    0.218249 0.585202 0.991155 0.127031
C31   C     C_R   0.332230 0.814662 0.436215 0.152217
C32   C     C_R   0.269154 0.909186 0.443860 -0.003835
C33   C     C_R   0.141431 0.100574 0.462305 -0.071971
C34   C     C_R   0.276286 0.054945 0.415080 -0.101345
C35   C     C_R   0.341480 0.962435 0.408253 -0.199515
C36   C     C_R   0.081888 0.197931 0.477014 0.239774
H36   H     H_    0.335400 0.090507 0.384081 0.168208
H37   H     H_    0.447840 0.932690 0.373092 0.184325
C37   C     C_R   0.953676 0.237909 0.530888 -0.201185
C38   C     C_R   0.112821 0.804958 0.515194 0.253424
C39   C     C_R   0.050149 0.899175 0.523328 -0.036289
C40   C     C_R   0.127802 0.951462 0.487675 0.021667
C41   C     C_R   0.910969 0.942755 0.566465 -0.103482
C42   C     C_R   0.846826 0.034010 0.573296 -0.198636
C43   C     C_R   0.922814 0.088048 0.541431 -0.028418
C44   C     C_R   0.065042 0.047150 0.497764 0.012261
C45   C     C_R   0.862141 0.182864 0.554714 0.106622
C46   C     C_R   0.249983 0.763352 0.469310 -0.526988
H38   H     H_    0.738442 0.062405 0.605983 0.176695
H39   H     H_    0.847477 0.906937 0.594832 0.178110
H40   H     H_    0.299082 0.691707 0.463948 0.177371
C47   C     C_3   0.485216 0.938328 0.716762 -0.297125
C48   C     C_3   0.577542 0.019240 0.725631 -0.934540
H41   H     H_    0.708754 0.997593 0.722529 0.246456
H42   H     H_    0.532027 0.047251 0.672419 0.283718
H43   H     H_    0.559560 0.074426 0.790816 0.262998
H44   H     H_    0.356077 0.957318 0.698644 0.193374
H45   H     H_    0.499004 0.928509 0.780850 0.235885
C49   C     C_3   0.058084 0.150301 0.112424 -0.287674
C50   C     C_3   0.033232 0.066030 0.136517 -0.815635
H46   H     H_    0.054221 0.999285 0.079651 0.216412
H47   H     H_    0.118604 0.060782 0.192518 0.271835
H48   H     H_    0.907934 0.072242 0.153323 0.252429
H49   H     H_    0.186360 0.148572 0.103973 0.199244
H50   H     H_    0.989727 0.142635 0.047841 0.184261
C51   C     C_3   0.916510 0.759920 0.779380 -0.371112
C52   C     C_3   0.825106 0.854836 0.832980 -0.870984
H51   H     H_    0.884749 0.886387 0.899723 0.225303
H52   H     H_    0.813858 0.906114 0.799230 0.270162
H53   H     H_    0.704534 0.843938 0.843801 0.275009
H54   H     H_    0.843722 0.724121 0.718385 0.229875
H55   H     H_    0.938559 0.716140 0.821097 0.142577
C53   C     C_3   0.190358 0.925591 0.854113 -0.166946
C54   C     C_3   0.291961 0.977952 0.937621 -1.028755
H56   H     H_    0.272892 0.957029 0.992967 0.272018
H57   H     H_    0.421959 0.963280 0.926821 0.264557
H58   H     H_    0.257186 0.055207 0.956237 0.267861
H59   H     H_    0.235397 0.931372 0.797064 0.192709
H60   H     H_    0.066549 0.963364 0.858790 0.186682
N1    N     N_3   0.345982 0.768648 0.841574 -0.155777
H61   H     H_    0.332627 0.706549 0.851704 0.124385
H62   H     H_    0.417205 0.805101 0.897338 0.134448
C55   C     C_3   0.166701 0.174920 0.821193 -0.250445
C56   C     C_3   0.264227 0.210990 0.909162 -0.905546
H63   H     H_    0.378896 0.164043 0.909328 0.260370
H64   H     H_    0.287790 0.284281 0.922545 0.298172
H65   H     H_    0.194291 0.212391 0.962094 0.221485
H66   H     H_    0.049002 0.217035 0.828157 0.181225
H67   H     H_    0.149066 0.099934 0.806792 0.191137
N2    N     N_3   0.111933 0.841205 0.198157 -0.227504
H68   H     H_    0.083721 0.888949 0.164924 0.125645
H69   H     H_    0.138764 0.879783 0.264404 0.147242
C57   C     C_3   0.816265 0.859634 0.212842 -0.282441
C58   C     C_3   0.823936 0.933442 0.305916 -0.824142
H70   H     H_    0.851673 0.898939 0.355583 0.275536
H71   H     H_    0.914301 0.982237 0.314438 0.239701
H72   H     H_    0.704892 0.976903 0.317552 0.237389
H73   H     H_    0.786090 0.897994 0.165932 0.171648
H74   H     H_    0.715237 0.818326 0.205030 0.248326
N3    N     N_3   0.755570 0.361236 0.774586 -0.195073
H75   H     H_    0.856505 0.382286 0.817371 0.040282
H76   H     H_    0.651863 0.402812 0.801561 0.171009
C59   C     C_3   0.987238 0.421211 0.002989 -0.332000
C60   C     C_3   0.809583 0.461771 0.011196 -0.796915
H77   H     H_    0.795002 0.534510 0.060265 0.301147
H78   H     H_    0.749352 0.464117 0.948218 0.222803
H79   H     H_    0.744968 0.415426 0.030129 0.240468
H80   H     H_    0.007329 0.373852 0.935140 0.178310
H81   H     H_    0.018859 0.375701 0.043508 0.176713
C61   C     C_3   0.896447 0.338969 0.554999 -0.375185
C62   C     C_3   0.769051 0.349603 0.483563 -0.422441
H82   H     H_    0.818856 0.338443 0.422099 0.238279
H83   H     H_    0.680928 0.297307 0.463110 0.202602
H84   H     H_    0.705686 0.420388 0.510537 0.287942
H85   H     H_    0.867112 0.366716 0.623559 0.161465
H86   H     H_    0.984348 0.386245 0.567915 0.240363
N4    N     N_3   0.574531 0.277401 0.874613 -0.140698
H87   H     H_    0.555962 0.351158 0.893280 0.184437
H88   H     H_    0.579334 0.263808 0.932703 0.130629

loop_
_geom_bond_atom_site_label_1
_geom_bond_atom_site_label_2
_geom_bond_distance
_ccdc_geom_bond_type
C59   H80   1.102692 S    
C54   H58   1.103913 S    
C13   H24   1.108251 S    
C1    C55   1.535630 S    
C18   C30   1.406483 A    
O3    P6    1.760761 S    
C18   H34   1.077696 S    
N3    H75   1.038867 S    
C19   C23   1.503932 S    
C58   H70   1.107605 S    
C49   C50   1.530329 S    
C50   H46   1.108946 S    
C43   C44   1.419820 A    
C38   C46   1.402613 A    
C51   C52   1.536604 S    
P5    O17   1.746921 S    
C21   C22   1.535003 S    
C62   H82   1.094060 S    
C5    H9    1.110050 S    
C25   H35   1.085277 S    
O1    Ba1   2.869736 S    
C24   C59   1.512284 S    
O7    Ba1   2.894210 S    
C8    H14   1.102134 S    
C58   H71   1.109126 S    
C57   C58   1.530408 S    
N1    H62   1.044251 S    
C16   N2    1.464260 S    
C6    H10   1.100727 S    
C22   C24   1.519432 S    
O12   Ba2   2.870361 S    
C60   H79   1.107983 S    
C13   C14   1.522409 S    
C11   C12   1.582596 S    
C54   H56   1.109019 S    
C28   H32   1.078565 S    
C33   C36   1.431807 A    
O14   P8    1.742368 S    
P1    O1    1.550126 D    
P4    O15   1.757715 S    
C14   H26   1.109994 S    
C39   C40   1.424712 A    
C28   C29   1.396167 A    
P7    O22   1.790035 S    
C33   C44   1.429820 A    
C12   C53   1.548042 S    
C55   H66   1.089528 S    
C26   C28   1.394354 A    
N2    H68   1.044291 S    
C15   O24   1.407896 S    
P3    O11   1.750959 S    
P2    C36   1.918515 S    
P2    Ba1   3.454383 S    
N2    H69   1.042767 S    
C56   H64   1.102924 S    
C1    H2    1.095449 S    
O3    Ba1   2.845584 S    
C62   H84   1.085413 S    
C50   H48   1.110563 S    
O13   Ba2   2.971861 S    
C13   H23   1.107644 S    
C18   C29   1.400895 A    
C7    C47   1.518363 S    
N3    H76   1.043339 S    
C33   C34   1.406121 A    
P4    O13   1.593143 S    
C52   H53   1.104869 S    
C41   C42   1.381106 A    
C62   H83   1.106797 S    
C7    H12   1.101383 S    
P5    O18   1.547386 D    
C60   H78   1.100323 S    
C11   O22   1.420464 S    
C51   H54   1.102487 S    
C36   C37   1.408952 A    
C55   H67   1.110246 S    
C15   H28   1.107971 S    
Ba1   O16   2.847984 S    
P1    O5    1.750279 S    
C53   H60   1.108166 S    
C3    H22   1.100484 S    
C58   H72   1.110642 S    
P4    C20   1.847894 S    
C16   H30   1.113362 S    
C52   H52   1.101584 S    
C46   H40   1.081788 S    
H1    C10   1.111899 S    
C9    H16   1.110456 S    
C22   C23   1.537646 S    
C2    H3    1.105777 S    
P5    O19   1.752288 S    
O14   Ba2   2.844870 S    
C5    H7    1.110628 S    
C60   H77   1.105486 S    
C4    C5    1.518609 S    
P5    C31   1.868181 S    
C57   H73   1.111960 S    
C37   C61   1.460959 S    
C12   H21   1.114322 S    
P1    O2    1.593143 S    
O19   C13   1.404979 S    
C14   H27   1.107767 S    
P7    O21   1.592706 D    
C49   H50   1.112261 S    
P2    O10   1.769596 S    
O16   P7    1.782187 S    
C19   C20   1.338621 D    
P3    O9    1.540796 D    
C51   H55   1.103220 S    
O17   Ba2   2.813553 S    
C19   H31   1.084642 S    
C3    H4    1.106733 S    
P1    Ba1   3.435738 S    
O11   C2    1.400422 S    
C1    H19   1.111921 S    
C55   C56   1.517892 S    
C56   H65   1.110172 S    
P8    C21   1.859533 S    
C47   C48   1.515142 S    
C61   C62   1.517135 S    
N4    H87   1.043211 S    
C57   H74   1.105455 S    
C59   H81   1.110403 S    
C4    O15   1.396891 S    
P3    O8    1.776586 S    
C32   C35   1.409127 A    
C15   C16   1.540036 S    
Ba1   O13   2.857679 S    
P8    O23   1.542194 D    
C4    H6    1.096872 S    
C25   C27   1.489107 S    
P4    O12   1.550514 D    
O6    P6    1.750887 S    
C16   C57   1.551237 S    
C48   H42   1.108739 S    
C17   C20   1.478976 S    
C59   C60   1.532494 S    
C42   C43   1.395651 A    
C61   H85   1.097894 S    
C2    N3    1.463453 S    
O4    P6    1.547413 D    
C54   H57   1.109867 S    
C10   H18   1.106060 S    
C9    C49   1.534538 S    
C6    C7    1.524630 S    
O5    C6    1.406264 S    
P6    C30   1.855433 S    
C4    H5    1.110543 S    
C53   H59   1.097663 S    
C8    C9    1.538070 S    
Ba1   O20   2.961381 S    
C52   H51   1.107331 S    
Ba2   O21   2.894305 S    
C41   H39   1.074756 S    
C43   C45   1.402260 A    
O2    Ba2   2.858326 S    
C47   H45   1.107496 S    
C61   H86   1.062925 S    
C11   C51   1.529765 S    
C5    H8    1.108946 S    
C37   C45   1.410812 A    
C48   H43   1.104946 S    
C8    H15   1.104389 S    
C11   H20   1.112260 S    
C47   H44   1.111068 S    
P2    O20   1.597997 S    
N1    H61   1.046462 S    
O10   C8    1.413027 S    
C27   C30   1.423438 A    
C6    H11   1.106760 S    
P2    O7    1.536343 D    
O2    Ba1   2.970921 S    
C26   C27   1.401759 A    
P7    C38   1.879183 S    
C17   H33   1.085462 S    
C32   C40   1.417357 A    
C31   C32   1.421718 A    
C7    H13   1.101968 S    
C34   H36   1.079441 S    
C2    C3    1.539697 S    
C12   N1    1.457362 S    
C14   H25   1.107598 S    
C39   C41   1.399838 A    
Ba2   O20   2.847492 S    
C3    N4    1.454948 S    
C42   H38   1.073187 S    
O16   Ba2   2.960464 S    
C24   C25   1.363843 D    
C9    H17   1.098434 S    
C1    C10   1.524926 S    
P1    C29   1.848050 S    
C15   H29   1.109699 S    
C38   C39   1.414762 A    
C34   C35   1.400814 A    
C48   H41   1.106743 S    
P8    O24   1.753199 S    
C53   C54   1.531350 S    
C40   C44   1.428549 A    
C31   C46   1.408837 A    
O8    Ba1   2.812863 S    
O6    C10   1.406939 S    
C50   H47   1.108268 S    
C56   H63   1.109185 S    
C49   H49   1.105406 S    
N4    H88   1.045209 S    
C35   H37   1.080146 S    
C17   C21   1.345409 D    
P4    Ba2   3.436382 S    
P3    C45   1.905563 S    
Ba1   Ba2   4.681691 S    
