data_mof_unit_41957.cif
_audit_creation_date              2012-12-10T20:28:41-0500
_audit_creation_method            fapswitch 2.2
_symmetry_space_group_name_H-M    P1
_symmetry_Int_Tables_number       1
_space_group_crystal_system       triclinic
_cell_length_a                    10.62401
_cell_length_b                    10.674632
_cell_length_c                    9.897377
_cell_angle_alpha                 89.285067
_cell_angle_beta                  89.361717
_cell_angle_gamma                 90.422053
_cell_volume                      1122.24712474

loop_
_atom_site_label
_atom_site_type_symbol
_atom_type_description
_atom_site_fract_x
_atom_site_fract_y
_atom_site_fract_z
_atom_type_partial_charge
C1    C     C_R   0.504718 0.259869 0.500399 0.895630
C2    C     C_R   0.542658 0.936855 0.375040 -0.218921
C3    C     C_R   0.529426 0.871037 0.497809 -0.098767
C4    C     C_R   0.260583 0.503383 0.500613 0.893184
C5    C     C_R   0.542462 0.933983 0.619263 0.120848
C6    C     C_3   0.467672 0.922827 0.747557 -0.467995
C7    C     C_3   0.465723 0.064534 0.748163 -0.489727
C8    C     C_R   0.395158 0.464369 0.072946 0.198663
C9    C     C_R   0.596665 0.553880 0.068657 -0.007334
C10   C     C_R   0.597406 0.550166 0.924828 -0.101245
C11   C     C_R   0.394478 0.465809 0.930887 0.111870
C12   C     C_R   0.065942 0.610925 0.566132 0.093517
C13   C     C_3   0.326415 0.343269 0.928162 -0.239761
C14   C     C_3   0.327418 0.341994 0.082297 -0.564831
C15   C     C_R   0.505425 0.739910 0.499196 0.844455
C16   C     C_R   0.739398 0.504126 0.499318 0.856725
C17   C     C_R   0.131158 0.710361 0.628558 -0.200211
C18   C     C_R   0.065462 0.807560 0.689566 -0.119423
C19   C     C_R   0.934518 0.808379 0.687924 -0.095132
C20   C     C_R   0.868860 0.712065 0.625197 -0.186167
C21   C     C_R   0.934039 0.611839 0.564346 0.099402
C22   C     C_2   0.698542 0.623966 0.134756 0.414554
C23   C     C_R   0.128297 0.511707 0.501262 -0.083742
C24   C     C_2   0.197215 0.355477 0.869469 0.490024
C25   C     C_R   0.064309 0.418942 0.431722 -0.169640
C26   C     C_R   0.935824 0.419901 0.429902 -0.173748
C27   C     C_R   0.871689 0.513481 0.497868 -0.088506
C28   C     C_R   0.541438 0.061935 0.620203 0.138255
C29   C     C_R   0.527819 0.128523 0.499487 -0.106325
C30   C     C_R   0.541939 0.066403 0.375875 -0.217184
H1    H     H_    0.114164 0.344341 0.381000 0.147358
H2    H     H_    0.116352 0.883168 0.736925 0.147278
H3    H     H_    0.883638 0.884574 0.734019 0.144516
H4    H     H_    0.767412 0.718274 0.623093 0.139424
H5    H     H_    0.885999 0.345741 0.378371 0.154140
H6    H     H_    0.542345 0.116416 0.279958 0.170425
H7    H     H_    0.543144 0.889512 0.278850 0.163936
H8    H     H_    0.373095 0.880078 0.733313 0.202509
H9    H     H_    0.681406 0.671464 0.228730 0.114391
H10   H     H_    0.133958 0.428082 0.904198 0.078363
H11   H     H_    0.523368 0.881499 0.831239 0.204148
H12   H     H_    0.369898 0.103101 0.732954 0.232525
H13   H     H_    0.520061 0.104641 0.832859 0.200837
H14   H     H_    0.675267 0.590342 0.867205 0.186668
H15   H     H_    0.384199 0.268740 0.883024 0.184797
H16   H     H_    0.233185 0.351249 0.131117 0.198277
H17   H     H_    0.386756 0.266503 0.125709 0.212470
H18   H     H_    0.232751 0.715233 0.629044 0.144770
N1    N     N_R   0.499160 0.499140 0.142800 -0.146617
N2    N     N_R   0.499160 0.499180 0.857150 -0.129718
O1    O     O_R   0.500020 0.316790 0.614690 -0.604735
O2    O     O_2   0.162686 0.284026 0.781777 -0.585666
O3    O     O_R   0.500000 0.316760 0.385350 -0.624211
O4    O     O_R   0.316770 0.500020 0.614690 -0.607870
O5    O     O_R   0.316760 0.499980 0.385350 -0.612812
O6    O     O_R   0.500000 0.683240 0.614650 -0.632332
O7    O     O_R   0.499980 0.683210 0.385310 -0.647920
O8    O     O_R   0.683240 0.500020 0.614650 -0.620004
O9    O     O_R   0.683230 0.499980 0.385310 -0.637218
O10   O     O_2   0.802743 0.633310 0.082064 -0.592469
Zn1   Zn    Zn3+2 0.500010 0.500020 0.653130 0.949875
Zn2   Zn    Zn3+2 0.499990 0.499980 0.346870 0.936397

loop_
_geom_bond_atom_site_label_1
_geom_bond_atom_site_label_2
_ccdc_geom_bond_type
C12   C17   A    
C25   H1    S    
C6    H8    S    
C24   O2    D    
C6    C7    S    
O4    Zn1   S    
C7    H13   S    
C1    O1    A    
C5    C28   A    
C15   O7    A    
C9    C10   A    
C19   C20   A    
C12   C23   A    
C17   H18   S    
C30   H6    S    
C2    C30   A    
C20   H4    S    
C15   O6    A    
O8    Zn1   S    
C1    C29   S    
C2    C3    A    
C21   C27   A    
C3    C15   S    
O7    Zn2   S    
C14   H16   S    
C11   N2    A    
C16   O8    A    
C13   C14   S    
C13   H15   S    
C11   C13   S    
C2    H7    S    
C26   C27   A    
C29   C30   A    
C16   C27   S    
C8    C11   A    
C22   H9    S    
C8    N1    A    
C28   C29   A    
C24   H10   S    
C17   C18   A    
C23   C25   A    
C4    O5    A    
C22   O10   D    
C5    C6    S    
C9    C22   S    
C18   H2    S    
C10   H14   S    
C10   N2    A    
O5    Zn2   S    
C26   H5    S    
C9    N1    A    
C20   C21   A    
C18   C19   A    
O3    Zn2   S    
C7    H12   S    
N2    Zn1   S    
C4    C23   S    
C1    O3    A    
O6    Zn1   S    
O9    Zn2   S    
C8    C14   S    
N1    Zn2   S    
C4    O4    A    
C25   C26   A    
C14   H17   S    
C12   C21   A    
C16   O9    A    
C7    C28   S    
C13   C24   S    
C19   H3    S    
C3    C5    A    
C6    H11   S    
O1    Zn1   S    
