data_mof_unit_52820.cif
_audit_creation_date              2012-12-11T14:46:15-0500
_audit_creation_method            fapswitch 2.2
_symmetry_space_group_name_H-M    P1
_symmetry_Int_Tables_number       1
_space_group_crystal_system       triclinic
_cell_length_a                    10.802665
_cell_length_b                    10.917978
_cell_length_c                    18.712995
_cell_angle_alpha                 90.449766
_cell_angle_beta                  89.229278
_cell_angle_gamma                 119.416602
_cell_volume                      1922.34135548

loop_
_atom_site_label
_atom_site_type_symbol
_atom_type_description
_atom_site_fract_x
_atom_site_fract_y
_atom_site_fract_z
_atom_type_partial_charge
C1    C     C_R   0.862179 0.639285 0.602248 0.531265
C2    C     C_R   0.926288 0.153933 0.710943 -0.010303
C3    C     C_R   0.951589 0.156281 0.784653 -0.003762
C4    C     C_R   0.207913 0.595622 0.611102 0.550018
C5    C     C_R   0.772496 0.259882 0.734421 -0.010161
C6    C     C_R   0.806027 0.266950 0.807567 -0.027981
C7    C     C_R   0.659800 0.289959 0.716799 0.293279
C8    C     C_R   0.602299 0.340430 0.769096 -0.098056
C9    C     C_R   0.649254 0.360147 0.838542 -0.162340
C10   C     C_R   0.754586 0.329950 0.857134 -0.100534
C11   C     C_R   0.849267 0.218451 0.685171 -0.034155
C12   C     C_R   0.256580 0.533465 0.801440 -0.132908
C13   C     C_R   0.717190 0.681617 0.693075 -0.130914
C14   C     C_R   0.696598 0.703779 0.764759 -0.139820
C15   C     C_R   0.786609 0.698760 0.816620 0.036389
C16   C     C_R   0.877392 0.274272 0.611789 0.542520
C17   C     C_R   0.893813 0.667946 0.797610 -0.110931
C18   C     C_R   0.911848 0.643293 0.727139 -0.120296
C19   C     C_R   0.826576 0.653390 0.674847 0.050735
C20   C     C_R   0.235044 0.511424 0.272752 -0.136622
C21   C     C_R   0.272395 0.535194 0.201668 -0.126012
C22   C     C_R   0.304357 0.664130 0.169267 0.037939
C23   C     C_R   0.222380 0.510558 0.729887 -0.149534
C24   C     C_R   0.270028 0.755659 0.205917 -0.098634
C25   C     C_R   0.228403 0.729517 0.277926 -0.121841
C26   C     C_R   0.222283 0.612507 0.312716 0.024020
C27   C     C_R   0.695836 0.088184 0.302165 -0.100279
C28   C     C_R   0.864419 0.639631 0.398288 0.541796
C29   C     C_R   0.675227 0.060679 0.229609 0.256310
C30   C     C_R   0.788528 0.072819 0.186597 0.034491
C31   C     C_R   0.920991 0.112624 0.217584 -0.186073
C32   C     C_R   0.942666 0.148932 0.289525 -0.165428
C33   C     C_R   0.831897 0.144419 0.330878 -0.014017
C34   C     C_R   0.240534 0.621947 0.686833 0.013666
C35   C     C_R   0.913582 0.785152 0.293043 -0.136989
C36   C     C_R   0.910543 0.790880 0.220211 -0.133113
C37   C     C_R   0.808801 0.675664 0.181155 0.034218
C38   C     C_R   0.708732 0.554391 0.216617 -0.138797
C39   C     C_R   0.716476 0.545814 0.290378 -0.127010
C40   C     C_R   0.202067 0.593018 0.389991 0.579189
C41   C     C_R   0.822733 0.659957 0.328255 0.035106
C42   C     C_R   0.814716 0.111902 0.898198 0.542432
C43   C     C_R   0.390935 0.699020 0.897747 0.533431
C44   C     C_R   0.773662 0.731123 0.890192 0.566009
C45   C     C_R   0.875460 0.195740 0.832620 -0.032566
C46   C     C_R   0.766238 0.041772 0.110268 0.597420
C47   C     C_R   0.388425 0.701088 0.102410 0.555226
C48   C     C_R   0.796218 0.697843 0.106124 0.548324
C49   C     C_R   0.860076 0.222818 0.397547 0.548669
C50   C     C_R   0.283611 0.754742 0.717426 -0.149140
C51   C     C_R   0.322501 0.779298 0.788841 -0.153083
C52   C     C_R   0.314951 0.669826 0.830383 0.021417
C53   C     C_3   0.480291 0.119619 0.651765 0.018319
C54   C     C_3   0.382497 0.095156 0.588293 -0.259606
C55   C     C_3   0.458736 0.117815 0.516319 -0.340938
C56   C     C_R   0.049182 0.114515 0.808345 -0.088556
C57   C     C_3   0.516445 0.130532 0.193536 0.021528
C58   C     C_3   0.428860 0.138474 0.257052 -0.288769
C59   C     C_3   0.331107 0.195567 0.235511 -0.491331
C60   C     C_R   0.103311 0.052294 0.761502 -0.121316
C61   C     C_R   0.061356 0.030913 0.690635 -0.124395
C62   C     C_R   0.974242 0.081404 0.665232 -0.085929
Cr1   Cr    Cr6+3 0.791660 0.390250 0.499930 1.003413
Cr2   Cr    Cr6+3 0.098520 0.708290 0.500540 0.974910
Cr3   Cr    Cr6+3 0.109770 0.401430 0.499480 0.995559
Cr4   Cr    Cr6+3 0.874790 0.925890 0.000070 0.989437
Cr5   Cr    Cr6+3 0.574120 0.948670 0.999300 1.010170
Cr6   Cr    Cr6+3 0.551420 0.625320 0.000920 0.987842
H1    H     H_    0.290907 0.840134 0.685798 0.113737
H2    H     H_    0.280970 0.848800 0.180172 0.147968
H3    H     H_    0.365454 0.884772 0.810168 0.126035
H4    H     H_    0.206978 0.803021 0.307141 0.124938
H5    H     H_    0.607116 0.075134 0.335135 0.135405
H6    H     H_    0.009580 0.121916 0.185749 0.130074
H7    H     H_    0.047023 0.187090 0.311797 0.120402
H8    H     H_    0.995245 0.875726 0.320904 0.130897
H9    H     H_    0.987779 0.887847 0.194883 0.130555
H10   H     H_    0.627461 0.466905 0.187191 0.110694
H11   H     H_    0.644724 0.448607 0.317177 0.127071
H12   H     H_    0.516977 0.361042 0.755660 0.133285
H13   H     H_    0.246516 0.445913 0.832745 0.135031
H14   H     H_    0.185386 0.406649 0.707684 0.140167
H15   H     H_    0.175115 0.017545 0.780621 0.105076
H16   H     H_    0.097080 0.975930 0.655130 0.127864
H17   H     H_    0.086488 0.131746 0.862753 0.133292
H18   H     H_    0.940960 0.058527 0.610228 0.142725
H19   H     H_    0.788403 0.345693 0.912320 0.137076
H20   H     H_    0.413453 0.094597 0.701236 0.083374
H21   H     H_    0.524176 0.046371 0.647887 0.146997
H22   H     H_    0.293198 0.985445 0.590066 0.130785
H23   H     H_    0.599997 0.394005 0.878665 0.154018
H24   H     H_    0.337256 0.167032 0.592665 0.154865
H25   H     H_    0.539100 0.230285 0.509511 0.207380
H26   H     H_    0.380564 0.087638 0.472566 0.094426
H27   H     H_    0.510859 0.052037 0.512131 0.165689
H28   H     H_    0.454978 0.111548 0.143617 0.159645
H29   H     H_    0.615225 0.233809 0.185957 0.123919
H30   H     H_    0.362611 0.032847 0.280516 0.173160
H31   H     H_    0.501421 0.206967 0.299266 0.138546
H32   H     H_    0.392785 0.300760 0.210677 0.145142
H33   H     H_    0.275476 0.204992 0.283721 0.138598
H34   H     H_    0.650939 0.689092 0.652341 0.122751
H35   H     H_    0.250370 0.122791 0.197180 0.137458
H36   H     H_    0.613953 0.728352 0.779545 0.117291
H37   H     H_    0.962463 0.661570 0.837376 0.137828
H38   H     H_    0.992729 0.616471 0.713026 0.109593
H39   H     H_    0.224168 0.417250 0.297252 0.123253
H40   H     H_    0.287616 0.455876 0.174162 0.136867
O1    O     O_R   0.766500 0.250040 0.579790 -0.464701
O2    O     O_R   0.413330 0.603360 0.920440 -0.534854
O3    O     O_R   0.676110 0.626250 0.926750 -0.512983
O4    O     O_R   0.798570 0.516780 0.574780 -0.471917
O5    O     O_R   0.895350 0.809870 0.080950 -0.534825
O6    O     O_R   0.872490 0.049760 0.073800 -0.523653
O7    O     O_R   0.691680 0.088070 0.079070 -0.499265
O8    O     O_R   0.451720 0.825250 0.074050 -0.485146
O9    O     O_R   0.413580 0.606370 0.080960 -0.531848
O10   O     O_R   0.676340 0.629040 0.075550 -0.498530
O11   O     O_3   0.666780 0.833290 0.000090 -0.276943
O12   O     O_R   0.218690 0.701900 0.425960 -0.497199
O13   O     O_R   0.984000 0.732950 0.581090 -0.545930
O14   O     O_R   0.218600 0.700890 0.574760 -0.505266
O15   O     O_R   0.249390 0.515350 0.579940 -0.504360
O16   O     O_R   0.982790 0.280900 0.573700 -0.530481
O17   O     O_R   0.766600 0.251130 0.419260 -0.542740
O18   O     O_R   0.798660 0.517790 0.425980 -0.510552
O19   O     O_R   0.984100 0.734040 0.420570 -0.538152
O20   O     O_3   0.591940 0.260462 0.651900 -0.521784
O21   O     O_3   0.542360 0.015888 0.201217 -0.570399
O22   O     O_R   0.249490 0.516440 0.419420 -0.509800
O23   O     O_R   0.982880 0.281910 0.424890 -0.515832
O24   O     O_3   0.999980 0.499990 0.499980 -0.292235
O25   O     O_R   0.895110 0.806860 0.920430 -0.519709
O26   O     O_R   0.872260 0.046970 0.925000 -0.519661
O27   O     O_R   0.691430 0.085060 0.918550 -0.512445
O28   O     O_R   0.451490 0.822460 0.925250 -0.505572

loop_
_geom_bond_atom_site_label_1
_geom_bond_atom_site_label_2
_ccdc_geom_bond_type
C23   H14   S    
C27   C29   A    
C35   C36   A    
C58   H30   S    
C55   H25   S    
C9    H23   S    
C32   H7    S    
Cr3   O22   S    
C57   C58   S    
C24   H2    S    
C7    C8    A    
C39   C41   A    
C53   C54   S    
C27   C33   A    
C62   H18   S    
C12   C23   A    
C29   C30   A    
C46   O7    A    
C57   O21   S    
C36   C37   A    
C6    C45   A    
C50   H1    S    
C15   C44   S    
C54   H22   S    
C36   H9    S    
Cr6   O11   S    
C30   C31   A    
C60   H15   S    
C43   C52   S    
C33   C49   S    
Cr2   O13   S    
C28   C41   S    
C18   C19   A    
C11   C16   S    
Cr3   O16   S    
Cr1   O4    S    
Cr5   O7    S    
Cr6   O10   S    
C21   C22   A    
Cr4   O26   S    
C29   O21   S    
Cr2   O24   S    
C8    C9    A    
C57   H28   S    
C43   O2    A    
C7    O20   S    
C9    C10   A    
C28   O19   A    
C20   H39   S    
Cr2   O19   S    
C22   C47   S    
C13   C14   A    
C59   H32   S    
C43   O28   A    
C51   H3    S    
C55   H26   S    
C2    C11   A    
Cr3   O23   S    
C28   O18   A    
C16   O1    A    
C50   C51   A    
C47   O8    A    
C35   H8    S    
C4    C34   S    
C10   H19   S    
C34   C50   A    
C1    C19   S    
C46   O6    A    
C51   C52   A    
C59   H33   S    
C38   C39   A    
C24   C25   A    
C55   H27   S    
C5    C7    A    
C13   C19   A    
C31   H6    S    
C48   O10   A    
C38   H10   S    
C58   C59   S    
C3    C45   A    
C56   C60   A    
C4    O15   A    
C60   C61   A    
C42   C45   S    
C39   H11   S    
Cr1   O1    S    
Cr5   O27   S    
Cr5   O8    S    
C18   H38   S    
C54   H24   S    
C37   C38   A    
C53   O20   S    
C17   H37   S    
Cr6   O9    S    
Cr4   O25   S    
C49   O23   A    
C3    C56   A    
C14   H36   S    
C31   C32   A    
C23   C34   A    
C57   H29   S    
C17   C18   A    
C4    O14   A    
C25   H4    S    
Cr6   O2    S    
Cr1   O24   S    
C37   C48   S    
Cr1   O17   S    
C40   O12   A    
Cr4   O5    S    
Cr4   O11   S    
C53   H21   S    
C22   C24   A    
Cr3   O24   S    
C44   O25   A    
C15   C17   A    
C40   O22   A    
C54   C55   S    
Cr4   O6    S    
C30   C46   S    
C58   H31   S    
C61   H16   S    
C6    C10   A    
C5    C11   A    
C49   O17   A    
C12   C52   A    
Cr2   O12   S    
C42   O26   A    
C59   H35   S    
C32   C33   A    
C2    C3    A    
C25   C26   A    
C1    O4    A    
C26   C40   S    
C56   H17   S    
C5    C6    A    
C20   C26   A    
Cr2   O14   S    
C12   H13   S    
Cr5   O28   S    
C53   H20   S    
Cr3   O15   S    
C16   O16   A    
C61   C62   A    
C35   C41   A    
C1    O13   A    
C21   H40   S    
C44   O3    A    
Cr1   O18   S    
C47   O9    A    
C20   C21   A    
C8    H12   S    
C14   C15   A    
C42   O27   A    
C13   H34   S    
C27   H5    S    
Cr5   O11   S    
Cr6   O3    S    
C2    C62   A    
C48   O5    A    
