data_mof_unit_65402.cif
_audit_creation_date              2013-03-05T16:03:22-0500
_audit_creation_method            fapswitch 2.2
_symmetry_space_group_name_H-M    P1
_symmetry_Int_Tables_number       1
_space_group_crystal_system       triclinic
_cell_length_a                    18.286383
_cell_length_b                    18.327969
_cell_length_c                    43.10122
_cell_angle_alpha                 89.996249
_cell_angle_beta                  89.915522
_cell_angle_gamma                 89.937009
_cell_volume                      14445.4468629

loop_
_atom_site_label
_atom_site_type_symbol
_atom_site_description
_atom_site_fract_x
_atom_site_fract_y
_atom_site_fract_z
_atom_type_partial_charge
Zn1   Zn    Zn3+2 0.500000 0.086800 0.724180 1.090085
Zn2   Zn    Zn3+2 0.500000 0.913200 0.275820 1.101150
Zn3   Zn    Zn3+2 0.913200 0.500000 0.724180 1.092992
Zn4   Zn    Zn3+2 0.086800 0.500000 0.275820 1.085816
Zn5   Zn    Zn3+2 0.500000 0.913200 0.724180 1.093852
Zn6   Zn    Zn3+2 0.500000 0.086800 0.275820 1.091837
Zn7   Zn    Zn3+2 0.086800 0.500000 0.724180 1.095658
Zn8   Zn    Zn3+2 0.913200 0.500000 0.275820 1.086868
Zn9   Zn    Zn3+2 0.000000 0.586800 0.224180 1.091896
Zn10  Zn    Zn3+2 1.000000 0.413200 0.775820 1.086509
Zn11  Zn    Zn3+2 0.413200 0.000000 0.224180 1.081115
Zn12  Zn    Zn3+2 0.586800 0.000000 0.775820 1.097462
Zn13  Zn    Zn3+2 0.000000 0.413200 0.224180 1.089735
Zn14  Zn    Zn3+2 0.000000 0.586800 0.775820 1.091287
Zn15  Zn    Zn3+2 0.586800 0.000000 0.224180 1.098275
Zn16  Zn    Zn3+2 0.413200 0.000000 0.775820 1.109535
C1    C     C_R   0.065895 0.486546 0.884292 -0.155769
C2    C     C_R   0.934968 0.517647 0.115597 -0.166506
C3    C     C_R   0.555952 0.966649 0.885346 -0.170835
C4    C     C_R   0.447568 0.958804 0.114958 -0.161239
C5    C     C_R   0.933123 0.509180 0.884429 -0.173471
C6    C     C_R   0.064833 0.481805 0.115529 -0.166781
C7    C     C_R   0.443615 0.040870 0.884482 -0.144510
C8    C     C_R   0.552331 0.042610 0.115010 -0.186921
C9    C     C_R   0.566566 0.981308 0.384138 -0.169680
C10   C     C_R   0.435271 0.015965 0.615472 -0.153348
C11   C     C_R   0.018279 0.565227 0.384321 -0.169417
C12   C     C_R   0.983835 0.435529 0.615505 -0.173471
C13   C     C_R   0.438306 0.022401 0.384807 -0.179551
C14   C     C_R   0.566190 0.984547 0.615725 -0.180742
C15   C     C_R   0.980697 0.436207 0.384589 -0.168619
C16   C     C_R   0.011901 0.566928 0.615722 -0.174192
C17   C     C_R   0.065120 0.484105 0.917037 0.304236
C18   C     C_R   0.935767 0.518875 0.082815 0.301730
C19   C     C_R   0.555889 0.969519 0.917906 0.289212
C20   C     C_R   0.446449 0.960714 0.082449 0.282773
C21   C     C_R   0.933197 0.506898 0.917203 0.303185
C22   C     C_R   0.063715 0.479289 0.082767 0.302176
C23   C     C_R   0.442000 0.039929 0.917097 0.289697
C24   C     C_R   0.553353 0.040765 0.082361 0.294259
C25   C     C_R   0.567340 0.982912 0.416915 0.302233
C26   C     C_R   0.435842 0.014771 0.582696 0.298325
C27   C     C_R   0.019516 0.564765 0.417099 0.300687
C28   C     C_R   0.981283 0.436880 0.582771 0.299380
C29   C     C_R   0.440143 0.024483 0.417550 0.300652
C30   C     C_R   0.566806 0.986699 0.582970 0.297033
C31   C     C_R   0.978159 0.437728 0.417347 0.300335
C32   C     C_R   0.009643 0.567353 0.582950 0.301269
O1    O     O_3   0.500000 1.000000 0.750000 -0.558931
O2    O     O_3   0.500000 0.000000 0.250000 -0.555473
O3    O     O_3   1.000000 0.500000 0.750000 -0.561141
O4    O     O_3   0.000000 0.500000 0.250000 -0.560449
O5    O     O_R   0.439140 0.000000 0.819450 -0.627659
O6    O     O_R   0.560860 0.000000 0.180550 -0.620811
O7    O     O_R   0.000000 0.439140 0.819450 -0.614180
O8    O     O_R   0.000000 0.560860 0.180550 -0.604531
O9    O     O_R   0.560860 0.000000 0.819450 -0.630217
O10   O     O_R   0.439140 0.000000 0.180550 -0.644804
O11   O     O_R   0.000000 0.560860 0.819450 -0.604726
O12   O     O_R   1.000000 0.439140 0.180550 -0.604138
O13   O     O_R   0.939140 0.500000 0.319450 -0.606849
O14   O     O_R   0.060860 0.500000 0.680550 -0.621558
O15   O     O_R   0.500000 0.939140 0.319450 -0.611734
O16   O     O_R   0.500000 0.060860 0.680550 -0.620020
O17   O     O_R   0.060860 0.500000 0.319450 -0.606028
O18   O     O_R   0.939140 0.500000 0.680550 -0.597267
O19   O     O_R   0.500000 0.060860 0.319450 -0.601747
O20   O     O_R   0.500000 0.939140 0.680550 -0.604210
O21   O     O_R   0.646030 0.085480 0.768310 -0.603616
O22   O     O_R   0.353970 0.914520 0.231690 -0.621835
O23   O     O_R   0.914520 0.646030 0.768310 -0.598846
O24   O     O_R   0.085480 0.353970 0.231690 -0.601790
O25   O     O_R   0.353970 0.914520 0.768310 -0.580916
O26   O     O_R   0.646030 0.085480 0.231690 -0.611148
O27   O     O_R   0.085480 0.353970 0.768310 -0.614939
O28   O     O_R   0.914520 0.646030 0.231690 -0.600381
O29   O     O_R   0.646030 0.914520 0.231690 -0.604791
O30   O     O_R   0.353970 0.085480 0.768310 -0.602332
O31   O     O_R   0.914520 0.353970 0.231690 -0.603262
O32   O     O_R   0.085480 0.646030 0.768310 -0.610557
O33   O     O_R   0.353970 0.085480 0.231690 -0.611930
O34   O     O_R   0.646030 0.914520 0.768310 -0.618420
O35   O     O_R   0.085480 0.646030 0.231690 -0.601206
O36   O     O_R   0.914520 0.353970 0.768310 -0.596816
O37   O     O_R   0.146030 0.585480 0.268310 -0.604295
O38   O     O_R   0.853970 0.414520 0.731690 -0.604129
O39   O     O_R   0.414520 0.146030 0.268310 -0.609036
O40   O     O_R   0.585480 0.853970 0.731690 -0.606577
O41   O     O_R   0.853970 0.414520 0.268310 -0.605113
O42   O     O_R   0.146030 0.585480 0.731690 -0.585831
O43   O     O_R   0.585480 0.853970 0.268310 -0.601410
O44   O     O_R   0.414520 0.146030 0.731690 -0.615399
O45   O     O_R   0.146030 0.414520 0.731690 -0.595441
O46   O     O_R   0.853970 0.585480 0.268310 -0.607963
O47   O     O_R   0.414520 0.853970 0.731690 -0.613204
O48   O     O_R   0.585480 0.146030 0.268310 -0.606193
O49   O     O_R   0.853970 0.585480 0.731690 -0.610334
O50   O     O_R   0.146030 0.414520 0.268310 -0.607624
O51   O     O_R   0.585480 0.146030 0.731690 -0.598210
O52   O     O_R   0.414520 0.853970 0.268310 -0.602442
C33   C     C_R   0.999817 0.499838 0.868174 -0.185097
C34   C     C_R   0.999954 0.499937 0.131789 -0.181933
C35   C     C_R   0.499793 0.002571 0.868490 -0.202885
C36   C     C_R   0.499458 0.001141 0.131465 -0.190886
C37   C     C_R   0.501417 0.000103 0.368246 -0.183130
C38   C     C_R   0.500452 0.000056 0.631810 -0.186029
C39   C     C_R   0.999759 0.500462 0.368229 -0.185442
C40   C     C_R   0.999914 0.500614 0.631802 -0.185614
C41   C     C_R   0.997060 0.561687 0.983259 -0.068061
C42   C     C_R   0.001346 0.430615 0.016554 -0.047210
C43   C     C_R   0.495078 0.069739 0.984184 -0.038742
C44   C     C_R   0.500906 0.936437 0.015684 -0.034002
C45   C     C_R   0.001076 0.429361 0.984196 -0.013638
C46   C     C_R   0.996971 0.562952 0.015628 -0.040607
C47   C     C_R   0.498247 0.937282 0.983533 -0.047962
C48   C     C_R   0.493985 0.068747 0.016384 -0.046450
C49   C     C_R   0.470793 0.946122 0.483360 -0.069967
C50   C     C_R   0.536398 0.059646 0.516629 -0.050706
C51   C     C_R   0.930286 0.501637 0.483499 -0.049804
C52   C     C_R   0.061771 0.503392 0.516664 -0.071871
C53   C     C_R   0.537237 0.060647 0.484275 -0.014267
C54   C     C_R   0.469555 0.945330 0.515722 -0.041631
C55   C     C_R   0.062984 0.503356 0.484299 -0.042229
C56   C     C_R   0.929091 0.502055 0.515855 -0.015909
H1    H     H_    0.995379 0.612569 0.970495 0.181082
H2    H     H_    0.002837 0.379696 0.029297 0.179651
H3    H     H_    0.494538 0.121621 0.972160 0.187038
H4    H     H_    0.504888 0.884657 0.027667 0.193421
H5    H     H_    0.002212 0.377491 0.972162 0.183654
H6    H     H_    0.995371 0.614822 0.027653 0.180487
H7    H     H_    0.498710 0.886076 0.970991 0.187045
H8    H     H_    0.490777 0.119826 0.028943 0.187142
H9    H     H_    0.445187 0.902133 0.470602 0.179653
H10   H     H_    0.561729 0.103822 0.529369 0.177484
H11   H     H_    0.879216 0.501094 0.470803 0.176647
H12   H     H_    0.112817 0.504014 0.529378 0.175652
H13   H     H_    0.562941 0.105735 0.472234 0.183708
H14   H     H_    0.443229 0.900596 0.527760 0.178384
H15   H     H_    0.114968 0.503838 0.472222 0.176784
H16   H     H_    0.877108 0.502000 0.527934 0.182144
C57   C     C_R   0.502494 0.002021 0.532455 0.130054
C58   C     C_R   0.504818 0.003679 0.467551 0.115244
C59   C     C_R   0.994823 0.502445 0.532530 0.117912
C60   C     C_R   0.997237 0.502219 0.467613 0.130242
C61   C     C_R   0.999317 0.497414 0.032384 0.127130
C62   C     C_R   0.999370 0.494896 0.967456 0.115714
C63   C     C_R   0.498217 0.002125 0.032249 0.116739
C64   C     C_R   0.496690 0.003959 0.967644 0.120188
C65   C     C_R   0.499951 0.000481 0.834240 0.797114
C66   C     C_R   0.499917 0.000029 0.165744 0.822847
C67   C     C_R   0.999822 0.499985 0.834089 0.749723
C68   C     C_R   0.999979 0.499999 0.165895 0.749911
C69   C     C_R   0.999945 0.500045 0.334126 0.755651
C70   C     C_R   0.000023 0.500202 0.665886 0.748726
C71   C     C_R   0.500322 0.000006 0.334117 0.753494
C72   C     C_R   0.499992 0.000004 0.665905 0.750982
C73   C     C_R   0.640082 0.139867 0.750002 0.972684
C74   C     C_R   0.359865 0.860155 0.250057 0.972918
C75   C     C_R   0.859973 0.639885 0.750104 0.935466
C76   C     C_R   0.140128 0.360179 0.249830 0.929333
C77   C     C_R   0.359999 0.860005 0.750152 0.944540
C78   C     C_R   0.640302 0.139787 0.250002 0.922123
C79   C     C_R   0.140278 0.360313 0.750031 0.931373
C80   C     C_R   0.859896 0.639854 0.249852 0.929397
C81   C     C_R   0.640099 0.860125 0.250137 0.934186
C82   C     C_R   0.359722 0.139687 0.749974 0.928635
C83   C     C_R   0.860115 0.359950 0.250234 0.925191
C84   C     C_R   0.139957 0.640042 0.749819 0.939395
C85   C     C_R   0.360116 0.140047 0.249988 0.951137
C86   C     C_R   0.639895 0.859938 0.749995 0.952568
C87   C     C_R   0.139684 0.640264 0.250267 0.917664
C88   C     C_R   0.860085 0.359922 0.749861 0.941602
C89   C     C_R   0.323956 0.269470 0.754800 0.207911
C90   C     C_R   0.727671 0.781596 0.278242 0.204809
C91   C     C_R   0.781265 0.272817 0.721637 0.205603
C92   C     C_R   0.219553 0.726477 0.278682 0.209943
C93   C     C_R   0.730123 0.784142 0.722069 0.205092
C94   C     C_R   0.272958 0.218994 0.278061 0.203886
C95   C     C_R   0.217456 0.728776 0.721761 0.207647
C96   C     C_R   0.777112 0.276809 0.278697 0.205453
C97   C     C_R   0.272739 0.781396 0.278653 0.210494
C98   C     C_R   0.728224 0.217792 0.721556 0.214467
C99   C     C_R   0.783014 0.728797 0.278257 0.215529
C100  C     C_R   0.269954 0.323662 0.753962 0.191311
C101  C     C_R   0.724532 0.221351 0.278761 0.216102
C102  C     C_R   0.270023 0.784307 0.721814 0.224682
C103  C     C_R   0.217870 0.272011 0.278188 0.204927
C104  C     C_R   0.785274 0.731082 0.721942 0.205707
C105  C     C_R   0.772327 0.718336 0.221725 0.205686
C106  C     C_R   0.176032 0.230518 0.745234 0.212328
C107  C     C_R   0.279774 0.773897 0.221899 0.192344
C108  C     C_R   0.719406 0.226362 0.778209 0.207698
C109  C     C_R   0.227552 0.281472 0.221570 0.205853
C110  C     C_R   0.769263 0.715070 0.778033 0.208319
C111  C     C_R   0.724861 0.222016 0.221937 0.204825
C112  C     C_R   0.282387 0.771387 0.778181 0.198027
C113  C     C_R   0.772372 0.281483 0.778281 0.208497
C114  C     C_R   0.225740 0.719956 0.222018 0.216339
C115  C     C_R   0.230034 0.176325 0.746080 0.192086
C116  C     C_R   0.717042 0.771205 0.221714 0.210298
C117  C     C_R   0.229881 0.715821 0.778123 0.225110
C118  C     C_R   0.776459 0.278129 0.221849 0.216395
C119  C     C_R   0.713886 0.767899 0.778079 0.223412
C120  C     C_R   0.282716 0.228458 0.221488 0.211261
C121  C     C_R   0.196300 0.304023 0.749351 -0.315293
C122  C     C_R   0.804759 0.697007 0.249954 -0.319659
C123  C     C_R   0.696968 0.195308 0.749883 -0.313200
C124  C     C_R   0.303211 0.804417 0.250219 -0.322606
C125  C     C_R   0.804595 0.696799 0.750034 -0.314169
C126  C     C_R   0.195523 0.303228 0.249866 -0.315387
C127  C     C_R   0.302648 0.805044 0.750063 -0.313567
C128  C     C_R   0.697931 0.194616 0.250278 -0.322452
C129  C     C_R   0.196193 0.696064 0.250374 -0.316844
C130  C     C_R   0.803138 0.304486 0.749922 -0.308293
C131  C     C_R   0.695255 0.802961 0.250020 -0.321748
C132  C     C_R   0.303694 0.195971 0.750668 -0.316446
C133  C     C_R   0.802969 0.304911 0.250265 -0.323987
C134  C     C_R   0.197254 0.695068 0.749881 -0.310055
C135  C     C_R   0.304750 0.197020 0.249797 -0.319248
C136  C     C_R   0.695268 0.802912 0.750094 -0.313253
C137  C     C_R   0.998928 0.493619 0.933278 -0.196240
C138  C     C_R   0.999629 0.498661 0.066596 -0.190646
C139  C     C_R   0.498209 0.004654 0.933616 -0.170967
C140  C     C_R   0.499635 0.000957 0.066277 -0.154336
C141  C     C_R   0.504657 0.005269 0.433381 -0.191982
C142  C     C_R   0.501647 0.001043 0.566647 -0.192951
C143  C     C_R   0.998429 0.501539 0.433411 -0.191981
C144  C     C_R   0.993620 0.502610 0.566709 -0.193572
C145  C     C_2   0.135141 0.474625 0.866562 0.598829
H17   H     H_    0.140122 0.493603 0.842818 0.068488
O53   O     O_2   0.186802 0.441815 0.877836 -0.431503
C146  C     C_2   0.865949 0.531756 0.133215 0.647971
H18   H     H_    0.867729 0.548487 0.157319 0.071392
O54   O     O_2   0.806014 0.522408 0.121439 -0.408857
C147  C     C_2   0.613947 0.924441 0.869090 0.654828
H19   H     H_    0.599931 0.890560 0.849390 0.104991
O55   O     O_2   0.677851 0.928460 0.877085 -0.419416
C148  C     C_2   0.394360 0.911503 0.131242 0.616686
H20   H     H_    0.354939 0.934629 0.147267 0.112281
O56   O     O_2   0.394495 0.845780 0.126734 -0.392919
C149  C     C_2   0.863469 0.518369 0.866798 0.648673
H21   H     H_    0.864158 0.538902 0.843204 0.072536
O57   O     O_2   0.804632 0.500853 0.877936 -0.408813
C150  C     C_2   0.134033 0.468418 0.133037 0.645818
H22   H     H_    0.132512 0.452480 0.157245 0.069582
O58   O     O_2   0.193840 0.477517 0.121033 -0.408610
C151  C     C_2   0.387568 0.083589 0.867214 0.630326
H23   H     H_    0.403211 0.115059 0.846936 0.063603
O59   O     O_2   0.323352 0.082746 0.875011 -0.439063
C152  C     C_2   0.605557 0.089130 0.131862 0.669113
H24   H     H_    0.588965 0.117247 0.152854 0.080090
O60   O     O_2   0.668586 0.095276 0.122857 -0.398888
C153  C     C_2   0.634221 0.963109 0.366207 0.645722
H25   H     H_    0.631031 0.947877 0.341961 0.071716
O61   O     O_2   0.694836 0.967072 0.377909 -0.401845
C154  C     C_2   0.367234 0.034388 0.632993 0.600863
H26   H     H_    0.359950 0.015677 0.656676 0.065061
O62   O     O_2   0.319497 0.072535 0.621635 -0.437703
C155  C     C_2   0.033127 0.633738 0.366614 0.647978
H27   H     H_    0.049909 0.631538 0.342507 0.072277
O63   O     O_2   0.024313 0.693760 0.378324 -0.402777
C156  C     C_2   0.969441 0.366662 0.633017 0.631169
H28   H     H_    0.988004 0.360690 0.656777 0.045306
O64   O     O_2   0.935183 0.316372 0.621513 -0.396764
C157  C     C_2   0.371023 0.043940 0.367549 0.654581
H29   H     H_    0.361076 0.022863 0.344420 0.074613
O65   O     O_2   0.326973 0.086954 0.378494 -0.398973
C158  C     C_2   0.633675 0.965837 0.633467 0.659116
H30   H     H_    0.640090 0.983885 0.657274 0.073581
O66   O     O_2   0.681949 0.928248 0.622123 -0.396718
C159  C     C_2   0.966395 0.367174 0.367197 0.646232
H31   H     H_    0.950237 0.368656 0.343021 0.070658
O67   O     O_2   0.974966 0.307516 0.379262 -0.404434
C160  C     C_2   0.023551 0.635842 0.633526 0.646084
H32   H     H_    0.044053 0.634158 0.657106 0.073302
O68   O     O_2   0.008069 0.695279 0.622549 -0.400130
N1    N     N_R   0.398963 0.289111 0.760445 0.253721
O69   O     O_R   0.428952 0.342704 0.745276 -0.251078
O70   O     O_R   0.436862 0.255051 0.781494 -0.344369
N2    N     N_R   0.708475 0.817574 0.306642 0.222398
O71   O     O_R   0.754962 0.861539 0.319732 -0.287539
O72   O     O_R   0.650030 0.797921 0.321707 -0.305375
N3    N     N_R   0.817277 0.292115 0.693237 0.231686
O73   O     O_R   0.861336 0.245774 0.680032 -0.259999
O74   O     O_R   0.797988 0.350838 0.678389 -0.287376
N4    N     N_R   0.185200 0.705837 0.307278 0.224533
O75   O     O_R   0.142650 0.751872 0.321529 -0.288009
O76   O     O_R   0.205500 0.646474 0.321407 -0.302287
N5    N     N_R   0.713618 0.823276 0.694177 0.245544
O77   O     O_R   0.739479 0.888670 0.690146 -0.326295
O78   O     O_R   0.665754 0.797463 0.674782 -0.273472
N6    N     N_R   0.291895 0.182605 0.306336 0.247307
O79   O     O_R   0.266409 0.117695 0.311914 -0.336486
O80   O     O_R   0.340767 0.210625 0.324697 -0.267506
N7    N     N_R   0.180595 0.710588 0.693459 0.222529
O81   O     O_R   0.137356 0.757974 0.680481 -0.278580
O82   O     O_R   0.198527 0.651698 0.678407 -0.303329
N8    N     N_R   0.808564 0.300139 0.307480 0.226770
O83   O     O_R   0.850762 0.255975 0.322889 -0.293190
O84   O     O_R   0.785606 0.359825 0.320624 -0.294177
N9    N     N_R   0.294171 0.814925 0.307427 0.254480
O85   O     O_R   0.293527 0.885607 0.310315 -0.367534
O86   O     O_R   0.311415 0.774867 0.331248 -0.251168
N10   N     N_R   0.707909 0.183454 0.692806 0.252846
O87   O     O_R   0.708093 0.112680 0.690353 -0.366072
O88   O     O_R   0.692145 0.222821 0.668595 -0.251216
N11   N     N_R   0.818201 0.709012 0.306909 0.256825
O89   O     O_R   0.889204 0.708813 0.308955 -0.359830
O90   O     O_R   0.779396 0.693675 0.331377 -0.245157
N12   N     N_R   0.289266 0.398031 0.760232 0.234710
O91   O     O_R   0.293510 0.444832 0.737613 -0.275546
O92   O     O_R   0.312254 0.416388 0.787687 -0.270487
N13   N     N_R   0.700462 0.190511 0.307730 0.259151
O93   O     O_R   0.701872 0.120215 0.311973 -0.356066
O94   O     O_R   0.680135 0.232715 0.330438 -0.249377
N14   N     N_R   0.288892 0.820573 0.693287 0.254060
O95   O     O_R   0.289039 0.891490 0.691741 -0.359077
O96   O     O_R   0.303522 0.782866 0.668461 -0.253249
N15   N     N_R   0.182044 0.291069 0.306821 0.251414
O97   O     O_R   0.111037 0.289707 0.308838 -0.361462
O98   O     O_R   0.220225 0.308373 0.331170 -0.246646
N16   N     N_R   0.823899 0.714742 0.693651 0.250182
O99   O     O_R   0.895061 0.714471 0.693086 -0.359482
O100  O     O_R   0.788181 0.701452 0.668197 -0.243958
N17   N     N_R   0.791483 0.682311 0.193319 0.222842
O101  O     O_R   0.744615 0.639155 0.180015 -0.292113
O102  O     O_R   0.850363 0.701353 0.178422 -0.299078
N18   N     N_R   0.101015 0.210866 0.739608 0.254600
O103  O     O_R   0.071042 0.157311 0.754806 -0.245222
O104  O     O_R   0.063083 0.244889 0.718558 -0.358042
N19   N     N_R   0.314180 0.794056 0.193205 0.240738
O105  O     O_R   0.384846 0.789318 0.190208 -0.331545
O106  O     O_R   0.274888 0.815562 0.169796 -0.273574
N20   N     N_R   0.684379 0.205798 0.806678 0.248093
O107  O     O_R   0.616107 0.222569 0.811364 -0.318003
O108  O     O_R   0.717203 0.161601 0.825740 -0.257020
N21   N     N_R   0.208092 0.317158 0.193147 0.223721
O109  O     O_R   0.254745 0.360319 0.179650 -0.293569
O110  O     O_R   0.149182 0.297783 0.178424 -0.300137
N22   N     N_R   0.785653 0.675948 0.805994 0.225604
O111  O     O_R   0.737662 0.631342 0.817670 -0.283211
O112  O     O_R   0.843740 0.692292 0.821920 -0.301849
N23   N     N_R   0.697697 0.194949 0.193059 0.224853
O113  O     O_R   0.656163 0.236197 0.175958 -0.314323
O114  O     O_R   0.726796 0.136509 0.181172 -0.273431
N24   N     N_R   0.319181 0.789634 0.806490 0.233430
O115  O     O_R   0.362817 0.742493 0.819388 -0.274132
O116  O     O_R   0.301125 0.848469 0.821556 -0.269571
N25   N     N_R   0.791551 0.317043 0.806880 0.247811
O117  O     O_R   0.787899 0.387754 0.809184 -0.359460
O118  O     O_R   0.813396 0.279046 0.830615 -0.249792
N26   N     N_R   0.204817 0.685531 0.193495 0.255852
O119  O     O_R   0.222017 0.617642 0.188499 -0.342824
O120  O     O_R   0.159559 0.718225 0.174832 -0.257447
N27   N     N_R   0.210708 0.101940 0.739855 0.234358
O121  O     O_R   0.206485 0.055212 0.762502 -0.268892
O122  O     O_R   0.187671 0.083502 0.712417 -0.269145
N28   N     N_R   0.682005 0.791148 0.193054 0.255865
O123  O     O_R   0.611014 0.791365 0.190949 -0.328869
O124  O     O_R   0.720940 0.806615 0.168638 -0.238747
N29   N     N_R   0.211147 0.679450 0.806636 0.252176
O125  O     O_R   0.211466 0.608537 0.808170 -0.362622
O126  O     O_R   0.196311 0.717056 0.831468 -0.252793
N30   N     N_R   0.800409 0.308995 0.192865 0.259477
O127  O     O_R   0.796681 0.379088 0.188279 -0.356415
O128  O     O_R   0.824106 0.267032 0.170667 -0.236891
N31   N     N_R   0.675169 0.784129 0.806319 0.235910
O129  O     O_R   0.604008 0.783965 0.806777 -0.383238
O130  O     O_R   0.710729 0.794250 0.832084 -0.253790
N32   N     N_R   0.317353 0.208048 0.192759 0.253246
O131  O     O_R   0.388317 0.207597 0.190414 -0.365553
O132  O     O_R   0.278087 0.192418 0.168508 -0.255337
N33   N     N_R   0.132178 0.477247 0.934041 0.250176
O133  O     O_R   0.180114 0.529617 0.933332 -0.253491
O134  O     O_R   0.145531 0.418742 0.950155 -0.283315
N34   N     N_R   0.872091 0.541444 0.065831 0.242437
O135  O     O_R   0.845931 0.606925 0.069519 -0.263849
O136  O     O_R   0.842381 0.498068 0.045558 -0.266175
N35   N     N_R   0.613970 0.935746 0.935216 0.231097
O137  O     O_R   0.653286 0.974308 0.954261 -0.268965
O138  O     O_R   0.624901 0.865719 0.933281 -0.286315
N36   N     N_R   0.387910 0.926085 0.065814 0.206531
O139  O     O_R   0.342103 0.965481 0.049919 -0.295041
O140  O     O_R   0.385305 0.855352 0.063612 -0.264894
N37   N     N_R   0.867314 0.521174 0.934377 0.247156
O141  O     O_R   0.843243 0.474017 0.954503 -0.272667
O142  O     O_R   0.834122 0.583625 0.931457 -0.257156
N38   N     N_R   0.127218 0.455999 0.065759 0.243194
O143  O     O_R   0.153533 0.390749 0.069928 -0.265154
O144  O     O_R   0.156470 0.498353 0.044943 -0.272255
N39   N     N_R   0.383603 0.075455 0.933599 0.231489
O145  O     O_R   0.341930 0.038261 0.952281 -0.271571
O146  O     O_R   0.374604 0.145684 0.931286 -0.294180
N40   N     N_R   0.608007 0.080554 0.065361 0.230769
O147  O     O_R   0.651366 0.046568 0.046237 -0.267817
O148  O     O_R   0.611014 0.151343 0.067310 -0.289445
N41   N     N_R   0.630009 0.957235 0.433700 0.249563
O149  O     O_R   0.668976 0.002191 0.450141 -0.271825
O150  O     O_R   0.648621 0.888789 0.432251 -0.254573
N42   N     N_R   0.369475 0.026092 0.565552 0.244190
O151  O     O_R   0.365002 0.078431 0.545242 -0.275560
O152  O     O_R   0.314885 0.981302 0.568924 -0.255340
N43   N     N_R   0.043005 0.628118 0.433983 0.242985
O153  O     O_R   0.999997 0.658586 0.454285 -0.261417
O154  O     O_R   0.108911 0.653271 0.430147 -0.268320
N44   N     N_R   0.971459 0.370618 0.565568 0.249024
O155  O     O_R   0.911117 0.359094 0.550412 -0.280266
O156  O     O_R   0.022700 0.321331 0.565353 -0.258295
N45   N     N_R   0.375580 0.042584 0.434970 0.246534
O157  O     O_R   0.317563 0.001868 0.432831 -0.258440
O158  O     O_R   0.376505 0.096170 0.454764 -0.275287
N46   N     N_R   0.633807 0.975950 0.566123 0.243826
O159  O     O_R   0.639107 0.924127 0.545608 -0.274360
O160  O     O_R   0.688097 0.020888 0.569915 -0.255675
N47   N     N_R   0.953937 0.374933 0.434455 0.243807
O161  O     O_R   0.995949 0.345326 0.455303 -0.267587
O162  O     O_R   0.888234 0.349590 0.430315 -0.265605
N48   N     N_R   0.026508 0.632659 0.565949 0.247589
O163  O     O_R   0.090233 0.663318 0.569013 -0.265459
O164  O     O_R   0.980340 0.658689 0.545838 -0.263513

loop_
_geom_bond_atom_site_label_1
_geom_bond_atom_site_label_2
_geom_bond_distance
_ccdc_geom_bond_type
N16   O100  1.300821 A    
Zn12  O21   1.932610 S    
Zn13  O31   1.931001 S    
C156  O64   1.220712 D    
Zn14  O23   1.929842 S    
C111  N23   1.429840 S    
C49   H9    1.083177 S    
Zn1   O51   1.931796 S    
Zn12  O1    1.939863 S    
C9    C37   1.417242 A    
Zn13  O12   1.939643 S    
N9    O85   1.301481 A    
Zn14  O11   1.939643 S    
C91   N3    1.433599 S    
O49   C75   1.279391 A    
C118  C133  1.406530 A    
N43   O154  1.301136 A    
C92   N4    1.433550 S    
N41   O150  1.300949 A    
C26   N42   1.436655 S    
C29   N45   1.436766 S    
C110  N22   1.434169 S    
C159  H31   1.083815 S    
C6    C22   1.413025 A    
C116  C131  1.408562 A    
C150  H22   1.083843 S    
C90   C131  1.409231 A    
C36   C66   1.477633 S    
O41   C83   1.272607 A    
O25   C77   1.273787 A    
N12   O91   1.300780 A    
Zn5   O40   1.929840 S    
C7    C35   1.421098 A    
C21   N37   1.436852 S    
O35   C87   1.279398 A    
O33   C85   1.278845 A    
C42   C61   1.402037 A    
C30   N46   1.436693 S    
C20   C140  1.405473 A    
C86   C136  1.454449 S    
C102  C127  1.409076 A    
C46   H6    1.083146 S    
Zn5   O1    1.941540 S    
Zn9   O4    1.941420 S    
C88   C130  1.455691 S    
Zn10  O3    1.941419 S    
Zn5   O47   1.931001 S    
C106  C115  1.400358 A    
N21   O109  1.300734 A    
Zn7   O45   1.931216 S    
N12   O92   1.300797 A    
C120  C135  1.408542 A    
C102  N14   1.439400 S    
Zn15  O6    1.940087 S    
C94   C135  1.407699 A    
N22   O111  1.300777 A    
C9    C25   1.413128 A    
C62   C137  1.473361 S    
C47   C64   1.401096 A    
C12   C28   1.411952 A    
C100  C121  1.408882 A    
C115  C132  1.408893 A    
C13   C29   1.412197 A    
N14   O95   1.301465 A    
C45   C62   1.401457 A    
C112  N24   1.434002 S    
Zn7   O14   1.940087 S    
C17   N33   1.434889 S    
C145  H17   1.084578 S    
N27   O121  1.300790 A    
C105  C122  1.409383 A    
N26   O119  1.300955 A    
C146  O54   1.220769 D    
C23   N39   1.437523 S    
Zn9   O35   1.931796 S    
N42   O152  1.301114 A    
C158  O66   1.220820 D    
N44   O156  1.300861 A    
N8    O83   1.300696 A    
C58   C141  1.473041 S    
C5    C149  1.493511 S    
C15   C39   1.416227 A    
C53   C58   1.401399 A    
C155  O63   1.220787 D    
C48   C63   1.401557 A    
C114  N26   1.434491 S    
O7    C67   1.281331 A    
Zn13  O24   1.929840 S    
C93   N5    1.432206 S    
C75   C125  1.453022 S    
N6    O80   1.300710 A    
C49   C58   1.401564 A    
C21   C137  1.409182 A    
C3    C19   1.404363 A    
C43   C64   1.400924 A    
N4    O76   1.300807 A    
C12   C40   1.415702 A    
C4    C148  1.480087 S    
O48   C78   1.279911 A    
N40   O147  1.301195 A    
C106  N18   1.439580 S    
C92   C129  1.408535 A    
C80   C122  1.453106 S    
O31   C83   1.279861 A    
N45   O157  1.301141 A    
C152  O60   1.220945 D    
O32   C84   1.279469 A    
C113  C130  1.409493 A    
O10   C66   1.280763 A    
N37   O142  1.301156 A    
N15   O98   1.300803 A    
N25   O117  1.301437 A    
C103  N15   1.439239 S    
C73   C123  1.454961 S    
N32   O131  1.301459 A    
Zn11  O22   1.932612 S    
O6    C66   1.285014 A    
C95   C102  1.400728 A    
O37   C87   1.275284 A    
C93   C104  1.400244 A    
C107  N19   1.435296 S    
O38   C88   1.275612 A    
O19   C71   1.282007 A    
N46   O159  1.301162 A    
C160  H32   1.084184 S    
O47   C77   1.279411 A    
C153  H25   1.083343 S    
C32   C144  1.409045 A    
N13   O94   1.301097 A    
O45   C79   1.273929 A    
C98   N10   1.439313 S    
O39   C85   1.275914 A    
C55   H15   1.083151 S    
N30   O127  1.301503 A    
O27   C79   1.279176 A    
C149  H21   1.084359 S    
C2    C34   1.416390 A    
C53   H13   1.083161 S    
N17   O102  1.300821 A    
O17   C69   1.280184 A    
Zn2   O2    1.941419 S    
C89   C100  1.400335 A    
N38   O143  1.301144 A    
O9    C65   1.282538 A    
O21   C73   1.275961 A    
N47   O162  1.301144 A    
Zn11  O10   1.938731 S    
Zn8   O4    1.937178 S    
C50   H10   1.083174 S    
N10   O88   1.301113 A    
N1    O69   1.301156 A    
O5    C65   1.282639 A    
C13   C37   1.415971 A    
C96   C133  1.410433 A    
N34   O136  1.301201 A    
N48   O164  1.301134 A    
C26   C142  1.409506 A    
C27   N43   1.436805 S    
C94   N6    1.431992 S    
C91   C130  1.408965 A    
N2    O71   1.301233 A    
O26   C78   1.274472 A    
C9    C153  1.495130 S    
N20   O107  1.300897 A    
Zn7   O42   1.933179 S    
C4    C20   1.401770 A    
C49   C54   1.395071 A    
C11   C27   1.412998 A    
N19   O106  1.300409 A    
Zn10  O27   1.929091 S    
N24   O116  1.300817 A    
C48   H8    1.082923 S    
C97   N9    1.439200 S    
N5    O77   1.300491 A    
C104  N16   1.439590 S    
C60   C143  1.474305 S    
Zn9   O8    1.939704 S    
Zn6   O2    1.941536 S    
N28   O124  1.301137 A    
Zn10  O7    1.939704 S    
C157  O65   1.220846 D    
C39   C69   1.469874 S    
C41   C46   1.395297 A    
C42   H2    1.083162 S    
Zn12  O9    1.938731 S    
Zn6   O19   1.939643 S    
C37   C71   1.471169 S    
O50   C76   1.280085 A    
C38   C72   1.469531 S    
O51   C73   1.278552 A    
C108  C123  1.408874 A    
C96   N8    1.433682 S    
Zn1   O16   1.939704 S    
Zn2   O15   1.939704 S    
C10   C26   1.412910 A    
C57   C142  1.473862 S    
N39   O146  1.301296 A    
O42   C84   1.273789 A    
C99   N11   1.439574 S    
C14   C30   1.412344 A    
C46   C61   1.402174 A    
N42   O151  1.301174 A    
O36   C88   1.279500 A    
C156  H28   1.084866 S    
C117  N29   1.439180 S    
C44   C63   1.400526 A    
C74   C124  1.455757 S    
N23   O114  1.300347 A    
C31   C143  1.409407 A    
C111  C128  1.409081 A    
N41   O149  1.300629 A    
C109  C126  1.409588 A    
Zn15  O29   1.931216 S    
C150  O58   1.220779 D    
C160  O68   1.220805 D    
C7    C151  1.489208 S    
Zn2   O43   1.929091 S    
C63   C140  1.467070 S    
C40   C70   1.469128 S    
N3    O73   1.300646 A    
Zn8   O41   1.933181 S    
C54   C57   1.401893 A    
C112  C117  1.400431 A    
C108  N20   1.433937 S    
C83   C133  1.453244 S    
C28   N44   1.434539 S    
C34   C68   1.470020 S    
C17   C137  1.408022 A    
C25   N41   1.435070 S    
N36   O139  1.301001 A    
C13   C157  1.491509 S    
C95   N7    1.434054 S    
C107  C114  1.398539 A    
C50   C57   1.401871 A    
C10   C38   1.415368 A    
C6    C150  1.494343 S    
N35   O137  1.301221 A    
N29   O126  1.301132 A    
N8    O84   1.300858 A    
C119  C136  1.408272 A    
C64   C139  1.466929 S    
N22   O112  1.300786 A    
C117  C134  1.408932 A    
N33   O134  1.300621 A    
N14   O96   1.301143 A    
O12   C68   1.281817 A    
C81   C131  1.453492 S    
C20   N36   1.437583 S    
C41   C62   1.401487 A    
N26   O120  1.300714 A    
C55   C60   1.402052 A    
C147  H19   1.083180 S    
C56   C59   1.401443 A    
C43   C48   1.388062 A    
Zn9   O28   1.929092 S    
O8    C68   1.281930 A    
C52   C55   1.395136 A    
C151  O59   1.221054 D    
N16   O99   1.301493 A    
C15   C31   1.412863 A    
Zn3   O38   1.932612 S    
C51   C60   1.401915 A    
C16   C32   1.413185 A    
C23   C139  1.407848 A    
C52   C59   1.401534 A    
C1    C17   1.412124 A    
Zn5   O20   1.939643 S    
N21   O110  1.300824 A    
O43   C81   1.273492 A    
C89   N1    1.439516 S    
N9    O86   1.301116 A    
C92   C97   1.400425 A    
C25   C141  1.407858 A    
O30   C82   1.273814 A    
O40   C86   1.275587 A    
N11   O89   1.301518 A    
C97   C124  1.410296 A    
Zn8   O46   1.931214 S    
C54   H14   1.083155 S    
N7    O82   1.300793 A    
C149  O57   1.220795 D    
N7    O81   1.300784 A    
O18   C70   1.279411 A    
C1    C145  1.493880 S    
N18   O103  1.301159 A    
C61   C138  1.474794 S    
C152  H24   1.084028 S    
C51   H11   1.083168 S    
O22   C74   1.277136 A    
N19   O105  1.301288 A    
Zn13  O4    1.941540 S    
C104  C125  1.409397 A    
Zn3   O49   1.930713 S    
C106  C121  1.408939 A    
Zn14  O3    1.941536 S    
C11   C39   1.416495 A    
N31   O130  1.301102 A    
C108  C113  1.400324 A    
Zn16  O1    1.937178 S    
C28   C144  1.407661 A    
N40   O148  1.301375 A    
C94   C103  1.398883 A    
C85   C135  1.453678 S    
C24   C140  1.407663 A    
Zn1   O44   1.929092 S    
C15   C159  1.494176 S    
Zn3   O18   1.938731 S    
C32   N48   1.436920 S    
C116  N28   1.439357 S    
O46   C80   1.279731 A    
C11   C155  1.494288 S    
N37   O141  1.301114 A    
C148  H20   1.083643 S    
Zn3   O3    1.939867 S    
C56   H16   1.083144 S    
C24   N40   1.437680 S    
C90   C99   1.399464 A    
N32   O132  1.301130 A    
C76   C126  1.453718 S    
C109  N21   1.433830 S    
C22   C138  1.409486 A    
N46   O160  1.301121 A    
Zn7   O3    1.937179 S    
C145  O53   1.220764 D    
Zn11  O2    1.939867 S    
C10   C154  1.492842 S    
N13   O93   1.301528 A    
Zn4   O17   1.938731 S    
C12   C156  1.494017 S    
C8    C152  1.485232 S    
C146  H18   1.083787 S    
N30   O128  1.301079 A    
N17   O101  1.300746 A    
C44   H4    1.082873 S    
C35   C65   1.476702 S    
O15   C71   1.282293 A    
N15   O97   1.301502 A    
C87   C129  1.454667 S    
O52   C74   1.277769 A    
Zn15  O26   1.933179 S    
C5    C21   1.413201 A    
C158  H30   1.084668 S    
N38   O144  1.301196 A    
C105  N17   1.433872 S    
N44   O155  1.300600 A    
C52   H12   1.083173 S    
C114  C129  1.405672 A    
O29   C81   1.279726 A    
C82   C132  1.453379 S    
C90   N2    1.433424 S    
N23   O113  1.300778 A    
O34   C86   1.279493 A    
Zn4   O50   1.930715 S    
N3    O74   1.300804 A    
C119  N31   1.438165 S    
N43   O153  1.301203 A    
C59   C144  1.473257 S    
N39   O145  1.301180 A    
C111  C118  1.396467 A    
C47   H7    1.083104 S    
C51   C56   1.394731 A    
Zn11  O33   1.930713 S    
C77   C127  1.454965 S    
C109  C120  1.399813 A    
C45   H5    1.083152 S    
Zn4   O4    1.939863 S    
N6    O79   1.300441 A    
N2    O72   1.300915 A    
N4    O75   1.300705 A    
N20   O108  1.300681 A    
N35   O138  1.301371 A    
C118  N30   1.439176 S    
C148  O56   1.220146 D    
C98   C123  1.409086 A    
Zn15  O2    1.937179 S    
C1    C33   1.415560 A    
Zn16  O5    1.940087 S    
C8    C24   1.407690 A    
C112  C127  1.409119 A    
C3    C35   1.420058 A    
Zn14  O32   1.931000 S    
N45   O158  1.301093 A    
C157  H29   1.084789 S    
C3    C147  1.486653 S    
Zn8   O13   1.940087 S    
C5    C33   1.415867 A    
C19   N35   1.438283 S    
Zn2   O52   1.931798 S    
N25   O118  1.300604 A    
C14   C38   1.415370 A    
C18   N34   1.436751 S    
C147  O55   1.221105 D    
C100  N12   1.434218 S    
C6    C34   1.416278 A    
C27   C143  1.409227 A    
C113  N25   1.438429 S    
Zn16  O25   1.933181 S    
C89   C132  1.408881 A    
N18   O104  1.301516 A    
C153  O61   1.220726 D    
C29   C141  1.408127 A    
Zn4   O37   1.932610 S    
C79   C121  1.453371 S    
Zn6   O39   1.929842 S    
O14   C70   1.280295 A    
C154  O62   1.220804 D    
C8    C36   1.419519 A    
C50   C53   1.394670 A    
C120  N32   1.439296 S    
C19   C139  1.407888 A    
N31   O129  1.301390 A    
N47   O161  1.301197 A    
C103  C126  1.409022 A    
C154  H26   1.084862 S    
C30   C142  1.409123 A    
C101  C128  1.409333 A    
Zn12  O34   1.930715 S    
C31   N47   1.436866 S    
C2    C18   1.413159 A    
C42   C45   1.394889 A    
C91   C98   1.399989 A    
C105  C116  1.399587 A    
C41   H1    1.083169 S    
N10   O87   1.301453 A    
Zn6   O48   1.931000 S    
N1    O70   1.301487 A    
C95   C134  1.409297 A    
C43   H3    1.082964 S    
O28   C80   1.273294 A    
C93   C136  1.407462 A    
C155  H27   1.083720 S    
N34   O135  1.301131 A    
N48   O163  1.301162 A    
C159  O67   1.220794 D    
N36   O140  1.300794 A    
C115  N27   1.434207 S    
O20   C72   1.281698 A    
O13   C69   1.280066 A    
C33   C67   1.469081 S    
C151  H23   1.085324 S    
C4    C36   1.418577 A    
O11   C67   1.281752 A    
O23   C75   1.275131 A    
N29   O125  1.301378 A    
O16   C72   1.281637 A    
C101  N13   1.439123 S    
O24   C76   1.274931 A    
N11   O90   1.301136 A    
C2    C146  1.494299 S    
N33   O133  1.300920 A    
C110  C125  1.408255 A    
N24   O115  1.300763 A    
C78   C128  1.457011 S    
C7    C23   1.406135 A    
C110  C119  1.400275 A    
Zn10  O36   1.931798 S    
N5    O78   1.300698 A    
Zn16  O30   1.931214 S    
C107  C124  1.410201 A    
N27   O122  1.300795 A    
N28   O123  1.301476 A    
C16   C160  1.493581 S    
C96   C101  1.399912 A    
O44   C82   1.279285 A    
C14   C158  1.492346 S    
C16   C40   1.416200 A    
C99   C122  1.408500 A    
C84   C134  1.455067 S    
Zn1   O1    1.941420 S    
C44   C47   1.386757 A    
C18   C138  1.409392 A    
C22   N38   1.436823 S    
