data_mof_unit_44685.cif
_audit_creation_date              2012-10-26T19:02:55-0400
_audit_creation_method            fapswitch 2.2
_symmetry_space_group_name_H-M    P1
_symmetry_Int_Tables_number       1
_space_group_crystal_system       triclinic
_cell_length_a                    15.07691
_cell_length_b                    10.815093
_cell_length_c                    9.780656
_cell_angle_alpha                 109.661213
_cell_angle_beta                  98.914691
_cell_angle_gamma                 90.272661
_cell_volume                      1480.91653914

loop_
_atom_site_label
_atom_site_type_symbol
_atom_type_description
_atom_site_fract_x
_atom_site_fract_y
_atom_site_fract_z
_atom_type_partial_charge
C1    C     C_R   0.491701 0.252880 0.442896 0.583205
C2    C     C_2   0.492471 0.489325 0.918988 0.000945
C3    C     C_R   0.328551 0.497670 0.500182 0.622357
C4    C     C_R   0.671410 0.499467 0.499270 0.562126
C5    C     C_R   0.827760 0.515215 0.629906 -0.116975
C6    C     C_R   0.171952 0.471345 0.367571 -0.133783
C7    C     C_R   0.768197 0.497341 0.498374 0.002127
C8    C     C_R   0.231634 0.493376 0.499908 0.028463
C9    C     C_R   0.801363 0.476724 0.366672 -0.118952
C10   C     C_R   0.198473 0.512004 0.631230 -0.092935
C11   C     C_R   0.893698 0.474229 0.365735 0.018044
C12   C     C_R   0.503469 0.747219 0.557216 0.583541
C13   C     C_R   0.106043 0.511035 0.631487 0.016181
C14   C     C_R   0.953359 0.492709 0.498364 0.065622
C15   C     C_R   0.046333 0.491394 0.498630 0.065090
C16   C     C_R   0.920160 0.513090 0.630860 0.016259
C17   C     C_R   0.079521 0.471177 0.366164 0.014893
C18   C     C_R   0.927376 0.453891 0.234600 -0.117944
C19   C     C_R   0.072342 0.530412 0.762424 -0.117222
C20   C     C_2   0.350216 0.847707 0.415081 0.617228
C21   C     C_2   0.369020 0.152814 0.590568 0.597528
C22   C     C_2   0.572266 0.979910 0.691316 0.565125
C23   C     C_R   0.019838 0.452263 0.234785 -0.118277
C24   C     C_2   0.532162 0.020860 0.308231 0.562172
C25   C     C_R   0.979847 0.531318 0.762096 -0.119219
C26   C     C_2   0.481682 0.110884 0.417885 0.018936
C27   C     C_2   0.498942 0.889511 0.582711 0.027914
C28   C     C_2   0.431946 0.068562 0.501176 0.033171
C29   C     C_2   0.432012 0.931959 0.500909 0.041598
C30   C     C_2   0.507647 0.510459 0.080955 0.003944
Cu1   Cu    Cu3+1 0.515770 0.521810 0.644910 1.033806
Cu2   Cu    Cu3+1 0.484230 0.478190 0.355090 1.032613
H1    H     H_    0.802396 0.530932 0.731938 0.135603
H2    H     H_    0.411393 0.377534 0.066303 0.218683
H3    H     H_    0.250755 0.720795 0.408743 0.331194
H4    H     H_    0.308867 0.195478 0.770102 0.327632
H5    H     H_    0.616923 0.164700 0.821890 0.348311
H6    H     H_    0.549748 0.836388 0.177548 0.336184
H7    H     H_    0.440416 0.417099 0.846637 0.174206
H8    H     H_    0.559819 0.582504 0.153297 0.148042
H9    H     H_    0.197330 0.456225 0.265657 0.131781
H10   H     H_    0.755483 0.462680 0.264916 0.131980
H11   H     H_    0.244439 0.528034 0.733358 0.137969
H12   H     H_    0.882257 0.439566 0.132114 0.114630
H13   H     H_    0.117488 0.545293 0.865017 0.121374
H14   H     H_    0.044687 0.436853 0.132431 0.114075
H15   H     H_    0.955008 0.546735 0.864459 0.113703
H16   H     H_    0.588504 0.622612 0.933711 0.208397
N1    N     N_2   0.460520 0.445420 0.137370 -0.340441
N2    N     N_2   0.539480 0.554580 0.862630 -0.353953
O1    O     O_R   0.508410 0.332340 0.577400 -0.480205
O2    O     O_R   0.308886 0.766070 0.473836 -0.693145
O3    O     O_2   0.327917 0.233974 0.548527 -0.538307
O4    O     O_R   0.353423 0.133651 0.719496 -0.661647
O5    O     O_2   0.641470 0.934730 0.732456 -0.494505
O6    O     O_R   0.562334 0.115266 0.749135 -0.678741
O7    O     O_2   0.592317 0.066626 0.265345 -0.485741
O8    O     O_R   0.510593 0.885277 0.251399 -0.683022
O9    O     O_R   0.491590 0.667660 0.422600 -0.482209
O10   O     O_R   0.481780 0.295500 0.332650 -0.459576
O11   O     O_R   0.518220 0.704500 0.667350 -0.456509
O12   O     O_R   0.383570 0.518390 0.622380 -0.485427
O13   O     O_R   0.616430 0.481610 0.377620 -0.505842
O14   O     O_R   0.356940 0.481550 0.377630 -0.495685
O15   O     O_R   0.643060 0.518450 0.622370 -0.499894
O16   O     O_2   0.316053 0.855987 0.296834 -0.476493

loop_
_geom_bond_atom_site_label_1
_geom_bond_atom_site_label_2
_ccdc_geom_bond_type
C22   O6    S    
C19   H13   S    
C11   C18   A    
C22   O5    D    
C18   H12   S    
C27   C29   D    
C9    C11   A    
C1    C26   S    
Cu1   O11   S    
C26   C28   D    
Cu1   Cu2   S    
Cu1   O12   S    
C2    C30   S    
H16   N2    S    
C30   H8    S    
C10   C13   A    
C20   O2    S    
C23   H14   S    
H6    O8    S    
C3    O14   A    
C21   O3    D    
C12   O11   A    
C1    O1    A    
C4    O13   A    
C9    H10   S    
C17   C23   A    
C20   C29   S    
C4    C7    S    
H5    O6    S    
C8    C10   A    
C28   C29   S    
C21   C28   S    
C24   C26   S    
C5    C7    A    
C22   C27   S    
C13   C15   A    
C2    N2    D    
C21   O4    S    
C19   C25   A    
C11   C14   A    
C14   C16   A    
Cu2   N1    S    
C1    O10   A    
H4    O4    S    
Cu2   O10   S    
Cu1   N2    S    
C18   C23   A    
C7    C9    A    
H3    O2    S    
Cu2   O14   S    
C24   O8    S    
C3    C8    S    
C3    O12   A    
C20   O16   D    
C16   C25   A    
C15   C17   A    
C6    C17   A    
Cu1   O15   S    
C4    O15   A    
C13   C19   A    
C6    C8    A    
C25   H15   S    
C12   C27   S    
Cu2   O9    S    
C10   H11   S    
C14   C15   A    
C12   O9    A    
C5    C16   A    
C2    H7    S    
C30   N1    D    
Cu2   O13   S    
Cu1   O1    S    
C24   O7    D    
H2    N1    S    
C6    H9    S    
C5    H1    S    
