data_mof_unit_8798.cif
_audit_creation_date              2013-03-05T15:43:41-0500
_audit_creation_method            fapswitch 2.2
_symmetry_space_group_name_H-M    P1
_symmetry_Int_Tables_number       1
_space_group_crystal_system       triclinic
_cell_length_a                    14.98797
_cell_length_b                    10.695387
_cell_length_c                    10.029368
_cell_angle_alpha                 91.133927
_cell_angle_beta                  89.78748
_cell_angle_gamma                 90.77088
_cell_volume                      1607.2592885

loop_
_atom_site_label
_atom_site_type_symbol
_atom_site_description
_atom_site_fract_x
_atom_site_fract_y
_atom_site_fract_z
_atom_type_partial_charge
O1    O     O_R   0.499990 0.319060 0.613040 -0.580529
O2    O     O_R   0.500010 0.319100 0.386900 -0.611950
C1    C     C_R   0.500972 0.262318 0.498279 0.863679
O3    O     O_R   0.367830 0.499950 0.613080 -0.596762
O4    O     O_R   0.367860 0.499990 0.386940 -0.615653
C2    C     C_R   0.326905 0.495697 0.500432 0.919485
Zn1   Zn    Zn3+2 0.499980 0.499970 0.650990 1.063637
Zn2   Zn    Zn3+2 0.500020 0.500030 0.349010 1.030217
O5    O     O_R   0.499990 0.680900 0.613100 -0.577733
O6    O     O_R   0.500010 0.680940 0.386960 -0.625401
O7    O     O_R   0.632140 0.500010 0.613060 -0.587138
O8    O     O_R   0.632170 0.500050 0.386920 -0.564539
C3    C     C_R   0.507042 0.736940 0.501336 0.973338
C4    C     C_R   0.673024 0.504121 0.499680 0.936678
C5    C     C_R   0.815241 0.587763 0.408823 0.279083
C6    C     C_R   0.768702 0.511771 0.499553 -0.159358
C7    C     C_R   0.812585 0.440223 0.591637 -0.241290
C8    C     C_R   0.904157 0.437777 0.592319 0.133586
C9    C     C_R   0.953275 0.511802 0.502208 0.011296
C10   C     C_R   0.909377 0.591376 0.411300 -0.072644
C11   C     C_R   0.946776 0.360582 0.681819 -0.166422
C12   C     C_R   0.038705 0.353817 0.682133 -0.159089
C13   C     C_R   0.089858 0.424876 0.593057 0.065913
C14   C     C_R   0.046506 0.505420 0.503647 0.060002
C15   C     C_R   0.096387 0.578985 0.415241 0.079712
C16   C     C_R   0.054491 0.660909 0.330260 -0.224240
C17   C     C_R   0.962124 0.670097 0.328328 0.201504
C18   C     C_R   0.183132 0.417834 0.591091 0.096963
C19   C     C_R   0.231185 0.493490 0.501923 -0.117039
C20   C     C_R   0.188304 0.572245 0.414753 -0.233476
H1    H     H_    0.774819 0.382360 0.660155 0.178598
H2    H     H_    0.908785 0.304335 0.751302 0.168950
H3    H     H_    0.068204 0.292569 0.753374 0.188840
H4    H     H_    0.227113 0.630576 0.348013 0.174868
H5    H     H_    0.094296 0.719982 0.265814 0.176353
C21   C     C_2   0.537415 0.930869 0.394082 -0.089702
C22   C     C_2   0.529459 0.866613 0.505739 -0.223179
H6    H     H_    0.536279 0.886145 0.295885 0.203766
H7    H     H_    0.538611 0.911222 0.603212 0.202800
C23   C     C_2   0.544957 0.065284 0.403453 0.048461
C24   C     C_2   0.493515 0.129679 0.491267 0.085799
C25   C     C_2   0.528096 0.594606 0.927717 0.322132
N1    N     N_2   0.500970 0.501330 0.852150 -0.236878
H8    H     H_    0.464597 0.431345 0.896578 0.158056
C26   C     C_2   0.514985 0.598885 0.076870 -0.134051
N2    N     N_2   0.500990 0.501360 0.147810 -0.203205
H9    H     H_    0.523787 0.688265 0.128302 0.209935
H10   H     H_    0.501154 0.415572 0.099803 0.181669
N3    N     N_R   0.765847 0.656945 0.313948 0.222720
O9    O     O_R   0.754434 0.610923 0.193965 -0.334259
O10   O     O_R   0.717977 0.751109 0.354375 -0.380123
I1    I     I_    0.647484 0.144958 0.282192 -0.203046
N4    N     N_R   0.422237 0.072190 0.565743 0.192929
O11   O     O_R   0.418619 0.086878 0.694701 -0.327678
O12   O     O_R   0.358457 0.011125 0.504124 -0.369737
N5    N     N_R   0.571336 0.700593 0.869046 0.242464
O13   O     O_R   0.551328 0.812996 0.909955 -0.366686
O14   O     O_R   0.642352 0.684922 0.796210 -0.330922
I2    I     I_    0.250824 0.287606 0.715008 -0.204309
I3    I     I_    0.917621 0.815768 0.202922 -0.136399

loop_
_geom_bond_atom_site_label_1
_geom_bond_atom_site_label_2
_geom_bond_distance
_ccdc_geom_bond_type
O4    Zn2   2.015620 S    
N1    H8    1.027824 S    
C19   C20   1.390974 A    
C10   C17   1.425241 A    
Zn1   N1    2.017379 S    
C8    C11   1.393985 A    
N4    O12   1.301511 A    
C3    C22   1.422486 S    
C9    C10   1.427837 A    
Zn2   O8    2.018203 S    
Zn1   O5    1.979441 S    
N3    O10   1.301762 A    
C21   H6    1.086410 S    
C7    C8    1.373138 A    
C15   C16   1.391690 A    
C22   H7    1.087619 S    
O1    Zn1   1.964580 S    
N4    O11   1.300799 A    
C14   C15   1.403933 A    
Zn1   O7    2.015617 S    
C24   N4    1.439396 S    
C16   C17   1.389439 A    
O4    C2    1.292534 A    
C21   C22   1.329601 D    
O3    Zn1   2.018206 S    
C11   C12   1.380715 A    
C23   C24   1.352667 D    
C11   H2    1.084516 S    
N5    O14   1.299551 A    
C9    C14   1.400071 A    
O2    C1    1.282205 A    
C17   I3    2.136805 S    
C5    N3    1.431369 S    
C5    C10   1.411211 A    
C7    H1    1.086350 S    
O7    C4    1.290951 A    
N2    H10   1.027748 S    
C18   I2    2.151701 S    
C13   C18   1.401068 A    
C25   N1    1.302458 D    
C20   H4    1.086035 S    
C13   C14   1.420692 A    
C5    C6    1.408722 A    
C18   C19   1.407630 A    
C26   N2    1.288634 D    
C16   H5    1.084457 S    
C21   C23   1.441784 S    
C2    C19   1.434548 S    
N5    O13   1.301082 A    
O3    C2    1.287279 A    
C8    C9    1.411823 A    
C26   H9    1.083938 S    
C15   C20   1.380482 A    
N3    O9    1.302083 A    
C12   H3    1.078777 S    
O5    C3    1.284872 A    
C12   C13   1.403435 A    
C1    C24   1.421898 S    
Zn2   N2    2.018238 S    
C25   N5    1.433541 S    
C4    C6    1.435245 S    
C23   I1    2.135065 S    
O6    C3    1.287531 A    
Zn2   O6    1.964580 S    
O2    Zn2   1.979439 S    
O8    C4    1.287740 A    
C6    C7    1.384597 A    
O1    C1    1.290638 A    
C25   C26   1.507913 S    
