data_mof_unit_17690.cif
_audit_creation_date              2012-12-10T17:11:27-0500
_audit_creation_method            fapswitch 2.2
_symmetry_space_group_name_H-M    P1
_symmetry_Int_Tables_number       1
_space_group_crystal_system       triclinic
_cell_length_a                    14.988854
_cell_length_b                    13.087336
_cell_length_c                    11.849469
_cell_angle_alpha                 99.16048
_cell_angle_beta                  93.187918
_cell_angle_gamma                 92.236358
_cell_volume                      2288.54082376

loop_
_atom_site_label
_atom_site_type_symbol
_atom_type_description
_atom_site_fract_x
_atom_site_fract_y
_atom_site_fract_z
_atom_type_partial_charge
C1    C     C_R   0.501934 0.300027 0.479705 0.784051
C2    C     C_R   0.500792 0.699849 0.520032 0.812832
C3    C     C_R   0.038735 0.306021 0.492645 0.075493
C4    C     C_R   0.963555 0.685217 0.588674 0.104769
C5    C     C_R   0.509382 0.812127 0.527507 -0.201399
C6    C     C_R   0.506108 0.187119 0.469228 -0.139563
C7    C     C_R   0.464066 0.021549 0.353045 0.161330
C8    C     C_R   0.581671 0.972599 0.625049 0.159417
C9    C     C_R   0.473221 0.128312 0.366046 -0.247229
C10   C     C_R   0.565828 0.866778 0.615295 -0.156578
C11   C     C_R   0.540383 0.137715 0.559524 -0.051578
C12   C     C_R   0.471112 0.862718 0.441276 -0.054403
C13   C     C_R   0.538130 0.027837 0.544821 -0.001606
C14   C     C_R   0.490327 0.970064 0.445449 0.064890
C15   C     C_R   0.410821 0.406443 0.024968 0.107249
C16   C     C_R   0.592583 0.591851 0.972663 0.045088
C17   C     C_R   0.416457 0.418820 0.145185 0.253115
C18   C     C_R   0.582096 0.583391 0.851645 0.281842
C19   C     C_R   0.544355 0.533840 0.153504 0.342861
C20   C     C_R   0.457853 0.464128 0.846043 0.327467
C21   C     C_R   0.535600 0.531321 0.031751 -0.049369
C22   C     C_R   0.468051 0.466204 0.966902 -0.070486
C23   C     C_R   0.329420 0.498474 0.500845 0.842865
C24   C     C_R   0.670515 0.500356 0.499375 0.799660
C25   C     C_R   0.817083 0.593624 0.531996 0.098349
C26   C     C_R   0.184367 0.401954 0.494274 0.069352
C27   C     C_R   0.767144 0.500010 0.499628 -0.165976
C28   C     C_R   0.232856 0.496960 0.505416 -0.117377
C29   C     C_R   0.808063 0.405229 0.478288 0.104453
C30   C     C_R   0.192525 0.590947 0.533784 0.085018
C31   C     C_R   0.901714 0.402035 0.498042 0.032488
C32   C     C_R   0.100010 0.591630 0.553067 -0.012554
C33   C     C_R   0.953690 0.497073 0.525196 -0.074579
C34   C     C_R   0.048132 0.496314 0.527942 -0.051585
C35   C     C_R   0.911203 0.593087 0.547259 0.118849
C36   C     C_R   0.090664 0.400438 0.503816 0.131222
C37   C     C_R   0.944872 0.306810 0.491942 -0.054457
C38   C     C_R   0.057403 0.683938 0.594753 -0.051903
Cu1   Cu    Cu3+1 0.506660 0.507730 0.615930 0.972441
Cu2   Cu    Cu3+1 0.493340 0.492270 0.384070 0.938820
H1    H     H_    0.600658 0.826170 0.675956 0.172140
H2    H     H_    0.450544 0.165397 0.294835 0.163419
N1    N     N_R   0.516670 0.519360 0.790130 -0.209840
N2    N     N_R   0.483330 0.480640 0.209870 -0.222829
O1    O     O_R   0.504720 0.354460 0.582000 -0.580742
O2    O     O_R   0.495280 0.645540 0.418000 -0.571362
O3    O     O_R   0.493480 0.341410 0.386200 -0.603073
O4    O     O_R   0.506520 0.658590 0.613800 -0.555635
O5    O     O_R   0.375880 0.506510 0.597910 -0.604441
O6    O     O_R   0.624120 0.493490 0.402090 -0.616257
O7    O     O_R   0.364640 0.493450 0.402110 -0.583629
O8    O     O_R   0.635360 0.506550 0.597890 -0.534867
N3    N     N_3   0.771918 0.689412 0.542973 -0.543035
H3    H     H_    0.735577 0.693078 0.465896 0.211389
H4    H     H_    0.727493 0.691272 0.608027 0.233269
N4    N     N_3   0.230622 0.307468 0.470214 -0.536975
H5    H     H_    0.261621 0.306173 0.393266 0.211184
H6    H     H_    0.279594 0.305347 0.536065 0.214433
N5    N     N_3   0.345948 0.331511 0.962774 -0.523470
H7    H     H_    0.281997 0.352168 0.986014 0.239009
H8    H     H_    0.358004 0.258890 0.985072 0.248816
N6    N     N_3   0.659619 0.663924 0.034629 -0.546625
H9    H     H_    0.646252 0.738679 0.020120 0.230322
H10   H     H_    0.722371 0.644693 0.005751 0.221176
N7    N     N_3   0.754762 0.313392 0.429555 -0.555075
H11   H     H_    0.723658 0.325079 0.351761 0.226132
H12   H     H_    0.705417 0.300259 0.485155 0.260930
N8    N     N_3   0.246087 0.683826 0.530539 -0.569484
H13   H     H_    0.210542 0.733025 0.485288 0.282578
H14   H     H_    0.266436 0.719756 0.613487 0.254915
C39   C     C_2   0.894213 0.207770 0.496391 0.889732
O9    O     O_2   0.851636 0.198882 0.579692 -0.567862
O10   O     O_R   0.895185 0.125263 0.405755 -0.760146
H15   H     H_    0.858130 0.062302 0.419100 0.341005
C40   C     C_2   0.108328 0.776943 0.657914 0.797671
O11   O     O_2   0.148122 0.772397 0.749776 -0.583194
O12   O     O_R   0.109237 0.869764 0.613597 -0.762189
H16   H     H_    0.146015 0.927523 0.664801 0.346826
N9    N     N_3   0.081589 0.209058 0.486847 -0.522451
H17   H     H_    0.062805 0.172196 0.554546 0.233945
H18   H     H_    0.061940 0.162096 0.408945 0.270225
N10   N     N_3   0.921231 0.779276 0.631099 -0.533746
H19   H     H_    0.941832 0.803407 0.717309 0.232556
H20   H     H_    0.939681 0.836568 0.583533 0.268649
C41   C     C_2   0.404099 0.805744 0.354501 0.937631
O13   O     O_2   0.324451 0.815526 0.367509 -0.596863
O14   O     O_R   0.432229 0.746034 0.255372 -0.727692
H21   H     H_    0.380324 0.711905 0.202423 0.331728
C42   C     C_2   0.569700 0.200751 0.671634 0.840755
O15   O     O_2   0.522571 0.201416 0.752739 -0.598262
O16   O     O_R   0.649356 0.261742 0.683178 -0.742661
H22   H     H_    0.661082 0.302831 0.763048 0.338522
N11   N     N_3   0.431504 0.966517 0.243095 -0.560122
H23   H     H_    0.368142 0.992126 0.223375 0.236645
H24   H     H_    0.474282 0.985063 0.181774 0.230135
N12   N     N_3   0.650660 0.017505 0.709087 -0.587386
H25   H     H_    0.622737 0.058251 0.780466 0.253806
H26   H     H_    0.695542 0.064100 0.672841 0.268709
N13   N     N_3   0.380124 0.410824 0.785277 -0.529151
H27   H     H_    0.332691 0.464123 0.770144 0.236935
H28   H     H_    0.395487 0.362037 0.711772 0.270750
N14   N     N_3   0.621178 0.588536 0.214894 -0.529061
H29   H     H_    0.604770 0.637414 0.287844 0.274567
H30   H     H_    0.669157 0.536147 0.230990 0.230783
N15   N     N_3   0.638937 0.644285 0.792325 -0.535969
H31   H     H_    0.632457 0.722640 0.823893 0.192260
H32   H     H_    0.705251 0.625683 0.807430 0.205557
N16   N     N_3   0.347622 0.365943 0.195807 -0.618717
H33   H     H_    0.299614 0.417607 0.225336 0.246827
H34   H     H_    0.372956 0.325169 0.257498 0.253603

loop_
_geom_bond_atom_site_label_1
_geom_bond_atom_site_label_2
_ccdc_geom_bond_type
C24   O8    A    
Cu2   O3    S    
O14   H21   S    
N11   H23   S    
C27   C29   A    
O10   H15   S    
C8    N12   S    
C24   C27   S    
C3    N9    S    
C6    C9    A    
C15   C22   A    
O12   H16   S    
C2    O2    A    
Cu2   O2    S    
N15   H32   S    
C9    H2    S    
C16   C21   A    
C12   C41   S    
C19   C21   A    
C25   N3    S    
C19   N14   S    
C23   O5    A    
N4    H5    S    
C15   C17   A    
N6    H10   S    
C13   C14   A    
C7    C14   A    
N4    H6    S    
N8    H13   S    
N7    H12   S    
N12   H26   S    
C31   C33   A    
C32   C38   A    
C42   O16   S    
O16   H22   S    
Cu1   O1    S    
C41   O14   S    
Cu1   O8    S    
C4    C35   A    
N5    H7    S    
N11   H24   S    
C21   C22   A    
C10   H1    S    
C16   N6    S    
C5    C10   A    
C38   C40   S    
N3    H4    S    
C24   O6    A    
C7    N11   S    
N5    H8    S    
C1    C6    S    
C5    C12   A    
C17   N16   S    
C6    C11   A    
C39   O10   S    
C1    O3    A    
Cu1   N1    S    
C2    O4    A    
C41   O13   D    
C31   C37   A    
C32   C34   A    
C40   O11   D    
N16   H33   S    
N6    H9    S    
C11   C42   S    
C23   O7    A    
N13   H27   S    
N12   H25   S    
C33   C34   A    
C23   C28   S    
N14   H30   S    
C40   O12   S    
C25   C35   A    
C29   N7    S    
C26   C36   A    
N13   H28   S    
C12   C14   A    
N7    H11   S    
N10   H20   S    
C37   C39   S    
C2    C5    S    
Cu1   Cu2   S    
C20   N1    A    
C19   N2    A    
N9    H18   S    
C7    C9    A    
Cu1   O5    S    
C15   N5    S    
C8    C10   A    
C20   C22   A    
C26   N4    S    
N3    H3    S    
C25   C27   A    
Cu2   O7    S    
N15   H31   S    
C26   C28   A    
C28   C30   A    
C17   N2    A    
C39   O9    D    
C29   C31   A    
C18   N1    A    
C30   C32   A    
C11   C13   A    
C1    O1    A    
C20   N13   S    
C3    C36   A    
Cu2   O6    S    
C33   C35   A    
N16   H34   S    
C34   C36   A    
N14   H29   S    
C18   N15   S    
N9    H17   S    
C8    C13   A    
Cu2   N2    S    
C4    N10   S    
C3    C37   A    
C16   C18   A    
N10   H19   S    
N8    H14   S    
C42   O15   D    
C4    C38   A    
C30   N8    S    
Cu1   O4    S    
