data_mof_unit_47556.cif
_audit_creation_date              2012-12-10T19:42:59-0500
_audit_creation_method            fapswitch 2.2
_symmetry_space_group_name_H-M    P1
_symmetry_Int_Tables_number       1
_space_group_crystal_system       triclinic
_cell_length_a                    18.411372
_cell_length_b                    18.277128
_cell_length_c                    18.275126
_cell_angle_alpha                 119.610163
_cell_angle_beta                  90.171311
_cell_angle_gamma                 59.801086
_cell_volume                      4367.30466472

loop_
_atom_site_label
_atom_site_type_symbol
_atom_type_description
_atom_site_fract_x
_atom_site_fract_y
_atom_site_fract_z
_atom_type_partial_charge
C1    C     C_R   0.860289 0.779576 0.639734 0.543575
C2    C     C_R   0.342591 0.241769 0.697194 0.032205
C3    C     C_R   0.252496 0.278208 0.706431 0.054255
C4    C     C_R   0.138813 0.220124 0.360500 0.501552
C5    C     C_R   0.191144 0.376632 0.724386 0.059199
C6    C     C_R   0.189598 0.050167 0.331180 0.014144
C7    C     C_R   0.191157 0.108948 0.304189 -0.016482
C8    C     C_R   0.242013 0.057806 0.216342 -0.128341
C9    C     C_R   0.299985 0.950007 0.160689 -0.025468
C10   C     C_R   0.304642 0.891898 0.193380 -0.020833
C11   C     C_R   0.245333 0.944557 0.276890 0.015686
C12   C     C_R   0.283079 0.653584 0.808993 -0.115287
C13   C     C_3   0.252354 0.931985 0.352244 -0.043219
C14   C     C_3   0.185655 0.051584 0.414645 0.259901
C15   C     C_R   0.231812 0.554663 0.338353 -0.022038
C16   C     C_R   0.860517 0.499199 0.639535 0.513986
C17   C     C_R   0.195189 0.499458 0.303628 0.022730
C18   C     C_R   0.214702 0.441617 0.210316 -0.144298
C19   C     C_R   0.269173 0.441184 0.156203 -0.146027
C20   C     C_R   0.305376 0.498206 0.194469 0.033069
C21   C     C_R   0.285437 0.552905 0.286286 0.024111
C22   C     C_3   0.300153 0.622246 0.363166 -0.006803
C23   C     C_R   0.262612 0.581401 0.786646 -0.037874
C24   C     C_3   0.239580 0.622905 0.422389 -0.057331
C25   C     C_R   0.828078 0.949645 0.694319 0.005198
C26   C     C_R   0.804402 0.890549 0.698333 0.023935
C27   C     C_R   0.723378 0.942613 0.762455 -0.115190
C28   C     C_R   0.139839 0.500001 0.360085 0.514741
C29   C     C_R   0.668396 0.051593 0.820514 -0.007299
C30   C     C_R   0.694470 0.108853 0.811028 -0.018727
C31   C     C_R   0.775545 0.053535 0.747680 -0.032978
C32   C     C_3   0.833840 0.065134 0.703608 0.133747
C33   C     C_3   0.895111 0.944716 0.642530 -0.085036
C34   C     C_R   0.188839 0.596626 0.756925 -0.023919
C35   C     C_R   0.722009 0.586489 0.331151 -0.031639
C36   C     C_R   0.806015 0.497130 0.302073 0.046659
C37   C     C_R   0.839919 0.410387 0.212803 0.108660
C38   C     C_R   0.785471 0.413752 0.159109 -0.152060
C39   C     C_R   0.697393 0.500394 0.193784 -0.012600
C40   C     C_R   0.860305 0.498457 0.359827 0.520551
C41   C     C_R   0.669058 0.588045 0.277884 0.041161
C42   C     C_3   0.585736 0.659205 0.355440 0.016361
C43   C     C_3   0.644558 0.656887 0.414568 -0.241951
C44   C     C_R   0.714168 0.558733 0.719326 -0.008096
C45   C     C_R   0.313785 0.493886 0.790776 0.007138
C46   C     C_R   0.806148 0.497243 0.694267 0.030567
C47   C     C_R   0.844384 0.433936 0.725502 -0.155102
C48   C     C_R   0.789935 0.434425 0.779671 -0.153454
C49   C     C_R   0.696295 0.499681 0.804850 0.021055
C50   C     C_R   0.661754 0.561660 0.773715 0.050220
C51   C     C_3   0.578156 0.642918 0.775153 0.007746
C52   C     C_R   0.132847 0.506395 0.647334 0.521975
C53   C     C_3   0.638491 0.637611 0.711462 -0.241219
C54   C     C_R   0.360531 0.499469 0.139710 0.517052
C55   C     C_R   0.639815 0.500389 0.860292 0.503929
C56   C     C_R   0.301348 0.413794 0.748026 -0.018583
C57   C     C_R   0.361860 0.780014 0.139478 0.514591
C58   C     C_R   0.639573 0.220285 0.862159 0.471838
C59   C     C_R   0.640021 0.499705 0.139704 0.499088
C60   C     C_R   0.364119 0.496575 0.854869 0.542564
C61   C     C_R   0.126946 0.692911 0.770849 -0.084891
C62   C     C_R   0.143316 0.768402 0.802226 0.190465
C63   C     C_R   0.224020 0.746603 0.818122 0.165863
C64   C     C_3   0.193943 0.226402 0.775073 -0.322829
C65   C     C_2   0.359793 0.902699 0.073182 0.227517
C66   C     C_2   0.219671 0.870900 0.352129 0.228263
C67   C     C_R   0.221626 0.436232 0.729463 -0.027598
C68   C     C_3   0.027424 0.194269 0.515259 -0.267055
C69   C     C_3   0.312082 0.068647 0.448086 -0.321357
C70   C     C_3   0.407530 0.629760 0.439260 -0.323612
C71   C     C_2   0.152790 0.726000 0.482503 0.206675
C72   C     C_2   0.587832 0.102119 0.892250 0.244069
C73   C     C_2   0.784986 0.121754 0.661985 0.293542
C74   C     C_3   0.941417 0.110876 0.725532 -0.285016
C75   C     C_2   0.904537 0.895604 0.544925 0.281384
C76   C     C_3   0.931025 0.251852 0.202530 -0.273675
C77   C     C_3   0.561493 0.804510 0.349895 -0.264463
C78   C     C_R   0.176116 0.517238 0.717222 0.035479
C79   C     C_3   0.101311 0.898089 0.771642 -0.249128
C80   C     C_3   0.572771 0.775641 0.920291 -0.263425
C81   C     C_3   0.313942 0.795573 0.787690 -0.312196
C82   C     C_3   0.506113 0.258863 0.639624 -0.276662
C83   C     C_2   0.409427 0.132720 0.665375 0.208321
C84   C     C_2   0.094461 0.420657 0.748981 0.287748
C85   C     C_R   0.366572 0.311390 0.721526 0.154807
H1    H     H_    0.320838 0.899557 0.355611 0.105894
H2    H     H_    0.551361 0.623177 0.353810 0.135001
H3    H     H_    0.635634 0.731395 0.460824 0.167931
H4    H     H_    0.645178 0.617690 0.445854 0.113281
H5    H     H_    0.915744 0.384727 0.708845 0.128111
H6    H     H_    0.821291 0.384392 0.802026 0.147781
H7    H     H_    0.537097 0.615585 0.744585 0.121779
H8    H     H_    0.634305 0.603831 0.643031 0.111438
H9    H     H_    0.636561 0.708258 0.739079 0.160294
H10   H     H_    0.346326 0.638457 0.815620 0.161638
H11   H     H_    0.241528 0.102189 0.192961 0.189112
H12   H     H_    0.187949 0.397117 0.179032 0.153927
H13   H     H_    0.264668 0.139552 0.640863 0.262982
H14   H     H_    0.167287 0.179849 0.760790 0.145240
H15   H     H_    0.140306 0.308178 0.827605 0.163937
H16   H     H_    0.250300 0.199214 0.800024 0.145659
H17   H     H_    0.424388 0.830030 0.042404 0.144869
H18   H     H_    0.209111 0.871831 0.411025 0.090349
H19   H     H_    0.074195 0.045593 0.416575 0.260443
H20   H     H_    0.965961 0.205373 0.541957 0.140267
H21   H     H_    0.012609 0.228574 0.476664 0.164629
H22   H     H_    0.044339 0.234608 0.573474 0.160237
H23   H     H_    0.282379 0.396723 0.084938 0.152658
H24   H     H_    0.178131 0.182543 0.518598 0.290768
H25   H     H_    0.319932 0.130910 0.493450 0.153951
H26   H     H_    0.332122 0.047156 0.379501 0.141655
H27   H     H_    0.356586 0.002659 0.452205 0.143031
H28   H     H_    0.437219 0.535602 0.302978 0.276868
H29   H     H_    0.477625 0.581716 0.434780 0.135172
H30   H     H_    0.363580 0.656026 0.500886 0.157385
H31   H     H_    0.395384 0.697828 0.443148 0.134181
H32   H     H_    0.115590 0.772479 0.458043 0.098762
H33   H     H_    0.555808 0.180755 0.949566 0.131027
H34   H     H_    0.273895 0.696555 0.371497 0.141994
H35   H     H_    0.713319 0.177550 0.690011 0.100191
H36   H     H_    0.889483 0.088320 0.807111 0.244055
H37   H     H_    0.968831 0.142628 0.777201 0.123427
H38   H     H_    0.913224 0.160644 0.700798 0.196995
H39   H     H_    0.996419 0.031332 0.670177 0.140347
H40   H     H_    0.944785 0.898181 0.504282 0.134901
H41   H     H_    0.955976 0.277596 0.110352 0.248586
H42   H     H_    0.906887 0.294055 0.276096 0.146214
H43   H     H_    0.890404 0.223151 0.173266 0.129502
H44   H     H_    0.001188 0.184883 0.177045 0.161008
H45   H     H_    0.273528 0.583385 0.455084 0.170313
H46   H     H_    0.474572 0.812754 0.431808 0.242039
H47   H     H_    0.506420 0.879183 0.363425 0.127568
H48   H     H_    0.600500 0.753301 0.278000 0.159686
H49   H     H_    0.603799 0.818102 0.390651 0.167813
H50   H     H_    0.014022 0.882834 0.825260 0.237807
H51   H     H_    0.044562 0.938776 0.752949 0.126441
H52   H     H_    0.158311 0.830724 0.709458 0.189365
H53   H     H_    0.118504 0.952005 0.814179 0.170203
H54   H     H_    0.475784 0.799762 0.858175 0.273845
H55   H     H_    0.524064 0.854467 0.980552 0.161884
H56   H     H_    0.063723 0.711570 0.760375 0.138255
H57   H     H_    0.621208 0.777851 0.887039 0.150249
H58   H     H_    0.607456 0.723729 0.942173 0.149690
H59   H     H_    0.252013 0.842757 0.911538 0.284328
H60   H     H_    0.318020 0.862334 0.815323 0.164391
H61   H     H_    0.301382 0.776796 0.723375 0.138151
H62   H     H_    0.378592 0.728748 0.775681 0.127938
H63   H     H_    0.491644 0.224585 0.729886 0.301388
H64   H     H_    0.514259 0.193314 0.576924 0.189248
H65   H     H_    0.572906 0.239483 0.643946 0.139230
H66   H     H_    0.471700 0.328365 0.638377 0.134766
H67   H     H_    0.704320 0.898207 0.768797 0.172354
H68   H     H_    0.391070 0.093958 0.682501 0.116156
H69   H     H_    0.072416 0.370515 0.727842 0.123353
H70   H     H_    0.959750 0.909923 0.653740 0.143982
H71   H     H_    0.810453 0.345963 0.092192 0.139885
N1    N     N_2   0.223237 0.215311 0.694631 -0.558663
N2    N     N_2   0.242927 0.821490 0.850346 -0.492324
N3    N     N_2   0.456317 0.278309 0.715725 -0.478122
N4    N     N_2   0.097785 0.085171 0.458508 -0.506059
N5    N     N_2   0.220732 0.103642 0.476887 -0.490473
N6    N     N_2   0.391564 0.569518 0.361597 -0.515642
N7    N     N_2   0.872949 0.110741 0.764204 -0.498245
N8    N     N_2   0.926229 0.317801 0.177844 -0.477211
N9    N     N_2   0.525421 0.760396 0.371769 -0.506267
N10   N     N_2   0.076785 0.866925 0.820761 -0.495604
N11   N     N_2   0.526691 0.742160 0.861608 -0.491968
O1    O     O_3   0.000000 0.500000 0.500000 -0.448242
O2    O     O_R   0.676550 0.268320 0.884150 -0.523417
O3    O     O_R   0.555150 0.560600 0.176460 -0.540408
O4    O     O_R   0.944950 0.731580 0.615800 -0.521962
O5    O     O_R   0.384220 0.439220 0.884170 -0.507447
O6    O     O_R   0.676580 0.439170 0.055020 -0.549284
O7    O     O_R   0.384230 0.560650 0.884170 -0.565310
O8    O     O_R   0.384260 0.731500 0.055040 -0.557575
O9    O     O_R   0.555100 0.268330 0.884160 -0.564565
O10   O     O_R   0.384250 0.560620 0.176470 -0.530955
O11   O     O_R   0.676570 0.439190 0.884150 -0.543907
O12   O     O_R   0.944910 0.439280 0.615800 -0.565698
O13   O     O_R   0.115780 0.268410 0.444920 -0.567173
O14   O     O_R   0.823470 0.560720 0.615800 -0.547091
O15   O     O_R   0.115800 0.439290 0.323490 -0.547178
O16   O     O_R   0.823460 0.560740 0.444930 -0.553417
O17   O     O_R   0.115830 0.560690 0.615790 -0.546644
O18   O     O_R   0.944900 0.439310 0.323490 -0.503047
O19   O     O_R   0.115810 0.439260 0.615790 -0.537906
O20   O     O_2   0.337966 0.945801 0.034998 -0.528895
O21   O     O_2   0.205110 0.820525 0.287281 -0.491920
O22   O     O_2   0.123319 0.757828 0.559361 -0.544690
O23   O     O_R   0.115820 0.560710 0.444920 -0.509287
O24   O     O_2   0.556911 0.055496 0.889009 -0.514847
O25   O     O_2   0.825484 0.108223 0.598741 -0.540224
O26   O     O_2   0.868637 0.852245 0.510571 -0.490564
O27   O     O_2   0.484891 0.083412 0.616676 -0.522990
O28   O     O_2   0.038380 0.513737 0.794956 -0.516807
O29   O     O_R   0.823500 0.731590 0.615800 -0.539760
O30   O     O_R   0.115770 0.268420 0.323490 -0.545590
O31   O     O_3   0.500040 0.499910 0.999960 -0.444972
O32   O     O_R   0.384230 0.439200 0.055040 -0.553158
O33   O     O_R   0.555130 0.560630 0.884160 -0.540079
O34   O     O_R   0.384270 0.731490 0.176470 -0.506648
Zn1   Zn    Zn3+2 0.043370 0.413240 0.543370 0.910134
Zn2   Zn    Zn3+2 0.869870 0.586760 0.543380 0.941013
Zn3   Zn    Zn3+2 0.043360 0.413260 0.369880 0.953521
Zn4   Zn    Zn3+2 0.043390 0.586740 0.543370 0.986825
Zn5   Zn    Zn3+2 0.456670 0.586670 0.956580 0.936510
Zn6   Zn    Zn3+2 0.456680 0.586650 0.130080 0.957869
Zn7   Zn    Zn3+2 0.630180 0.413150 0.956570 0.931536
Zn8   Zn    Zn3+2 0.456650 0.413170 0.956580 0.943463

loop_
_geom_bond_atom_site_label_1
_geom_bond_atom_site_label_2
_ccdc_geom_bond_type
C25   C31   A    
C74   H39   S    
C65   O20   D    
C45   C60   S    
C4    O30   A    
C27   H67   S    
C23   C45   A    
C66   O21   D    
C27   C29   A    
C60   O7    A    
C41   C42   S    
C51   N11   S    
C35   C36   A    
C8    H11   S    
C38   H71   S    
C5    C67   A    
O2    Zn7   S    
C7    C8    A    
C39   C41   A    
C70   H29   S    
C79   H51   S    
C12   C23   A    
C26   C27   A    
C43   H4    S    
C52   O19   A    
C2    C85   A    
O15   Zn3   S    
C43   H3    S    
O18   Zn3   S    
C36   C37   A    
C69   N5    S    
O13   Zn1   S    
C74   N7    S    
C22   N6    S    
C69   H27   S    
H41   N8    S    
O31   Zn5   S    
C84   O28   D    
C77   N9    S    
H36   N7    S    
C32   N7    S    
O9    Zn8   S    
O19   Zn1   S    
O30   Zn3   S    
C15   C17   A    
C18   C19   A    
C76   H44   S    
O31   Zn8   S    
C28   O15   A    
H28   N6    S    
C57   O8    A    
C84   H69   S    
C44   C53   S    
C33   C75   S    
C64   H14   S    
C55   O33   A    
C45   C56   A    
C8    C9    A    
C81   H62   S    
C48   H6    S    
O11   Zn7   S    
C13   H1    S    
O12   Zn1   S    
C12   H10   S    
C18   H12   S    
O4    Zn4   S    
C59   O3    A    
C35   C43   S    
C9    C10   A    
C72   O24   D    
C82   H66   S    
C42   N9    S    
C29   C72   S    
C19   H23   S    
C23   C34   A    
C83   O27   D    
C74   H38   S    
O31   Zn6   S    
C73   H35   S    
C21   C22   S    
C2    C83   S    
O14   Zn2   S    
C67   C78   A    
C77   H48   S    
C65   H17   S    
H19   N4    S    
C4    C7    S    
C52   C78   S    
C70   N6    S    
C44   C46   A    
C50   C51   S    
C13   C66   S    
C64   H16   S    
C71   H32   S    
O31   Zn7   S    
C60   O5    A    
C36   C40   S    
C1    O29   A    
C22   H34   S    
C20   C54   S    
O5    Zn8   S    
C16   C46   S    
C6    C11   A    
C5    C84   S    
C16   O14   A    
C40   O18   A    
C70   H31   S    
C25   C26   A    
C80   H55   S    
C53   H8    S    
C1    O4    A    
C34   C61   A    
C54   O32   A    
O1    Zn3   S    
C14   N4    S    
C75   H40   S    
H63   N3    S    
C64   N1    S    
C77   H47   S    
C68   H21   S    
C37   C38   A    
C24   H45   S    
C51   H7    S    
C6    C14   S    
C69   H25   S    
O23   Zn4   S    
C47   C48   A    
H13   N1    S    
C15   C21   A    
C30   C31   A    
C80   H58   S    
C39   C59   S    
C10   C57   S    
C62   C63   A    
C33   H70   S    
C17   C18   A    
O34   Zn6   S    
C59   O6    A    
C58   O2    A    
C71   O22   D    
O29   Zn2   S    
H54   N11   S    
C82   H65   S    
C35   C41   A    
C37   N8    S    
C82   H64   S    
C75   O26   D    
C61   H56   S    
C15   C24   S    
C62   N10   S    
C68   H20   S    
C81   H61   S    
C81   H60   S    
C1    C26   S    
C76   H43   S    
C55   O11   A    
C22   C24   S    
C76   N8    S    
C77   H49   S    
H59   N2    S    
C68   N4    S    
C32   C73   S    
C3    N1    S    
C44   C50   A    
C12   C63   A    
C46   C47   A    
C48   C49   A    
O33   Zn5   S    
C81   N2    S    
C80   N11   S    
C74   H37   S    
C53   H9    S    
C17   C28   S    
O32   Zn8   S    
C66   H18   S    
C31   C32   S    
C58   O9    A    
C52   O17   A    
C3    C5    A    
C28   O23   A    
C16   O12   A    
C6    C7    A    
C83   H68   S    
C70   H30   S    
C56   C67   A    
C68   H22   S    
C80   H57   S    
C63   N2    S    
C54   O10   A    
O16   Zn2   S    
C32   C33   S    
C40   O16   A    
C19   C20   A    
C2    C3    A    
C4    O13   A    
O3    Zn6   S    
C49   C55   S    
C34   C78   A    
C82   N3    S    
C11   C13   S    
C56   C85   A    
C38   C39   A    
C14   N5    S    
C30   C58   S    
C47   H5    S    
H50   N10   S    
O1    Zn1   S    
O6    Zn7   S    
C79   N10   S    
C61   C62   A    
C69   H26   S    
C9    C65   S    
C73   O25   D    
C10   C11   A    
O17   Zn4   S    
C29   C30   A    
O1    Zn2   S    
O10   Zn6   S    
C64   H15   S    
C79   H53   S    
C20   C21   A    
H46   N9    S    
C49   C50   A    
C42   C43   S    
C72   H33   S    
O7    Zn5   S    
C76   H42   S    
O1    Zn4   S    
H24   N5    S    
C42   H2    S    
C85   N3    S    
O8    Zn5   S    
C51   C53   S    
C13   C14   S    
C79   H52   S    
C24   C71   S    
C25   C33   S    
C57   O34   A    
