data_mof_unit_15589.cif
_audit_creation_date              2012-12-11T14:11:02-0500
_audit_creation_method            fapswitch 2.2
_symmetry_space_group_name_H-M    P1
_symmetry_Int_Tables_number       1
_space_group_crystal_system       triclinic
_cell_length_a                    19.73612
_cell_length_b                    17.214119
_cell_length_c                    15.468774
_cell_angle_alpha                 89.999877
_cell_angle_beta                  52.265505
_cell_angle_gamma                 89.999488
_cell_volume                      4156.22889471

loop_
_atom_site_label
_atom_site_type_symbol
_atom_type_description
_atom_site_fract_x
_atom_site_fract_y
_atom_site_fract_z
_atom_type_partial_charge
C1    C     C_R   0.338774 0.174850 0.049389 -0.066417
C2    C     C_3   0.671036 0.734475 0.453717 0.814049
C3    C     C_3   0.774324 0.206661 0.428923 0.790142
C4    C     C_3   0.225716 0.793295 0.571040 0.790032
C5    C     C_3   0.725687 0.706670 0.571066 0.790122
C6    C     C_3   0.274308 0.293319 0.428940 0.790086
C7    C     C_3   0.171009 0.765558 0.453743 0.813962
C8    C     C_3   0.828954 0.234484 0.546290 0.814072
C9    C     C_2   0.287181 0.687321 0.953375 -0.101609
C10   C     C_2   0.712818 0.312679 0.046626 -0.101588
C11   C     C_2   0.811048 0.743672 0.903068 -0.057452
C12   C     C_R   0.661226 0.825149 0.950611 -0.066415
C13   C     C_2   0.188952 0.256328 0.096932 -0.057436
C14   C     C_2   0.688973 0.243663 0.096904 -0.057476
C15   C     C_2   0.311027 0.756337 0.903096 -0.057461
C16   C     C_2   0.212803 0.187312 0.046650 -0.101623
C17   C     C_2   0.787196 0.812688 0.953351 -0.101566
C18   C     C_R   0.347037 0.829748 0.221789 0.722338
C19   C     C_R   0.652960 0.170255 0.778213 0.722289
C20   C     C_R   0.605861 0.801732 0.788154 0.673682
C21   C     C_R   0.394141 0.198268 0.211845 0.673695
C22   C     C_R   0.894140 0.301732 0.211844 0.673670
C23   C     C_R   0.623435 0.197500 0.008261 0.016251
C24   C     C_R   0.105860 0.698267 0.788153 0.673715
C25   C     C_R   0.152962 0.329746 0.778213 0.722314
C26   C     C_R   0.847037 0.670253 0.221786 0.722307
C27   C     C_R   0.365890 0.889964 0.896449 -0.089715
C28   C     C_R   0.634110 0.110035 0.103551 -0.089710
C29   C     C_R   0.670261 0.913146 0.048643 -0.034689
C30   C     C_R   0.329738 0.086854 0.951357 -0.034693
C31   C     C_R   0.829741 0.413145 0.951353 -0.034693
C32   C     C_R   0.170259 0.586854 0.048647 -0.034709
C33   C     C_R   0.134104 0.389962 0.103559 -0.089707
C34   C     C_R   0.376565 0.802500 0.991740 0.016252
C35   C     C_R   0.865896 0.610038 0.896441 -0.089711
C36   C     C_R   0.404017 0.108312 0.305924 0.753370
C37   C     C_R   0.595985 0.891688 0.694075 0.753376
C38   C     C_R   0.645261 0.078727 0.683616 0.714391
C39   C     C_R   0.354740 0.921275 0.316385 0.714342
C40   C     C_R   0.854738 0.578725 0.316384 0.714372
C41   C     C_R   0.145260 0.421274 0.683616 0.714372
C42   C     C_R   0.095986 0.608310 0.694074 0.753344
C43   C     C_R   0.904016 0.391687 0.305924 0.753365
C44   C     C_R   0.287028 0.147931 0.023759 0.070787
C45   C     C_R   0.876569 0.697502 0.991734 0.016266
C46   C     C_R   0.712972 0.852069 0.976241 0.070769
C47   C     C_R   0.651464 0.186037 0.069514 0.058905
C48   C     C_R   0.348536 0.813963 0.930486 0.058905
C49   C     C_R   0.848546 0.686042 0.930473 0.058881
C50   C     C_R   0.151454 0.313958 0.069528 0.058876
C51   C     C_R   0.212968 0.647932 0.976248 0.070804
C52   C     C_R   0.787032 0.352067 0.023752 0.070793
C53   C     C_R   0.303275 0.863651 0.323646 -0.180295
C54   C     C_R   0.696725 0.136353 0.676356 -0.180325
C55   C     C_R   0.617010 0.815972 0.693117 -0.157665
C56   C     C_R   0.123431 0.302498 0.008266 0.016265
C57   C     C_R   0.382994 0.184028 0.306881 -0.157664
C58   C     C_R   0.882992 0.315971 0.306880 -0.157671
C59   C     C_R   0.117010 0.684025 0.693115 -0.157641
C60   C     C_R   0.196725 0.363648 0.676355 -0.180318
C61   C     C_R   0.803273 0.636350 0.323643 -0.180322
C62   C     C_3   0.289475 0.203601 0.517042 -0.485903
C63   C     C_3   0.710539 0.796399 0.482956 -0.485922
C64   C     C_3   0.813881 0.144471 0.457781 -0.464243
C65   C     C_3   0.186165 0.855525 0.542227 -0.464132
C66   C     C_3   0.686130 0.644472 0.542220 -0.464216
C67   C     C_R   0.161225 0.674849 0.950612 -0.066415
C68   C     C_3   0.313860 0.355528 0.457779 -0.464187
C69   C     C_3   0.210506 0.703602 0.482951 -0.485826
C70   C     C_3   0.789451 0.296400 0.517039 -0.485954
C71   C     C_3   0.615173 0.703316 0.571858 0.715140
C72   C     C_3   0.384827 0.296694 0.428134 0.715142
C73   C     C_3   0.280248 0.761589 0.455032 0.682631
C74   C     C_3   0.719747 0.238376 0.544928 0.682632
C75   C     C_3   0.219752 0.261608 0.544945 0.682637
C76   C     C_3   0.780252 0.738382 0.455059 0.682625
C77   C     C_3   0.884828 0.203323 0.428151 0.715146
C78   C     C_R   0.838775 0.325151 0.049388 -0.066425
C79   C     C_3   0.115179 0.796712 0.571887 0.715126
C80   C     C_3   0.655085 0.763998 0.600773 -0.360832
C81   C     C_3   0.344919 0.236002 0.399225 -0.360828
C82   C     C_3   0.241533 0.822721 0.424686 -0.342473
C83   C     C_3   0.758467 0.177284 0.575318 -0.342479
C84   C     C_3   0.258468 0.322718 0.575317 -0.342480
C85   C     C_3   0.741531 0.677282 0.424682 -0.342476
C86   C     C_3   0.844917 0.263996 0.399223 -0.360835
C87   C     C_3   0.155086 0.735998 0.600770 -0.360824
C88   C     C_3   0.328973 0.265535 0.546274 0.814019
F1    F     F_    0.326840 0.761080 0.200192 -0.650506
F2    F     F_    0.573614 0.920317 0.633073 -0.585173
F3    F     F_    0.657187 0.041884 0.598059 -0.608354
F4    F     F_    0.342820 0.958115 0.401940 -0.608383
F5    F     F_    0.842817 0.541888 0.401940 -0.608355
F6    F     F_    0.157180 0.458110 0.598060 -0.608359
F7    F     F_    0.073612 0.579681 0.633074 -0.585201
F8    F     F_    0.926385 0.420316 0.366929 -0.585168
F9    F     F_    0.528506 0.687444 0.634365 -0.603104
F10   F     F_    0.471492 0.312577 0.365623 -0.603108
F11   F     F_    0.366555 0.744239 0.394378 -0.591078
F12   F     F_    0.673150 0.238926 0.799813 -0.650489
F13   F     F_    0.633435 0.255691 0.605537 -0.591065
F14   F     F_    0.133443 0.244275 0.605572 -0.591070
F15   F     F_    0.866563 0.755703 0.394436 -0.591071
F16   F     F_    0.971497 0.187457 0.365658 -0.603106
F17   F     F_    0.028516 0.812613 0.634424 -0.603127
F18   F     F_    0.357249 0.253157 0.607754 -0.562207
F19   F     F_    0.642770 0.746862 0.392229 -0.562201
F20   F     F_    0.744138 0.193469 0.369733 -0.576058
F21   F     F_    0.255938 0.806439 0.630199 -0.576104
F22   F     F_    0.755881 0.693490 0.630249 -0.576075
F23   F     F_    0.598485 0.730287 0.830010 -0.640105
F24   F     F_    0.244106 0.306490 0.369763 -0.576079
F25   F     F_    0.142715 0.753208 0.392279 -0.562227
F26   F     F_    0.857213 0.246884 0.607784 -0.562195
F27   F     F_    0.401516 0.269713 0.169989 -0.640112
F28   F     F_    0.901519 0.230288 0.169985 -0.640106
F29   F     F_    0.098488 0.769713 0.830005 -0.640128
F30   F     F_    0.173157 0.261077 0.799812 -0.650497
F31   F     F_    0.826844 0.738923 0.200188 -0.650491
F32   F     F_    0.426391 0.079683 0.366923 -0.585185
H1    H     H_    0.328153 0.223845 0.099506 0.182719
H2    H     H_    0.638019 0.083553 0.163798 0.167668
H3    H     H_    0.690524 0.946844 0.088166 0.131204
H4    H     H_    0.309475 0.053156 0.911835 0.131199
H5    H     H_    0.809480 0.446841 0.911825 0.131211
H6    H     H_    0.190520 0.553159 0.088175 0.131204
H7    H     H_    0.138008 0.416444 0.163810 0.167668
H8    H     H_    0.861992 0.583556 0.836190 0.167670
H9    H     H_    0.278546 0.141567 0.541822 0.281190
H10   H     H_    0.721479 0.858433 0.458178 0.281187
H11   H     H_    0.823906 0.082158 0.434532 0.267780
H12   H     H_    0.671847 0.776155 0.900494 0.182719
H13   H     H_    0.176172 0.917835 0.565483 0.267808
H14   H     H_    0.676111 0.582160 0.565470 0.267782
H15   H     H_    0.323869 0.417839 0.434526 0.267796
H16   H     H_    0.221419 0.641570 0.458168 0.281205
H17   H     H_    0.778505 0.358436 0.541815 0.281179
H18   H     H_    0.310090 0.666565 0.997460 0.155735
H19   H     H_    0.689909 0.333436 0.002542 0.155741
H20   H     H_    0.789768 0.723546 0.856874 0.163664
H21   H     H_    0.210233 0.276454 0.143125 0.163672
H22   H     H_    0.710260 0.223534 0.143089 0.163661
H23   H     H_    0.612517 0.252814 0.985945 0.187715
H24   H     H_    0.289741 0.776465 0.856910 0.163665
H25   H     H_    0.189891 0.166554 0.002570 0.155736
H26   H     H_    0.810108 0.833445 0.997432 0.155736
H27   H     H_    0.387482 0.747186 0.014056 0.187710
H28   H     H_    0.887486 0.752816 0.014051 0.187710
H29   H     H_    0.112514 0.247184 0.985949 0.187709
H30   H     H_    0.171845 0.723843 0.900496 0.182721
H31   H     H_    0.828155 0.276157 0.099504 0.182720
H32   H     H_    0.361981 0.916447 0.836202 0.167662
N1    N     N_R   0.408680 0.130810 0.995780 -0.053920
N2    N     N_R   0.578590 0.132790 0.846380 -0.160726
N3    N     N_R   0.578590 0.867210 0.846380 -0.186961
N4    N     N_R   0.421410 0.132790 0.153620 -0.186960
N5    N     N_R   0.921410 0.367210 0.153620 -0.186959
N6    N     N_R   0.078590 0.632790 0.846380 -0.186962
N7    N     N_R   0.078590 0.367210 0.846380 -0.160723
N8    N     N_R   0.921410 0.632790 0.153620 -0.160723
N9    N     N_R   0.403840 0.921910 0.935760 -0.077766
N10   N     N_R   0.596160 0.078090 0.064240 -0.077767
N11   N     N_R   0.596160 0.921910 0.064240 -0.051724
N12   N     N_R   0.591320 0.869190 0.004220 -0.053918
N13   N     N_R   0.403840 0.078090 0.935760 -0.051723
N14   N     N_R   0.903840 0.421910 0.935760 -0.051724
N15   N     N_R   0.096160 0.578090 0.064240 -0.051723
N16   N     N_R   0.096160 0.421910 0.064240 -0.077765
N17   N     N_R   0.903840 0.578090 0.935760 -0.077765
N18   N     N_R   0.426250 0.076100 0.213650 -0.187465
N19   N     N_R   0.573750 0.923900 0.786350 -0.187469
N20   N     N_R   0.573750 0.076100 0.786350 -0.151648
N21   N     N_R   0.426250 0.923900 0.213650 -0.151647
N22   N     N_R   0.926250 0.576100 0.213650 -0.151645
N23   N     N_R   0.591320 0.130810 0.004220 -0.086146
N24   N     N_R   0.073750 0.423900 0.786350 -0.151647
N25   N     N_R   0.073750 0.576100 0.786350 -0.187466
N26   N     N_R   0.926250 0.423900 0.213650 -0.187469
N27   N     N_R   0.408680 0.869190 0.995780 -0.086145
N28   N     N_R   0.908680 0.630810 0.995780 -0.086147
N29   N     N_R   0.091320 0.369190 0.004220 -0.086143
N30   N     N_R   0.091320 0.630810 0.004220 -0.053922
N31   N     N_R   0.908680 0.369190 0.995780 -0.053919
N32   N     N_R   0.421410 0.867210 0.153620 -0.160721
Ni1   Ni    Ni4+2 0.500000 0.131570 0.000000 0.272623
Ni2   Ni    Ni4+2 0.500000 0.868430 0.000000 0.272631
Ni3   Ni    Ni4+2 0.000000 0.631570 0.000000 0.272621
Ni4   Ni    Ni4+2 0.000000 0.368430 0.000000 0.272626
Ni5   Ni    Ni4+2 0.488900 0.000000 0.862310 0.292353
Ni6   Ni    Ni4+2 0.511100 0.000000 0.137690 0.292353
Ni7   Ni    Ni4+2 0.988900 0.500000 0.862310 0.292351
Ni8   Ni    Ni4+2 0.011100 0.500000 0.137690 0.292348

loop_
_geom_bond_atom_site_label_1
_geom_bond_atom_site_label_2
_ccdc_geom_bond_type
C27   C48   A    
C4    F21   S    
C14   H22   S    
C28   C47   A    
C27   H32   S    
N25   Ni7   S    
C20   N3    A    
C45   H28   S    
C64   C77   S    
C29   N11   A    
C62   C81   S    
N11   N12   A    
C9    C51   S    
N5    Ni4   S    
C40   F5    S    
C21   F27   S    
C10   C52   S    
N6    Ni3   S    
C66   C85   S    
C79   C87   S    
C28   N10   A    
C6    C75   S    
C43   N26   A    
N27   Ni2   S    
C72   F10   S    
C3    C64   S    
N15   Ni8   S    
C71   F9    S    
C39   F4    S    
C79   F17   S    
C24   F29   S    
C37   F2    S    
C65   C79   S    
C67   N30   A    
C26   C61   A    
C78   N31   A    
N12   Ni2   S    
C4    C65   S    
C24   N6    A    
C75   C84   S    
N15   N30   A    
C12   N12   A    
C5    F22   S    
C42   N25   A    
C8    C83   S    
C2    F19   S    
C33   H7    S    
N26   Ni8   S    
C8    C70   S    
N19   Ni5   S    
C2    C85   S    
N14   Ni7   S    
C9    H18   S    
C63   H10   S    
C32   H6    S    
C3    C74   S    
C70   C74   S    
C71   C80   S    
C18   C53   A    
C66   H14   S    
C41   F6    S    
N21   N32   A    
C35   C49   A    
C75   F14   S    
N13   Ni5   S    
C64   H11   S    
C26   N8    A    
C25   C60   A    
C18   N32   A    
N9    N27   A    
C74   C83   S    
N17   N28   A    
C39   N21   A    
C45   N28   A    
C8    F26   S    
N30   Ni3   S    
C76   F15   S    
C22   F28   S    
C6    C81   S    
C25   F30   S    
C3    C86   S    
C30   C44   A    
C62   H9    S    
C23   H23   S    
C34   N27   A    
N8    N22   A    
C15   C48   S    
C20   C55   A    
C52   C78   A    
C58   C86   S    
C54   C83   S    
C72   C88   S    
N29   Ni4   S    
C78   H31   S    
C59   C87   S    
C63   C80   S    
N2    Ni1   S    
C23   C47   A    
C42   F7    S    
C68   C84   S    
C84   C88   S    
C26   F31   S    
C30   N13   A    
N9    Ni5   S    
C36   C57   A    
C10   C14   D    
C4    C87   S    
C25   N7    A    
N24   Ni7   S    
N10   N23   A    
C56   N29   A    
C33   C50   A    
N4    Ni1   S    
C62   C88   S    
C38   F3    S    
C50   C56   A    
C40   C61   A    
C13   C50   S    
C16   H25   S    
N7    Ni4   S    
C1    N1    A    
C11   H20   S    
C64   C83   S    
C21   C57   A    
C11   C49   S    
N28   Ni3   S    
N23   Ni1   S    
C20   F23   S    
C88   F18   S    
C34   H27   S    
C1    C44   A    
C66   C71   S    
C38   C54   A    
C31   N14   A    
C45   C49   A    
C68   C72   S    
C43   F8    S    
N2    N20   A    
C51   C67   A    
C17   C46   S    
C5    C80   S    
C69   C73   S    
C4    C73   S    
C61   C85   S    
N4    N18   A    
C74   F13   S    
C19   C54   A    
C12   C46   A    
C41   N24   A    
C30   H4    S    
C77   C86   S    
C69   H16   S    
C13   H21   S    
N7    N24   A    
C8    C77   S    
C35   N17   A    
C57   C81   S    
C62   C75   S    
C13   C16   D    
C33   N16   A    
C34   C48   A    
C10   H19   S    
C31   H5    S    
C2    C71   S    
C70   C86   S    
C73   C82   S    
N10   Ni6   S    
C2    C63   S    
C7    C79   S    
C22   C58   A    
C32   C51   A    
C73   F11   S    
C16   C44   S    
C11   C17   D    
C12   H12   S    
N1    N13   A    
C18   F1    S    
C6    F24   S    
N6    N25   A    
C68   H15   S    
N14   N31   A    
C72   C81   S    
C41   C60   A    
C5    C66   S    
N3    Ni2   S    
C69   C87   S    
C42   C59   A    
C37   N19   A    
C19   F12   S    
C38   N20   A    
C14   C47   S    
C22   N5    A    
C3    F20   S    
N18   Ni6   S    
C36   N18   A    
N16   Ni8   S    
C31   C52   A    
C29   C46   A    
N20   Ni5   S    
C7    F25   S    
C5    C76   S    
C7    C69   S    
C9    C15   D    
N31   Ni4   S    
C27   N9    A    
C40   N22   A    
C55   C80   S    
C60   C84   S    
C65   C82   S    
C39   C53   A    
N1    Ni1   S    
C24   C59   A    
C29   H3    S    
C6    C68   S    
C21   N4    A    
N32   Ni2   S    
C17   H26   S    
N11   Ni6   S    
C28   H2    S    
N5    N26   A    
C35   H8    S    
C36   F32   S    
C1    H1    S    
C15   H24   S    
C37   C55   A    
N3    N19   A    
C7    C82   S    
C23   N23   A    
C70   H17   S    
N16   N29   A    
C63   C76   S    
C32   N15   A    
C19   N2    A    
N17   Ni7   S    
C43   C58   A    
C53   C82   S    
C77   F16   S    
N8    Ni3   S    
C56   H29   S    
C76   C85   S    
C65   H13   S    
N21   Ni6   S    
N22   Ni8   S    
C67   H30   S    
