data_mof_unit_20972.cif
_audit_creation_date              2012-12-10T20:37:27-0500
_audit_creation_method            fapswitch 2.2
_symmetry_space_group_name_H-M    P1
_symmetry_Int_Tables_number       1
_space_group_crystal_system       triclinic
_cell_length_a                    15.719783
_cell_length_b                    10.677029
_cell_length_c                    9.872936
_cell_angle_alpha                 89.941601
_cell_angle_beta                  90.23781
_cell_angle_gamma                 90.082384
_cell_volume                      1657.06245723

loop_
_atom_site_label
_atom_site_type_symbol
_atom_type_description
_atom_site_fract_x
_atom_site_fract_y
_atom_site_fract_z
_atom_type_partial_charge
C1    C     C_R   0.502476 0.259963 0.500102 0.871561
C2    C     C_3   0.083009 0.498022 0.502297 0.150519
C3    C     C_3   0.971544 0.572507 0.601971 -0.224251
C4    C     C_3   0.917101 0.497598 0.501220 0.171896
C5    C     C_3   0.028071 0.615499 0.482068 -0.200448
C6    C     C_3   0.971585 0.541064 0.381213 -0.163121
C7    C     C_1   0.173900 0.499160 0.500695 -0.015266
C8    C     C_1   0.826291 0.498273 0.500884 -0.068426
C9    C     C_R   0.514534 0.063698 0.623191 0.135604
C10   C     C_R   0.515834 0.128564 0.500871 -0.098240
C11   C     C_R   0.533380 0.064947 0.379924 -0.228802
C12   C     C_R   0.337971 0.500013 0.499790 0.902778
C13   C     C_R   0.533544 0.935415 0.379870 -0.218889
C14   C     C_R   0.516148 0.871403 0.500762 -0.101076
C15   C     C_R   0.514774 0.935949 0.623158 0.111843
C16   C     C_3   0.453027 0.928248 0.737672 -0.446373
C17   C     C_3   0.452579 0.070200 0.737451 -0.491543
C18   C     C_R   0.456777 0.409740 0.070368 0.176999
C19   C     C_R   0.547864 0.583231 0.072224 -0.083236
C20   C     C_R   0.547556 0.583631 0.928285 -0.107563
C21   C     C_R   0.458567 0.407848 0.928048 0.169285
C22   C     C_3   0.366574 0.375828 0.916704 -0.459448
C23   C     C_R   0.502658 0.740007 0.499970 0.878497
C24   C     C_3   0.362939 0.381938 0.070650 -0.296750
C25   C     C_R   0.662077 0.499940 0.500246 0.897786
C26   C     C_3   0.971325 0.379456 0.521771 -0.265989
C27   C     C_3   0.027444 0.424084 0.402978 0.130034
C28   C     C_1   0.249142 0.499702 0.499710 -0.172865
C29   C     C_1   0.750995 0.499078 0.500682 -0.191395
C30   C     C_3   0.027533 0.455300 0.620544 0.042979
H1    H     H_    0.482269 0.887468 0.830452 0.206458
H2    H     H_    0.390353 0.110790 0.706405 0.204676
H3    H     H_    0.481345 0.111555 0.830272 0.202193
H4    H     H_    0.585252 0.651969 0.126683 0.129403
H5    H     H_    0.584539 0.652889 0.874228 0.135305
H6    H     H_    0.329161 0.449189 0.863137 0.259445
H7    H     H_    0.356636 0.279691 0.876837 0.181121
H8    H     H_    0.348134 0.290108 0.118333 0.126337
H9    H     H_    0.946480 0.283214 0.537909 0.135220
H10   H     H_    0.946578 0.575776 0.282795 0.130501
H11   H     H_    0.053024 0.711688 0.466125 0.149797
H12   H     H_    0.946595 0.633036 0.684063 0.139682
H13   H     H_    0.541091 0.114113 0.284703 0.169937
H14   H     H_    0.541342 0.886511 0.284637 0.170003
H15   H     H_    0.391010 0.886339 0.707260 0.212556
N1    N     N_R   0.499430 0.499140 0.142800 -0.093146
N2    N     N_R   0.499430 0.499180 0.857150 -0.096414
O1    O     O_R   0.500010 0.316790 0.614690 -0.617067
O2    O     O_R   0.500000 0.316760 0.385350 -0.633375
O3    O     O_R   0.376780 0.500010 0.614650 -0.602631
O4    O     O_R   0.376770 0.499970 0.385310 -0.618221
O5    O     O_R   0.500000 0.683240 0.614650 -0.620605
O6    O     O_R   0.499990 0.683210 0.385310 -0.613885
O7    O     O_R   0.623230 0.500030 0.614690 -0.618516
O8    O     O_R   0.623220 0.499990 0.385350 -0.622104
Zn1   Zn    Zn3+2 0.500010 0.500020 0.653130 0.956684
Zn2   Zn    Zn3+2 0.499990 0.499980 0.346870 0.962262
C31   C     C_3   0.062606 0.340742 0.290765 -0.430735
C32   C     C_3   0.990949 0.281861 0.206686 -0.339336
C33   C     C_3   0.026689 0.196347 0.097118 -0.869361
H16   H     H_    0.069921 0.249617 0.029455 0.279333
H17   H     H_    0.062340 0.117532 0.143904 0.263476
H18   H     H_    0.973699 0.157390 0.035451 0.243685
H19   H     H_    0.948507 0.226100 0.273454 0.223795
H20   H     H_    0.952620 0.356812 0.157665 0.218555
H21   H     H_    0.103711 0.398534 0.224053 0.200045
H22   H     H_    0.102117 0.266027 0.337704 0.204658
C34   C     C_2   0.307154 0.487087 0.120038 0.567479
H23   H     H_    0.252835 0.465538 0.183247 0.023940
O9    O     O_2   0.321048 0.595783 0.088096 -0.565168
C35   C     C_2   0.056673 0.407770 0.755729 0.362470
H24   H     H_    0.009897 0.381547 0.831071 0.055720
O10   O     O_2   0.132314 0.398444 0.781966 -0.580272

loop_
_geom_bond_atom_site_label_1
_geom_bond_atom_site_label_2
_ccdc_geom_bond_type
C3    H12   S    
C18   C21   A    
C2    C7    S    
C4    C8    S    
C30   C35   S    
C19   N1    A    
C16   H1    S    
C32   H19   S    
C12   C28   S    
C33   H18   S    
C18   C24   S    
C8    C29   T    
C5    C6    S    
C26   H9    S    
C15   C16   S    
O2    Zn2   S    
C33   H17   S    
C20   H5    S    
C31   H21   S    
C19   C20   A    
C16   C17   S    
C24   H8    S    
C11   H13   S    
C2    C27   S    
O4    Zn2   S    
C9    C10   A    
C32   C33   S    
C13   C14   A    
C17   H3    S    
C18   N1    A    
C23   O6    A    
C25   C29   S    
O7    Zn1   S    
C25   O7    A    
C4    C6    S    
C35   O10   D    
O6    Zn2   S    
C34   H23   S    
C31   C32   S    
C22   H7    S    
C27   C31   S    
O3    Zn1   S    
C7    C28   T    
C33   H16   S    
C14   C23   S    
C3    C30   S    
C4    C26   S    
C6    C27   S    
C26   C27   S    
C9    C17   S    
C26   C30   S    
O8    Zn2   S    
N1    Zn2   S    
C6    H10   S    
C2    C5    S    
C3    C4    S    
C12   O4    A    
O1    Zn1   S    
C5    H11   S    
C1    C10   S    
C25   O8    A    
C3    C5    S    
C19   H4    S    
C16   H15   S    
C12   O3    A    
C1    O1    A    
C22   H6    S    
C2    C30   S    
C9    C15   A    
C35   H24   S    
C32   H20   S    
C11   C13   A    
C23   O5    A    
C22   C24   S    
C20   N2    A    
C10   C11   A    
C24   C34   S    
C31   H22   S    
C34   O9    D    
C17   H2    S    
C14   C15   A    
C21   C22   S    
C1    O2    A    
C13   H14   S    
O5    Zn1   S    
N2    Zn1   S    
C21   N2    A    
