data_mof_unit_5025.cif
_audit_creation_date              2013-03-05T16:10:35-0500
_audit_creation_method            fapswitch 2.2
_symmetry_space_group_name_H-M    P1
_symmetry_Int_Tables_number       1
_space_group_crystal_system       triclinic
_cell_length_a                    15.38608
_cell_length_b                    15.278083
_cell_length_c                    9.432627
_cell_angle_alpha                 89.999063
_cell_angle_beta                  89.672386
_cell_angle_gamma                 90.000991
_cell_volume                      2217.28956295

loop_
_atom_site_label
_atom_site_type_symbol
_atom_site_description
_atom_site_fract_x
_atom_site_fract_y
_atom_site_fract_z
_atom_type_partial_charge
O1    O     O_R   0.091250 0.408820 0.620260 -0.576820
O2    O     O_R   0.091250 0.408820 0.379740 -0.570264
O3    O     O_R   0.091250 0.591180 0.620260 -0.572077
O4    O     O_R   0.091250 0.591180 0.379740 -0.560275
O5    O     O_R   0.591250 0.908820 0.620260 -0.571952
O6    O     O_R   0.591250 0.908820 0.379740 -0.560420
O7    O     O_R   0.591250 0.091180 0.620260 -0.576886
O8    O     O_R   0.591250 0.091180 0.379740 -0.570263
C1    C     C_R   0.122900 0.381912 0.499816 0.768492
C2    C     C_R   0.122792 0.617880 0.499833 0.767593
C3    C     C_R   0.622805 0.882131 0.499833 0.767604
C4    C     C_R   0.622907 0.118079 0.499814 0.768474
O9    O     O_R   0.908940 0.408800 0.620260 -0.600420
O10   O     O_R   0.908940 0.408800 0.379740 -0.603795
O11   O     O_R   0.908940 0.591200 0.620260 -0.599194
O12   O     O_R   0.908940 0.591200 0.379740 -0.601660
O13   O     O_R   0.408940 0.908800 0.620260 -0.599177
O14   O     O_R   0.408940 0.908800 0.379740 -0.601651
O15   O     O_R   0.408940 0.091200 0.620260 -0.600424
O16   O     O_R   0.408940 0.091200 0.379740 -0.603787
C5    C     C_R   0.884346 0.376797 0.500346 0.815483
C6    C     C_R   0.884103 0.623280 0.500365 0.812384
C7    C     C_R   0.384093 0.876726 0.500367 0.812468
C8    C     C_R   0.384342 0.123198 0.500344 0.815459
Cu1   Cu    Cu3+1 0.000100 0.500000 0.642410 0.928586
Cu2   Cu    Cu3+1 0.000100 0.500000 0.357590 0.931882
Cu3   Cu    Cu3+1 0.500100 0.000000 0.642410 0.928587
Cu4   Cu    Cu3+1 0.500100 1.000000 0.357590 0.931827
C9    C     C_3   0.820420 0.253802 0.645007 -0.052494
C10   C     C_3   0.834459 0.240786 0.373783 -0.026096
C11   C     C_3   0.819997 0.747253 0.645144 -0.056033
C12   C     C_3   0.832503 0.758780 0.371879 -0.029621
C13   C     C_3   0.319893 0.752833 0.645233 -0.055966
C14   C     C_3   0.332534 0.741170 0.371980 -0.029508
C15   C     C_3   0.320418 0.246189 0.645000 -0.052444
C16   C     C_3   0.334448 0.259205 0.373779 -0.026156
H1    H     H_    0.804788 0.303463 0.728091 0.210748
H2    H     H_    0.822309 0.280828 0.277141 0.217895
H3    H     H_    0.805073 0.698159 0.729277 0.213285
H4    H     H_    0.818163 0.718755 0.275990 0.213245
H5    H     H_    0.304987 0.801974 0.729299 0.213268
H6    H     H_    0.318155 0.781121 0.276020 0.213195
H7    H     H_    0.304769 0.196529 0.728081 0.210696
H8    H     H_    0.322321 0.219160 0.277137 0.217887
C17   C     C_3   0.246403 0.683009 0.645165 0.187883
C18   C     C_3   0.265435 0.665318 0.380912 0.163060
C19   C     C_3   0.247201 0.315936 0.644897 0.192449
C20   C     C_3   0.266281 0.334164 0.381232 0.167392
C21   C     C_3   0.747189 0.184066 0.644912 0.192497
C22   C     C_3   0.766311 0.165809 0.381263 0.167383
C23   C     C_3   0.746562 0.817132 0.645027 0.187882
C24   C     C_3   0.765348 0.834588 0.380695 0.163195
H9    H     H_    0.275612 0.616393 0.652624 0.089005
H10   H     H_    0.299465 0.604198 0.413688 0.087498
H11   H     H_    0.276070 0.382674 0.652430 0.081823
H12   H     H_    0.299188 0.396116 0.412982 0.088405
H13   H     H_    0.776046 0.117325 0.652491 0.081944
H14   H     H_    0.799230 0.103875 0.413073 0.088292
H15   H     H_    0.775831 0.883734 0.652209 0.088897
H16   H     H_    0.799353 0.895782 0.413186 0.087628
H17   H     H_    0.715403 0.391707 0.575389 0.194798
H18   H     H_    0.727646 0.389069 0.386974 0.185470
H19   H     H_    0.715238 0.608893 0.578110 0.197934
H20   H     H_    0.726293 0.610819 0.389553 0.183907
H21   H     H_    0.215163 0.891124 0.577898 0.198065
H22   H     H_    0.226347 0.889184 0.389361 0.183818
H23   H     H_    0.215407 0.108267 0.575390 0.194730
H24   H     H_    0.227634 0.110929 0.386972 0.185509
H25   H     H_    0.104216 0.792063 0.554431 0.209951
H26   H     H_    0.124272 0.782332 0.372553 0.219052
H27   H     H_    0.103878 0.206416 0.549583 0.211064
H28   H     H_    0.125740 0.217752 0.369638 0.219756
H29   H     H_    0.603873 0.293559 0.549505 0.211034
H30   H     H_    0.625780 0.282221 0.369566 0.219749
H31   H     H_    0.604315 0.707989 0.554940 0.209989
H32   H     H_    0.624140 0.717606 0.372962 0.218996
C25   C     C_3   0.729272 0.347578 0.484047 -0.478798
C26   C     C_3   0.728563 0.652689 0.486145 -0.479029
C27   C     C_3   0.228553 0.847321 0.485969 -0.479187
C28   C     C_3   0.229265 0.152409 0.484056 -0.478844
C29   C     C_3   0.820487 0.304393 0.501201 0.007341
C30   C     C_3   0.819843 0.695872 0.501287 0.018178
C31   C     C_3   0.319821 0.804142 0.501295 0.018199
C32   C     C_3   0.320479 0.195598 0.501199 0.007349
C33   C     C_3   0.194868 0.684753 0.500064 -0.142036
C34   C     C_3   0.195189 0.314661 0.499876 -0.139586
C35   C     C_3   0.695199 0.185325 0.499870 -0.139631
C36   C     C_3   0.694889 0.815261 0.500060 -0.142173
C37   C     C_3   0.156515 0.777500 0.476733 -0.362035
C38   C     C_3   0.157150 0.222003 0.474469 -0.354553
C39   C     C_3   0.657162 0.277978 0.474423 -0.354565
C40   C     C_3   0.656513 0.722500 0.477030 -0.362091
C41   C     C_3   0.992002 0.589755 0.083819 -0.186343
C42   C     C_3   0.992353 0.589730 0.916532 -0.172322
C43   C     C_3   0.927971 0.447887 0.084321 -0.200972
C44   C     C_3   0.927240 0.448838 0.916893 -0.203407
C45   C     C_3   0.427765 0.051816 0.084321 -0.200971
C46   C     C_3   0.427063 0.050900 0.916889 -0.203501
C47   C     C_3   0.492354 0.910212 0.083819 -0.186331
C48   C     C_3   0.492640 0.910245 0.916536 -0.172277
H33   H     H_    0.044929 0.632361 0.122807 0.222174
H34   H     H_    0.045112 0.632199 0.876809 0.233697
H35   H     H_    0.932703 0.378808 0.120879 0.164714
H36   H     H_    0.930004 0.380113 0.878331 0.167932
H37   H     H_    0.432211 0.120909 0.120893 0.164662
H38   H     H_    0.429610 0.119644 0.878378 0.167815
H39   H     H_    0.545485 0.867848 0.122722 0.222589
H40   H     H_    0.545506 0.867942 0.876773 0.233965
H41   H     H_    0.930408 0.619952 0.121750 0.155745
H42   H     H_    0.931032 0.620211 0.879231 0.152657
H43   H     H_    0.865016 0.473626 0.125376 0.163872
H44   H     H_    0.864527 0.476283 0.878944 0.162828
H45   H     H_    0.364912 0.025811 0.125355 0.163837
H46   H     H_    0.364447 0.023258 0.878889 0.162853
H47   H     H_    0.430914 0.879741 0.121835 0.155753
H48   H     H_    0.431402 0.879574 0.879275 0.152623
H49   H     H_    0.137976 0.501350 0.119895 0.246938
H50   H     H_    0.139510 0.493499 0.871458 0.215113
H51   H     H_    0.088659 0.395188 0.120233 0.219361
H52   H     H_    0.082476 0.391837 0.883653 0.219978
H53   H     H_    0.588220 0.105195 0.120218 0.218998
H54   H     H_    0.582132 0.108450 0.883585 0.219802
H55   H     H_    0.637960 0.999237 0.119947 0.247005
H56   H     H_    0.639477 0.006938 0.871534 0.215317
C49   C     C_3   0.081799 0.463081 0.082419 -0.105731
C50   C     C_3   0.080910 0.461069 0.915958 -0.121932
C51   C     C_3   0.581642 0.037260 0.082424 -0.105790
C52   C     C_3   0.580772 0.039216 0.915961 -0.121655
N1    N     N_3   0.001260 0.500000 0.143650 -0.177281
N2    N     N_3   0.001260 0.500000 0.856350 -0.171977
N3    N     N_3   0.501260 1.000000 0.143650 -0.177352
N4    N     N_3   0.501260 0.000000 0.856350 -0.172080
C53   C     C_3   0.908330 0.214103 0.691488 -0.822560
H57   H     H_    0.908991 0.207742 0.808802 0.269650
H58   H     H_    0.918867 0.147544 0.648417 0.224254
H59   H     H_    0.964178 0.255822 0.660582 0.257375
C54   C     C_3   0.927323 0.204984 0.350713 -0.885219
H60   H     H_    0.933127 0.178936 0.241113 0.276075
H61   H     H_    0.976719 0.257095 0.362094 0.239835
H62   H     H_    0.943300 0.150463 0.422811 0.232627
C55   C     C_3   0.907984 0.787447 0.689668 -0.848468
H63   H     H_    0.908392 0.796385 0.806568 0.265792
H64   H     H_    0.963619 0.744710 0.661474 0.253975
H65   H     H_    0.918888 0.852940 0.642727 0.227834
C56   C     C_3   0.925430 0.793636 0.345193 -0.886373
H66   H     H_    0.974618 0.741109 0.353768 0.240353
H67   H     H_    0.929740 0.820144 0.235709 0.274320
H68   H     H_    0.943204 0.847555 0.417336 0.233926
C57   C     C_3   0.407836 0.712584 0.689849 -0.848892
H69   H     H_    0.408209 0.703682 0.806757 0.265787
H70   H     H_    0.418690 0.647066 0.642968 0.227828
H71   H     H_    0.463514 0.755266 0.661648 0.253944
C58   C     C_3   0.425486 0.706372 0.345346 -0.886338
H72   H     H_    0.429792 0.679712 0.235973 0.274473
H73   H     H_    0.474619 0.758959 0.353650 0.240389
H74   H     H_    0.443346 0.652590 0.417677 0.233922
C59   C     C_3   0.408337 0.285870 0.691491 -0.822378
H75   H     H_    0.409012 0.292190 0.808813 0.269624
H76   H     H_    0.464182 0.244163 0.660533 0.257310
H77   H     H_    0.418875 0.352444 0.648471 0.224239
C60   C     C_3   0.427307 0.295035 0.350741 -0.885207
H78   H     H_    0.476716 0.242940 0.362170 0.239805
H79   H     H_    0.433122 0.321074 0.241134 0.276054
H80   H     H_    0.443251 0.349570 0.422832 0.232645
N5    N     N_R   0.192541 0.694660 0.772887 0.127567
O17   O     O_R   0.147601 0.765807 0.792790 -0.398125
O18   O     O_R   0.207160 0.644277 0.881231 -0.327553
N6    N     N_R   0.230769 0.649509 0.238571 0.135772
O19   O     O_R   0.184773 0.709067 0.175099 -0.369363
O20   O     O_R   0.268104 0.589897 0.161031 -0.310159
N7    N     N_R   0.195681 0.303829 0.774393 0.108659
O21   O     O_R   0.137160 0.242634 0.783285 -0.398415
O22   O     O_R   0.229453 0.332386 0.891686 -0.318928
N8    N     N_R   0.232326 0.347543 0.238264 0.122045
O23   O     O_R   0.192275 0.284157 0.173530 -0.373649
O24   O     O_R   0.267399 0.408902 0.161519 -0.316026
N9    N     N_R   0.695647 0.196205 0.774375 0.108650
O25   O     O_R   0.637245 0.257510 0.783278 -0.398475
O26   O     O_R   0.729341 0.167558 0.891669 -0.318956
N10   N     N_R   0.732386 0.152378 0.238287 0.122080
O27   O     O_R   0.692316 0.215736 0.173515 -0.373672
O28   O     O_R   0.767562 0.091070 0.161563 -0.316066
N11   N     N_R   0.692811 0.805662 0.772907 0.127584
O29   O     O_R   0.647883 0.734543 0.793175 -0.397960
O30   O     O_R   0.707495 0.856223 0.881007 -0.327490
N12   N     N_R   0.730545 0.850176 0.238381 0.135817
O31   O     O_R   0.684773 0.790390 0.175029 -0.369622
O32   O     O_R   0.767523 0.909972 0.160763 -0.309899

loop_
_geom_bond_atom_site_label_1
_geom_bond_atom_site_label_2
_geom_bond_distance
_ccdc_geom_bond_type
H24   C28   1.114055 S    
C9    C53   1.548032 S    
N7    O21   1.300382 A    
C2    C33   1.507857 S    
C59   H75   1.110966 S    
H21   C27   1.113643 S    
C35   C39   1.550989 S    
C13   C17   1.554514 S    
C21   C35   1.588883 S    
H18   C25   1.114055 S    
C17   C33   1.585919 S    
C43   C44   1.579460 S    
C48   H48   1.111156 S    
C28   C32   1.560043 S    
C15   C19   1.550690 S    
C19   N7    1.464068 S    
C60   H80   1.103953 S    
C45   C46   1.579490 S    
O7    Cu3   1.986873 S    
C9    C21   1.550695 S    
H22   C27   1.113988 S    
C54   H61   1.106312 S    
N5    O17   1.301328 A    
C11   C30   1.567677 S    
C18   N6    1.467556 S    
C6    C30   1.485803 S    
O10   C5    1.292869 A    
C19   H11   1.114593 S    
C46   N4    1.492207 S    
C16   C60   1.544198 S    
H53   C51   1.102279 S    
C23   N11   1.469103 S    
C57   H70   1.106609 S    
C47   H47   1.111330 S    
H25   C37   1.107888 S    
C46   H46   1.113072 S    
C50   N2    1.476373 S    
C21   H13   1.114602 S    
C10   H2    1.114497 S    
N8    O23   1.301809 A    
C12   C24   1.554030 S    
C24   H16   1.115159 S    
C56   H67   1.110917 S    
O5    Cu3   1.986913 S    
O11   C6    1.292354 A    
O6    Cu4   1.988594 S    
O16   C8    1.292869 A    
C43   H35   1.112814 S    
N9    O26   1.300366 A    
C14   H6    1.114932 S    
C53   H59   1.107573 S    
C14   C18   1.553981 S    
C58   H73   1.106243 S    
C15   H7    1.116049 S    
C21   N9    1.464075 S    
H56   C52   1.109207 S    
C18   C33   1.586286 S    
C45   H37   1.112778 S    
N6    O20   1.299870 A    
C10   C22   1.554259 S    
N12   O31   1.300842 A    
C17   H9    1.114973 S    
C59   H76   1.107594 S    
C10   C54   1.544201 S    
N12   O32   1.299818 A    
O1    Cu1   1.986913 S    
Cu3   N4    2.018197 S    
O9    Cu1   1.988889 S    
C24   N12   1.467546 S    
C47   H39   1.106930 S    
C41   N1    1.490011 S    
Cu1   N2    2.018197 S    
C52   N4    1.476364 S    
C60   H79   1.110911 S    
N10   O28   1.299840 A    
O14   Cu4   1.987198 S    
C20   N8    1.463354 S    
O12   Cu2   1.987236 S    
O7    C4    1.300216 A    
C54   H62   1.103934 S    
C48   H40   1.102958 S    
O14   C7    1.294580 A    
C22   H14   1.115197 S    
C19   C34   1.588888 S    
C36   C40   1.551057 S    
C24   C36   1.586247 S    
O1    C1    1.300221 A    
H29   C39   1.106298 S    
C34   C38   1.551000 S    
C57   H71   1.107808 S    
C41   H33   1.107039 S    
O6    C3    1.300569 A    
C33   C37   1.551135 S    
C12   C56   1.545004 S    
O16   Cu4   1.987236 S    
C26   C40   1.541113 S    
Cu1   Cu2   2.686600 S    
C42   H42   1.111143 S    
O13   Cu3   1.988889 S    
H30   C39   1.105015 S    
C11   C55   1.546818 S    
C22   N10   1.463368 S    
N11   O29   1.301335 A    
C15   C59   1.548061 S    
C9    C29   1.561211 S    
C1    C34   1.514197 S    
N11   O30   1.300044 A    
N7    O22   1.300397 A    
C26   C30   1.558965 S    
H55   C51   1.103219 S    
C47   C48   1.577898 S    
O13   C7    1.292349 A    
C25   C29   1.560046 S    
C3    C36   1.507951 S    
O8    C4    1.302031 A    
C18   H10   1.115149 S    
O9    C5    1.290952 A    
O2    Cu2   1.988594 S    
C41   C42   1.577933 S    
C42   N2    1.489820 S    
O10   Cu2   1.987198 S    
C58   H74   1.103770 S    
C13   C31   1.567764 S    
C45   N3    1.491929 S    
Cu2   N1    2.017993 S    
C7    C31   1.485812 S    
C22   C35   1.588624 S    
H32   C40   1.105835 S    
H51   C49   1.102146 S    
N6    O19   1.300814 A    
C5    C29   1.479533 S    
C59   H77   1.106678 S    
H17   C25   1.113719 S    
C44   H36   1.111947 S    
C53   H57   1.110943 S    
O8    Cu4   1.988564 S    
C20   C34   1.588607 S    
C55   H65   1.106594 S    
H26   C37   1.105814 S    
C23   H15   1.114966 S    
C14   C31   1.564952 S    
C45   H45   1.112905 S    
C51   C52   1.570600 S    
H31   C40   1.107904 S    
C56   H66   1.106377 S    
C56   H68   1.103908 S    
O15   Cu3   1.988917 S    
N10   O27   1.301795 A    
C44   N2    1.492208 S    
H28   C38   1.105002 S    
C14   C58   1.545011 S    
C20   H12   1.115194 S    
C25   C39   1.539815 S    
O12   C6    1.294572 A    
C4    C35   1.514155 S    
H20   C26   1.113987 S    
H23   C28   1.113721 S    
O4    C2    1.300554 A    
C11   C23   1.554513 S    
C23   C36   1.585929 S    
O4    Cu2   1.988564 S    
C15   C32   1.561189 S    
C48   N4    1.489778 S    
H54   C52   1.101132 S    
O5    C3    1.298487 A    
C12   C30   1.564906 S    
C54   H60   1.110895 S    
C46   H38   1.111937 S    
C47   N3    1.489959 S    
Cu4   N3    2.017993 S    
C13   H5    1.114904 S    
C10   C29   1.559552 S    
C55   H64   1.107798 S    
O15   C8    1.290950 A    
C8    C32   1.479537 S    
O3    C2    1.298452 A    
C13   C57   1.546813 S    
C55   H63   1.111156 S    
C27   C31   1.558965 S    
O2    C1    1.302043 A    
C49   C50   1.570603 S    
H27   C38   1.106278 S    
C60   H78   1.106334 S    
C16   C32   1.559539 S    
C44   H44   1.113081 S    
N8    O24   1.299831 A    
C11   H3    1.114897 S    
C16   C20   1.554253 S    
H52   C50   1.100979 S    
C12   H4    1.114908 S    
C28   C38   1.539819 S    
C51   N3    1.476137 S    
C27   C37   1.541127 S    
C16   H8    1.114492 S    
C49   N1    1.476198 S    
O3    Cu1   1.986873 S    
C42   H34   1.103106 S    
O11   Cu1   1.988917 S    
N5    O18   1.300052 A    
N9    O25   1.300357 A    
C9    H1    1.116045 S    
Cu3   Cu4   2.686600 S    
C43   N1    1.491929 S    
C53   H58   1.106655 S    
C43   H43   1.112917 S    
H50   C50   1.109174 S    
C58   H72   1.110806 S    
C57   H69   1.111148 S    
H49   C49   1.103342 S    
C17   N5    1.469175 S    
C41   H41   1.111349 S    
H19   C26   1.113645 S    
