data_mof_unit_14978.cif
_audit_creation_date              2012-12-11T14:23:04-0500
_audit_creation_method            fapswitch 2.2
_symmetry_space_group_name_H-M    P1
_symmetry_Int_Tables_number       1
_space_group_crystal_system       triclinic
_cell_length_a                    10.968723
_cell_length_b                    11.05774
_cell_length_c                    18.794824
_cell_angle_alpha                 89.683285
_cell_angle_beta                  90.270988
_cell_angle_gamma                 60.245349
_cell_volume                      1978.96000986

loop_
_atom_site_label
_atom_site_type_symbol
_atom_type_description
_atom_site_fract_x
_atom_site_fract_y
_atom_site_fract_z
_atom_type_partial_charge
C1    C     C_R   0.235549 0.644981 0.609246 0.534555
C2    C     C_3   0.721065 0.522967 0.800684 -0.269411
C3    C     C_3   0.693773 0.671256 0.814574 0.026507
C4    C     C_3   0.665852 0.641558 0.679072 0.073678
C5    C     C_3   0.785530 0.674677 0.690267 -0.229092
C6    C     C_3   0.700820 0.506910 0.721290 -0.273211
C7    C     C_R   0.702059 0.122771 0.816803 0.000678
C8    C     C_R   0.799172 0.150622 0.781915 -0.028675
C9    C     C_R   0.801677 0.150895 0.706368 0.011349
C10   C     C_R   0.608113 0.104395 0.703090 -0.142445
C11   C     C_R   0.614584 0.091288 0.775559 -0.143775
C12   C     C_R   0.651018 0.616878 0.603080 0.571134
C13   C     C_R   0.894212 0.176779 0.819849 -0.111241
C14   C     C_R   0.006272 0.178107 0.785755 0.259997
C15   C     C_R   0.011842 0.173388 0.711611 -0.137163
C16   C     C_R   0.912774 0.157209 0.672208 -0.165974
C17   C     C_R   0.690818 0.147209 0.668230 -0.001386
C18   C     C_R   0.165892 0.683570 0.831775 -0.007282
C19   C     C_R   0.217545 0.552333 0.801261 0.011642
C20   C     C_R   0.211189 0.541468 0.726303 0.016318
C21   C     C_R   0.138279 0.787531 0.714977 -0.174303
C22   C     C_R   0.126903 0.799967 0.787863 -0.165124
C23   C     C_R   0.633057 0.222814 0.600944 0.539437
C24   C     C_R   0.272082 0.432151 0.844350 -0.089441
C25   C     C_R   0.300745 0.306580 0.815479 -0.061577
C26   C     C_R   0.274701 0.298876 0.743892 -0.092302
C27   C     C_R   0.231388 0.414010 0.699105 -0.098113
C28   C     C_R   0.183276 0.658984 0.682707 -0.010147
C29   C     C_R   0.647575 0.662857 0.164241 -0.002933
C30   C     C_R   0.700773 0.524717 0.188422 0.020350
C31   C     C_R   0.710421 0.497744 0.262421 0.014260
C32   C     C_R   0.575777 0.747816 0.283813 -0.138262
C33   C     C_R   0.591512 0.772138 0.213007 -0.123339
C34   C     C_R   0.222041 0.652069 0.400987 0.543307
C35   C     C_R   0.762646 0.411759 0.140697 -0.090829
C36   C     C_R   0.865680 0.281921 0.164605 -0.112979
C37   C     C_R   0.892703 0.258813 0.236853 -0.139867
C38   C     C_R   0.807399 0.360073 0.285278 -0.117830
C39   C     C_R   0.632886 0.611604 0.309696 0.014520
C40   C     C_R   0.662006 0.144412 0.178096 -0.033596
C41   C     C_R   0.527165 0.222894 0.205415 0.008560
C42   C     C_R   0.510454 0.212034 0.278267 -0.006094
C43   C     C_R   0.764144 0.083783 0.297574 0.225599
C44   C     C_R   0.778268 0.067493 0.224273 -0.111468
C45   C     C_R   0.617761 0.590056 0.385736 0.560337
C46   C     C_R   0.407681 0.293283 0.160732 -0.069945
C47   C     C_R   0.278729 0.314766 0.183719 -0.076176
C48   C     C_R   0.266431 0.276928 0.252546 -0.117083
C49   C     C_R   0.378798 0.230947 0.300611 -0.096081
C50   C     C_R   0.630137 0.170492 0.323941 0.003397
C51   C     C_R   0.149598 0.666052 0.183723 -0.046628
C52   C     C_R   0.221436 0.730468 0.212380 -0.040316
C53   C     C_R   0.200472 0.765337 0.283832 0.005774
C54   C     C_R   0.089120 0.623781 0.302611 0.239203
C55   C     C_R   0.078753 0.618534 0.228892 -0.116529
C56   C     C_R   0.610957 0.233768 0.393796 0.548252
C57   C     C_R   0.284332 0.788485 0.168465 -0.064755
C58   C     C_R   0.281243 0.912347 0.188576 0.287823
C59   C     C_R   0.245272 0.956969 0.258195 -0.123445
C60   C     C_R   0.206153 0.885289 0.305349 -0.107506
C61   C     C_R   0.162462 0.686142 0.329534 0.051987
C62   C     C_R   0.705689 0.093652 0.893478 0.533649
C63   C     C_R   0.719887 0.686471 0.889882 0.531914
C64   C     C_R   0.114599 0.709843 0.904934 0.529452
C65   C     C_R   0.678162 0.102763 0.104660 0.538168
C66   C     C_R   0.694421 0.688589 0.096134 0.529387
C67   C     C_3   0.541271 0.774726 0.790365 -0.192527
C68   C     C_R   0.093884 0.707745 0.112372 0.532058
C69   C     C_3   0.526131 0.761765 0.709456 0.177059
C70   C     C_3   0.798653 0.696990 0.769922 -0.216015
Cr1   Cr    Cr6+3 0.392940 0.397950 0.502230 0.979456
Cr2   Cr    Cr6+3 0.398400 0.708500 0.501260 0.988744
Cr3   Cr    Cr6+3 0.708640 0.393530 0.496460 0.977598
Cr4   Cr    Cr6+3 0.937880 0.938320 0.007620 0.964024
Cr5   Cr    Cr6+3 0.625560 0.937220 0.994510 0.994605
Cr6   Cr    Cr6+3 0.938080 0.625010 0.001190 1.006813
H1    H     H_    0.511078 0.883115 0.803724 0.149463
H2    H     H_    0.799420 0.420721 0.700875 0.172124
H3    H     H_    0.908756 0.624904 0.787419 0.156515
H4    H     H_    0.886523 0.587063 0.670942 0.114611
H5    H     H_    0.529075 0.092559 0.674709 0.187245
H6    H     H_    0.882063 0.199761 0.875859 0.138793
H7    H     H_    0.547115 0.058065 0.799253 0.142192
H8    H     H_    0.089921 0.187080 0.683807 0.099874
H9    H     H_    0.926817 0.146672 0.615304 0.141542
H10   H     H_    0.114232 0.879085 0.683638 0.139003
H11   H     H_    0.467044 0.751061 0.819248 0.066504
H12   H     H_    0.292151 0.434688 0.900625 0.114423
H13   H     H_    0.083115 0.902669 0.809833 0.155123
H14   H     H_    0.340654 0.215822 0.849348 0.136269
H15   H     H_    0.290290 0.202269 0.723330 0.121386
H16   H     H_    0.208023 0.402211 0.644660 0.136146
H17   H     H_    0.526877 0.835906 0.319305 0.136148
H18   H     H_    0.741857 0.426405 0.084005 0.120718
H19   H     H_    0.563216 0.877086 0.196840 0.189871
H20   H     H_    0.924359 0.199277 0.127258 0.129162
H21   H     H_    0.973387 0.158231 0.255807 0.151196
H22   H     H_    0.442850 0.732390 0.701427 0.119475
H23   H     H_    0.829892 0.327728 0.339707 0.181603
H24   H     H_    0.416049 0.319546 0.106060 0.114748
H25   H     H_    0.881244 0.995957 0.203481 0.166317
H26   H     H_    0.189988 0.355348 0.147384 0.125869
H27   H     H_    0.169520 0.282530 0.268194 0.089044
H28   H     H_    0.363733 0.198811 0.352605 0.129453
H29   H     H_    0.318530 0.747458 0.115653 0.106749
H30   H     H_    0.005728 0.588817 0.207191 0.154335
H31   H     H_    0.246052 0.048770 0.276189 0.111346
H32   H     H_    0.168389 0.934023 0.356267 0.171742
H33   H     H_    0.778784 0.804612 0.778391 0.136827
H34   H     H_    0.764709 0.769403 0.659509 0.158846
H35   H     H_    0.830373 0.446615 0.816613 0.186395
H36   H     H_    0.649078 0.500844 0.832680 0.110662
H37   H     H_    0.616688 0.479463 0.713768 0.120906
O1    O     O_R   0.507340 0.255690 0.581430 -0.523957
O2    O     O_R   0.524510 0.695820 0.424050 -0.499138
O3    O     O_R   0.736370 0.504260 0.414810 -0.547256
O4    O     O_R   0.691220 0.277270 0.422180 -0.509754
O5    O     O_3   0.499990 0.499990 0.499980 -0.264389
O6    O     O_R   0.089570 0.825450 0.930590 -0.549882
O7    O     O_R   0.818700 0.054260 0.929860 -0.517126
O8    O     O_R   0.606310 0.077010 0.915520 -0.544541
O9    O     O_R   0.646730 0.806540 0.917560 -0.525571
O10   O     O_R   0.837290 0.593240 0.915240 -0.514069
O11   O     O_R   0.065320 0.635310 0.931580 -0.498633
O12   O     O_R   0.280360 0.527380 0.578910 -0.510342
O13   O     O_R   0.068470 0.828620 0.091850 -0.536250
O14   O     O_R   0.799150 0.057200 0.079350 -0.522804
O15   O     O_R   0.585220 0.080180 0.076770 -0.502391
O16   O     O_R   0.627170 0.809480 0.067050 -0.489086
O17   O     O_R   0.816200 0.596410 0.076500 -0.527532
O18   O     O_R   0.045770 0.638240 0.081070 -0.512667
O19   O     O_3   0.833840 0.833520 0.001110 -0.242177
O20   O     O_R   0.260600 0.739610 0.584580 -0.554123
O21   O     O_R   0.532370 0.695050 0.573830 -0.480161
O22   O     O_R   0.744850 0.503430 0.576380 -0.539361
O23   O     O_R   0.699080 0.276500 0.571950 -0.515235
O24   O     O_R   0.498860 0.256520 0.419860 -0.550161
O25   O     O_R   0.272490 0.528150 0.429140 -0.502579
O26   O     O_R   0.252110 0.740440 0.423010 -0.553020
O27   O     O_3   0.104051 0.195550 0.824271 -0.581337
C71   C     C_3   0.180690 0.078621 0.869486 -0.140652
H38   H     H_    0.244675 0.983337 0.837841 0.109853
H39   H     H_    0.112543 0.061929 0.907130 0.127731
H40   H     H_    0.253742 0.095818 0.903067 0.108802
O28   O     O_3   0.882425 0.017983 0.341115 -0.596056
C72   C     C_3   0.862652 0.939186 0.394891 -0.090415
H41   H     H_    0.812332 0.880184 0.374124 0.163787
H42   H     H_    0.802747 0.004413 0.440356 0.120268
H43   H     H_    0.965513 0.863994 0.417963 0.156380
O29   O     O_3   0.988754 0.620329 0.345592 -0.591035
C73   C     C_3   0.030988 0.483849 0.368131 -0.108544
H44   H     H_    0.982304 0.488915 0.420368 0.166461
H45   H     H_    0.145894 0.417873 0.376221 0.121841
H46   H     H_    0.990842 0.435944 0.330140 0.130259
O30   O     O_3   0.495399 0.887776 0.674453 -0.589844
C74   C     C_3   0.351676 0.966009 0.657574 -0.155831
H47   H     H_    0.288534 0.987192 0.706549 0.115609
H48   H     H_    0.320561 0.912709 0.618120 0.180088
H49   H     H_    0.330537 0.064781 0.631626 0.109364
O31   O     O_3   0.319220 0.988882 0.144061 -0.571543
C75   C     C_3   0.266406 0.999891 0.074275 -0.094302
H50   H     H_    0.155553 0.022464 0.073615 0.113047
H51   H     H_    0.334716 0.904627 0.043500 0.117692
H52   H     H_    0.268209 0.088211 0.047005 0.121236

loop_
_geom_bond_atom_site_label_1
_geom_bond_atom_site_label_2
_ccdc_geom_bond_type
C57   H29   S    
C8    C13   A    
Cr4   O19   S    
Cr5   O9    S    
C56   O4    A    
C35   C36   A    
C67   H1    S    
C75   H52   S    
C49   H28   S    
C37   H21   S    
C75   H50   S    
C57   C58   A    
C7    C8    A    
Cr1   O24   S    
C52   C53   A    
C7    C11   A    
Cr4   O6    S    
Cr2   O2    S    
C2    H36   S    
C26   C27   A    
C17   C23   S    
Cr3   O3    S    
C23   O23   A    
C65   O14   A    
C36   C37   A    
C9    C16   A    
C1    O12   A    
C18   C19   A    
C71   H39   S    
C30   C31   A    
Cr6   O18   S    
C6    H2    S    
C5    H34   S    
C10   C17   A    
C15   C16   A    
C29   C33   A    
C34   O26   A    
Cr5   O15   S    
C41   C42   A    
C32   C39   A    
C36   H20   S    
C54   C55   A    
C53   C61   A    
Cr2   O26   S    
Cr3   O22   S    
C8    C9    A    
C12   O22   A    
C1    C28   S    
C73   H44   S    
C7    C62   S    
C4    C12   S    
C62   O7    A    
C60   H32   S    
C39   C45   S    
C66   O16   A    
C69   H22   S    
C32   H17   S    
C59   C60   A    
C47   H26   S    
C12   O21   A    
C21   C22   A    
C2    C6    S    
Cr6   O17   S    
Cr4   O14   S    
C1    O20   A    
C33   H19   S    
C4    C69   S    
C75   H51   S    
C53   C60   A    
O28   C72   S    
Cr1   O25   S    
C72   H42   S    
C2    H35   S    
Cr3   O4    S    
C55   H30   S    
C51   C52   A    
Cr6   O11   S    
C65   O15   A    
C3    C70   S    
O27   C71   S    
C4    C6    S    
C10   C11   A    
C71   H40   S    
C38   H23   S    
C20   C28   A    
C11   H7    S    
C26   H15   S    
C64   O11   A    
C48   H27   S    
C13   H6    S    
C34   O25   A    
C34   C61   S    
C59   H31   S    
Cr1   O1    S    
C67   C69   S    
C74   H47   S    
C37   C38   A    
C68   O18   A    
C43   C44   A    
C6    H37   S    
C29   C30   A    
C43   O28   S    
C70   H33   S    
C72   H43   S    
C24   H12   S    
C45   O2    A    
Cr2   O21   S    
C47   C48   A    
Cr3   O23   S    
C41   C46   A    
C25   H14   S    
C27   H16   S    
C69   O30   S    
C24   C25   A    
C5    H4    S    
C64   O6    A    
C42   C50   A    
C30   C35   A    
C9    C17   A    
C40   C41   A    
C54   C61   A    
C21   C28   A    
C14   O27   S    
C40   C65   S    
C16   H9    S    
C58   C59   A    
C68   O13   A    
C63   O9    A    
Cr5   O19   S    
C72   H41   S    
C35   H18   S    
C46   H24   S    
C21   H10   S    
C48   C49   A    
Cr3   O5    S    
C54   O29   S    
Cr1   O5    S    
C70   H3    S    
Cr5   O8    S    
Cr6   O10   S    
C74   H49   S    
C3    C67   S    
C4    C5    S    
C5    C70   S    
C63   O10   A    
C44   H25   S    
C43   C50   A    
C73   H46   S    
C15   H8    S    
C20   C27   A    
C3    C63   S    
Cr4   O7    S    
C10   H5    S    
C67   H11   S    
O29   C73   S    
C31   C38   A    
C32   C33   A    
C19   C20   A    
C18   C22   A    
C19   C24   A    
C25   C26   A    
C58   O31   S    
C71   H38   S    
O31   C75   S    
C23   O1    A    
C56   O24   A    
Cr6   O19   S    
C45   O3    A    
C18   C64   S    
Cr2   O20   S    
Cr4   O13   S    
C74   H48   S    
C22   H13   S    
C31   C39   A    
C2    C3    S    
C51   C55   A    
C51   C68   S    
C73   H45   S    
C50   C56   S    
C46   C47   A    
C52   C57   A    
C42   C49   A    
C29   C66   S    
C40   C44   A    
Cr2   O5    S    
O30   C74   S    
C14   C15   A    
Cr1   O12   S    
C13   C14   A    
C62   O8    A    
Cr5   O16   S    
C66   O17   A    
