data_mof_unit_15435.cif
_audit_creation_date              2012-12-10T17:28:31-0500
_audit_creation_method            fapswitch 2.2
_symmetry_space_group_name_H-M    P1
_symmetry_Int_Tables_number       1
_space_group_crystal_system       triclinic
_cell_length_a                    10.589261
_cell_length_b                    12.022021
_cell_length_c                    12.799172
_cell_angle_alpha                 93.468002
_cell_angle_beta                  90.391432
_cell_angle_gamma                 80.42187
_cell_volume                      1603.7246517

loop_
_atom_site_label
_atom_site_type_symbol
_atom_type_description
_atom_site_fract_x
_atom_site_fract_y
_atom_site_fract_z
_atom_type_partial_charge
Br1   Br    Br    0.721537 0.270125 0.214093 -0.420848
Br2   Br    Br    0.278288 0.729697 0.785826 -0.394529
C1    C     C_R   0.495097 0.522769 0.700414 0.905967
C2    C     C_R   0.436756 0.541768 0.131668 -0.246214
C3    C     C_R   0.547019 0.458657 0.974846 0.105264
C4    C     C_R   0.453361 0.541637 0.025180 0.110124
C5    C     C_R   0.484117 0.942578 0.363407 -0.235509
C6    C     C_R   0.517291 0.057142 0.636555 -0.251236
C7    C     C_R   0.477559 0.829406 0.381923 0.079864
C8    C     C_R   0.524502 0.170213 0.618028 0.096191
C9    C     C_R   0.487844 0.865665 0.564632 0.012662
C10   C     C_R   0.511701 0.134447 0.435396 0.008134
C11   C     C_R   0.501678 0.980260 0.551171 0.002988
C12   C     C_R   0.504923 0.477239 0.299584 0.900181
C13   C     C_R   0.498611 0.019699 0.448842 0.006730
C14   C     C_R   0.742342 0.492971 0.499167 0.887833
C15   C     C_R   0.257629 0.507045 0.501426 0.853909
C16   C     C_R   0.930230 0.329163 0.623052 -0.149115
C17   C     C_R   0.067833 0.672824 0.380798 -0.161090
C18   C     C_R   0.996265 0.304049 0.716541 -0.205573
C19   C     C_R   0.999859 0.700635 0.288673 -0.268649
C20   C     C_R   0.100506 0.356023 0.746527 -0.029271
C21   C     C_R   0.897651 0.646785 0.256812 0.002203
C22   C     C_R   0.141583 0.430175 0.679274 -0.148714
C23   C     C_R   0.514101 0.461929 0.188410 -0.093774
C24   C     C_R   0.858755 0.569648 0.321974 -0.160372
C25   C     C_R   0.073365 0.459505 0.586915 0.086963
C26   C     C_R   0.926909 0.539904 0.414224 0.070774
C27   C     C_R   0.958630 0.420084 0.565105 -0.036883
C28   C     C_R   0.041006 0.579924 0.436607 0.037327
C29   C     C_R   0.120453 0.526112 0.514874 -0.138342
C30   C     C_R   0.879521 0.473709 0.486413 -0.194649
C31   C     C_2   0.825073 0.677847 0.160284 0.967448
C32   C     C_2   0.172091 0.326564 0.843858 0.967437
C33   C     C_2   0.476315 0.975862 0.253420 0.964486
C34   C     C_R   0.486015 0.538147 0.811582 -0.100240
C35   C     C_2   0.525872 0.023650 0.746479 0.978208
C36   C     C_2   0.857496 0.241627 0.578754 1.015694
C37   C     C_2   0.135954 0.761161 0.429830 1.031243
C38   C     C_R   0.378415 0.623796 0.968560 -0.161917
C39   C     C_R   0.621884 0.376440 0.031454 -0.154997
C40   C     C_R   0.393629 0.622295 0.861031 0.271270
C41   C     C_R   0.606493 0.377794 0.138955 0.270839
C42   C     C_R   0.563535 0.458450 0.868341 -0.240904
H1    H     H_    0.972220 0.237531 0.762389 0.215489
H2    H     H_    0.488698 0.833776 0.641721 0.167110
H3    H     H_    0.532734 0.227863 0.684601 0.169717
H4    H     H_    0.470783 0.771529 0.315265 0.156000
H5    H     H_    0.675174 0.658789 0.066843 0.367808
H6    H     H_    0.323949 0.343510 0.935708 0.367168
H7    H     H_    0.324079 0.099674 0.280898 0.311458
H8    H     H_    0.676647 0.898639 0.717917 0.316237
H9    H     H_    0.922937 0.245396 0.430654 0.324339
H10   H     H_    0.219204 0.792575 0.295017 0.285541
H11   H     H_    0.019558 0.770700 0.245651 0.198024
H12   H     H_    0.225942 0.466828 0.699507 0.174445
H13   H     H_    0.775266 0.532061 0.300904 0.173631
H14   H     H_    0.365873 0.605966 0.171219 0.146687
H15   H     H_    0.634413 0.394249 0.828785 0.168321
H16   H     H_    0.306416 0.687232 0.007377 0.180119
H17   H     H_    0.693859 0.312985 0.992636 0.187490
H18   H     H_    0.510244 0.166481 0.358341 0.170066
N1    N     N_R   0.523130 0.207800 0.519340 -0.094294
N2    N     N_R   0.476870 0.792200 0.480660 -0.091942
O1    O     O_R   0.506170 0.421700 0.658830 -0.639857
O2    O     O_R   0.716289 0.630498 0.134123 -0.815315
O3    O     O_2   0.133879 0.263643 0.903611 -0.565741
O4    O     O_R   0.283761 0.370450 0.867660 -0.813007
O5    O     O_2   0.547478 0.921072 0.187460 -0.517725
O6    O     O_R   0.385725 0.066218 0.222636 -0.721727
O7    O     O_2   0.455916 0.078918 0.812965 -0.519513
O8    O     O_R   0.615835 0.932511 0.776597 -0.717450
O9    O     O_2   0.797149 0.193264 0.637223 -0.612720
O10   O     O_R   0.861590 0.208600 0.471891 -0.713180
O11   O     O_2   0.127404 0.783247 0.524199 -0.516010
O12   O     O_R   0.493830 0.578300 0.341170 -0.647139
O13   O     O_R   0.204630 0.824177 0.369907 -0.789251
O14   O     O_R   0.491330 0.609310 0.646410 -0.591696
O15   O     O_R   0.508670 0.390690 0.353590 -0.589993
O16   O     O_R   0.690650 0.406190 0.506220 -0.600387
O17   O     O_R   0.309350 0.593810 0.493780 -0.599107
O18   O     O_R   0.675800 0.593810 0.493800 -0.605401
O19   O     O_R   0.324200 0.406190 0.506200 -0.614011
O20   O     O_2   0.860031 0.744975 0.103186 -0.560763
Zn1   Zn    Zn3+2 0.509910 0.374730 0.508290 1.010109
Zn2   Zn    Zn3+2 0.490090 0.625270 0.491710 1.005556

loop_
_geom_bond_atom_site_label_1
_geom_bond_atom_site_label_2
_ccdc_geom_bond_type
C6    C11   A    
C38   H16   S    
C25   C27   A    
C7    N2    A    
C34   C40   A    
C8    N1    A    
C22   C25   A    
C39   H17   S    
C23   C41   A    
C2    C23   A    
C17   C28   A    
C37   O13   S    
C17   C19   A    
C27   C30   A    
C3    C4    A    
C42   H15   S    
C21   C24   A    
Br1   C41   S    
H9    O10   S    
C33   O6    S    
C21   C31   S    
H7    O6    S    
C37   O11   D    
C16   C18   A    
O17   Zn2   S    
H10   O13   S    
O14   Zn2   S    
C38   C40   A    
N1    Zn1   S    
C39   C41   A    
C1    O1    A    
N2    Zn2   S    
C24   H13   S    
C31   O2    S    
C19   C21   A    
C20   C32   S    
H5    O2    S    
C25   C29   A    
C26   C30   A    
C4    C38   A    
C2    C4    A    
C9    N2    A    
C32   O4    S    
C19   H11   S    
C10   N1    A    
O18   Zn2   S    
C14   O16   A    
C12   O12   A    
O16   Zn1   S    
H8    O8    S    
C10   H18   S    
C10   C13   A    
C14   O18   A    
C16   C27   A    
C12   O15   A    
C17   C37   S    
O19   Zn1   S    
C3    C42   A    
C18   C20   A    
C35   O7    D    
C11   C13   A    
C15   C29   S    
C20   C22   A    
C34   C42   A    
C14   C30   S    
C6    C35   S    
O12   Zn2   S    
O15   Zn1   S    
C36   O10   S    
C5    C7    A    
C3    C39   A    
C5    C33   S    
C18   H1    S    
C32   O3    D    
O1    Zn1   S    
C22   H12   S    
C24   C26   A    
C26   C28   A    
C16   C36   S    
C9    C11   A    
C28   C29   A    
C1    C34   S    
Br2   C40   S    
C5    C13   A    
C15   O17   A    
C12   C23   S    
C31   O20   D    
C33   O5    D    
C7    H4    S    
C6    C8    A    
C35   O8    S    
C2    H14   S    
C8    H3    S    
C9    H2    S    
C15   O19   A    
C1    O14   A    
H6    O4    S    
C36   O9    D    
