data_mof_unit_53478.cif
_audit_creation_date              2012-12-10T18:40:57-0500
_audit_creation_method            fapswitch 2.2
_symmetry_space_group_name_H-M    P1
_symmetry_Int_Tables_number       1
_space_group_crystal_system       triclinic
_cell_length_a                    19.302819
_cell_length_b                    11.543845
_cell_length_c                    10.763976
_cell_angle_alpha                 89.980983
_cell_angle_beta                  89.988237
_cell_angle_gamma                 90.003407
_cell_volume                      2398.52313664

loop_
_atom_site_label
_atom_site_type_symbol
_atom_type_description
_atom_site_fract_x
_atom_site_fract_y
_atom_site_fract_z
_atom_type_partial_charge
C1    C     C_R   0.500003 0.281175 0.500016 0.885600
C2    C     C_1   0.500015 0.940855 0.499980 -0.007120
C3    C     C_1   0.499998 0.499999 0.069722 0.040083
C4    C     C_1   0.499998 0.500000 0.930277 0.040157
C5    C     C_R   0.252332 0.480562 0.611780 0.339902
C6    C     C_R   0.747564 0.473322 0.389736 0.339173
C7    C     C_R   0.747586 0.525053 0.610416 0.339357
C8    C     C_R   0.252193 0.517843 0.388484 0.340037
C9    C     C_R   0.180896 0.497819 0.613553 0.350465
C10   C     C_R   0.819364 0.484443 0.387700 0.364427
C11   C     C_R   0.819300 0.512682 0.612695 0.364458
C12   C     C_R   0.500003 0.718825 0.499984 0.885962
C13   C     C_R   0.180835 0.499603 0.386876 0.350399
C14   C     C_R   0.144589 0.498463 0.500258 -0.309021
C15   C     C_R   0.855329 0.498291 0.500261 -0.314885
C16   C     C_R   0.289159 0.499487 0.500095 -0.445279
C17   C     C_R   0.710849 0.499514 0.500015 -0.443676
C18   C     C_3   0.300317 0.331647 0.723005 0.154065
C19   C     C_3   0.237079 0.260918 0.764146 -0.352880
C20   C     C_3   0.255647 0.133558 0.782750 -0.987942
C21   C     C_3   0.696988 0.326846 0.278170 0.153670
C22   C     C_3   0.756560 0.255658 0.223141 -0.339480
C23   C     C_R   0.930286 0.498142 0.500388 0.373289
C24   C     C_3   0.734626 0.130721 0.198638 -0.991232
C25   C     C_3   0.697730 0.672328 0.721827 0.153155
C26   C     C_3   0.757703 0.742610 0.776777 -0.339056
C27   C     C_3   0.736474 0.867883 0.801298 -0.991532
C28   C     C_3   0.299505 0.667343 0.277184 0.153736
C29   C     C_3   0.235890 0.737412 0.236672 -0.352793
C30   C     C_3   0.253905 0.865006 0.218120 -0.988083
C31   C     C_3   0.139242 0.616996 0.766191 0.125792
C32   C     C_3   0.200596 0.655490 0.846595 -0.326166
C33   C     C_3   0.189709 0.778218 0.895605 -1.000102
C34   C     C_R   0.069441 0.498260 0.500357 0.427614
C35   C     C_3   0.875070 0.583947 0.232323 0.113590
C36   C     C_3   0.816375 0.644807 0.161783 -0.325286
C37   C     C_3   0.840551 0.760384 0.108227 -0.988986
C38   C     C_3   0.874304 0.412255 0.768129 0.113372
C39   C     C_3   0.815157 0.352023 0.838136 -0.325230
C40   C     C_3   0.838636 0.235983 0.891509 -0.989389
C41   C     C_3   0.139486 0.380047 0.234355 0.125535
C42   C     C_3   0.201034 0.342010 0.154136 -0.326151
C43   C     C_3   0.190536 0.219192 0.105111 -1.000030
C44   C     C_R   0.364984 0.499916 0.500019 0.948368
C45   C     C_R   0.635020 0.499943 0.499992 0.953214
C46   C     C_1   0.500011 0.161095 0.500039 -0.196384
C47   C     C_1   0.500011 0.838906 0.499960 -0.196267
C48   C     C_1   0.500015 0.059146 0.500019 -0.007148
H1    H     H_    0.342751 0.317698 0.791118 0.167883
H2    H     H_    0.773696 0.295942 0.134631 0.256833
H3    H     H_    0.800978 0.255181 0.288717 0.237501
H4    H     H_    0.717356 0.088880 0.286291 0.269941
H5    H     H_    0.779209 0.081209 0.160780 0.275600
H6    H     H_    0.691774 0.128120 0.129827 0.269521
H7    H     H_    0.651489 0.683412 0.782172 0.170945
H8    H     H_    0.683130 0.707280 0.628696 0.096885
H9    H     H_    0.774626 0.702067 0.865269 0.256928
H10   H     H_    0.802114 0.742392 0.711149 0.237310
H11   H     H_    0.719414 0.909981 0.713669 0.269949
H12   H     H_    0.319946 0.299174 0.631933 0.104764
H13   H     H_    0.781342 0.916713 0.839075 0.275596
H14   H     H_    0.693659 0.871154 0.870183 0.269593
H15   H     H_    0.341718 0.681843 0.208729 0.167786
H16   H     H_    0.319223 0.699935 0.368129 0.104894
H17   H     H_    0.215298 0.701140 0.148639 0.258081
H18   H     H_    0.194785 0.731123 0.308581 0.226092
H19   H     H_    0.272468 0.903352 0.306712 0.268261
H20   H     H_    0.207108 0.912977 0.187236 0.276223
H21   H     H_    0.294789 0.874707 0.146243 0.267490
H22   H     H_    0.091303 0.622304 0.823066 0.172481
H23   H     H_    0.216551 0.297070 0.852299 0.257985
H24   H     H_    0.132421 0.679364 0.687801 0.126146
H25   H     H_    0.207075 0.594831 0.925966 0.242771
H26   H     H_    0.248789 0.655226 0.790444 0.249314
H27   H     H_    0.181408 0.839561 0.817459 0.268675
H28   H     H_    0.236423 0.806317 0.947491 0.281581
H29   H     H_    0.144245 0.781089 0.958813 0.273773
H30   H     H_    0.919084 0.570589 0.167362 0.170598
H31   H     H_    0.894835 0.641018 0.308007 0.124072
H32   H     H_    0.797903 0.588239 0.085070 0.244291
H33   H     H_    0.772374 0.661609 0.225778 0.233961
H34   H     H_    0.195785 0.266650 0.692565 0.226303
H35   H     H_    0.861000 0.817005 0.183163 0.268296
H36   H     H_    0.796194 0.805251 0.063622 0.277592
H37   H     H_    0.881592 0.746111 0.037507 0.275122
H38   H     H_    0.918219 0.424944 0.833431 0.170469
H39   H     H_    0.893995 0.355083 0.692460 0.124162
H40   H     H_    0.796805 0.408658 0.914894 0.244166
H41   H     H_    0.771206 0.335984 0.773835 0.233801
H42   H     H_    0.858885 0.179214 0.816514 0.268362
H43   H     H_    0.793976 0.191692 0.935847 0.277809
H44   H     H_    0.879652 0.249499 0.962417 0.275094
H45   H     H_    0.274217 0.095326 0.694094 0.268315
H46   H     H_    0.091623 0.374351 0.177348 0.172425
H47   H     H_    0.132740 0.317669 0.312762 0.126245
H48   H     H_    0.207436 0.402707 0.074772 0.242780
H49   H     H_    0.249165 0.342677 0.210426 0.248966
H50   H     H_    0.182301 0.157800 0.183242 0.268776
H51   H     H_    0.237388 0.191442 0.053375 0.281634
H52   H     H_    0.145161 0.215966 0.041753 0.273794
H53   H     H_    0.209102 0.085075 0.813991 0.276268
H54   H     H_    0.296691 0.124428 0.854390 0.267447
H55   H     H_    0.650689 0.316519 0.217845 0.171024
H56   H     H_    0.682188 0.292062 0.371285 0.096911
N1    N     N_1   0.500000 0.500000 0.180630 -0.078412
N2    N     N_1   0.500000 0.500000 0.819370 -0.078365
N3    N     N_R   0.034158 0.417031 0.435547 -0.190572
N4    N     N_R   0.965449 0.579342 0.565455 -0.155590
N5    N     N_R   0.965492 0.416993 0.435291 -0.155478
N6    N     N_R   0.034106 0.579416 0.565171 -0.190722
O1    O     O_R   0.500000 0.334450 0.602530 -0.618115
O2    O     O_3   0.713791 0.446339 0.279960 -0.603920
O3    O     O_3   0.713854 0.552578 0.720101 -0.603664
O4    O     O_3   0.285098 0.546922 0.278427 -0.609524
O5    O     O_3   0.146445 0.500361 0.726436 -0.621297
O6    O     O_3   0.853986 0.473398 0.275422 -0.619399
O7    O     O_3   0.853835 0.523141 0.725100 -0.619299
O8    O     O_3   0.146332 0.496744 0.274083 -0.621320
O9    O     O_R   0.500000 0.665550 0.397470 -0.617943
O10   O     O_R   0.500000 0.665550 0.602530 -0.619288
O11   O     O_R   0.500000 0.334450 0.397470 -0.619451
O12   O     O_R   0.398140 0.500000 0.602560 -0.583571
O13   O     O_R   0.601860 0.500000 0.397440 -0.583149
O14   O     O_R   0.601860 0.500000 0.602560 -0.582949
O15   O     O_R   0.398140 0.500000 0.397440 -0.583591
O16   O     O_3   0.285423 0.451898 0.721755 -0.609676
Zn1   Zn    Zn3+2 0.500000 0.500000 0.636920 0.982288
Zn2   Zn    Zn3+2 0.500000 0.500000 0.363080 0.982224

loop_
_geom_bond_atom_site_label_1
_geom_bond_atom_site_label_2
_ccdc_geom_bond_type
C24   H4    S    
C20   H45   S    
C8    C13   A    
C41   C42   S    
C19   H23   S    
C35   C36   S    
C25   H8    S    
C21   O2    S    
C13   O8    S    
O10   Zn1   S    
C45   O13   A    
C7    C11   A    
C26   C27   S    
C38   H38   S    
C42   H48   S    
C34   N3    A    
C37   H37   S    
C36   C37   S    
C17   C45   S    
C10   C15   A    
C32   H26   S    
C38   C39   S    
C1    C46   S    
C20   H54   S    
C24   H6    S    
C18   C19   S    
C44   O12   A    
O12   Zn1   S    
C5    C16   A    
C27   H13   S    
C12   O10   A    
C38   O7    S    
C11   C15   A    
C33   H27   S    
C31   H22   S    
C31   C32   S    
C7    C17   A    
C5    O16   S    
O15   Zn2   S    
C43   H50   S    
C37   H36   S    
C41   O8    S    
C19   H34   S    
C16   C44   S    
C30   H19   S    
C8    O4    S    
C22   H2    S    
O9    Zn2   S    
C15   C23   S    
C8    C16   A    
C13   C14   A    
N3    N5    A    
C39   H40   S    
C12   C47   S    
C31   O5    S    
C45   O14   A    
C23   N5    A    
C46   C48   T    
C44   O15   A    
C9    O5    S    
C43   H52   S    
O11   Zn2   S    
C36   H32   S    
C42   H49   S    
C32   H25   S    
C20   H53   S    
C2    C48   S    
C25   C26   S    
C4    N2    T    
N2    Zn1   S    
C3    N1    T    
C9    C14   A    
C14   C34   S    
C29   C30   S    
C27   H14   S    
C25   O3    S    
C12   O9    A    
C33   H28   S    
C41   H46   S    
C36   H33   S    
C35   O6    S    
C40   H44   S    
C26   H10   S    
C18   O16   S    
C28   O4    S    
O14   Zn1   S    
C29   H17   S    
C28   H16   S    
C18   H12   S    
C31   H24   S    
C21   H56   S    
O1    Zn1   S    
C34   N6    A    
C22   C24   S    
C42   C43   S    
C3    C4    S    
C11   O7    S    
C39   C40   S    
C30   H21   S    
C10   O6    S    
C6    C17   A    
C28   C29   S    
N1    Zn2   S    
C6    O2    S    
C25   H7    S    
C43   H51   S    
C6    C10   A    
C2    C47   T    
C35   H30   S    
C38   H39   S    
C32   C33   S    
C7    O3    S    
C19   C20   S    
C24   H5    S    
C27   H11   S    
C1    O1    A    
C33   H29   S    
O13   Zn2   S    
C41   H47   S    
C23   N4    A    
C35   H31   S    
N4    N6    A    
C40   H43   S    
C26   H9    S    
C1    O11   A    
C29   H18   S    
C21   H55   S    
C28   H15   S    
C37   H35   S    
C5    C9    A    
C40   H42   S    
C21   C22   S    
C39   H41   S    
C30   H20   S    
C18   H1    S    
C22   H3    S    
