data_mof_unit_64495.cif
_audit_creation_date              2012-12-10T17:59:58-0500
_audit_creation_method            fapswitch 2.2
_symmetry_space_group_name_H-M    P1
_symmetry_Int_Tables_number       1
_space_group_crystal_system       triclinic
_cell_length_a                    30.825881
_cell_length_b                    31.984727
_cell_length_c                    21.758571
_cell_angle_alpha                 89.909492
_cell_angle_beta                  135.180398
_cell_angle_gamma                 90.065217
_cell_volume                      15121.722638

loop_
_atom_site_label
_atom_site_type_symbol
_atom_type_description
_atom_site_fract_x
_atom_site_fract_y
_atom_site_fract_z
_atom_type_partial_charge
C1    C     C_R   0.499982 0.999728 0.381104 0.805948
C2    C     C_R   0.999982 0.499707 0.381103 0.805967
C3    C     C_3   0.443398 0.736478 0.455632 -0.023932
C4    C     C_3   0.453842 0.263518 0.488622 -0.027229
C5    C     C_3   0.944480 0.236483 0.460743 -0.024415
C6    C     C_3   0.947457 0.763541 0.471463 -0.026819
C7    C     C_3   0.499311 0.708643 0.498823 0.084976
C8    C     C_3   0.499228 0.291361 0.498985 0.085885
C9    C     C_3   0.999337 0.208646 0.498991 0.085009
C10   C     C_3   0.999382 0.791358 0.498949 0.085693
C11   C     C_3   0.482012 0.763941 0.538208 -0.283889
C12   C     C_3   0.507187 0.235900 0.565813 -0.280903
C13   C     C_3   0.986070 0.263939 0.543512 -0.284830
C14   C     C_3   0.994490 0.735844 0.553084 -0.279368
C15   C     C_3   0.538244 0.736200 0.580249 0.511064
C16   C     C_3   0.552246 0.263662 0.574365 0.511297
C17   C     C_3   0.041142 0.236195 0.580491 0.510581
C18   C     C_3   0.046408 0.763575 0.579045 0.511631
C19   C     C_1   0.500094 0.837235 0.500516 -0.038421
C20   C     C_1   0.500060 0.162765 0.500301 -0.039747
C21   C     C_1   0.000167 0.337237 0.500668 -0.038330
C22   C     C_1   0.999967 0.662761 0.500033 -0.039767
C23   C     C_1   0.499576 0.662735 0.499252 -0.007450
C24   C     C_1   0.499609 0.337268 0.499542 -0.008317
C25   C     C_1   0.999608 0.162737 0.499364 -0.006517
C26   C     C_1   0.999730 0.837266 0.499593 -0.009615
C27   C     C_R   0.446764 0.002998 0.226690 -0.007116
C28   C     C_R   0.946744 0.502758 0.226654 -0.007242
C29   C     C_R   0.500578 0.999647 0.315005 -0.064001
C30   C     C_R   0.000578 0.499600 0.315002 -0.064163
C31   C     C_R   0.556591 0.996640 0.338233 -0.190389
C32   C     C_R   0.056620 0.496776 0.338265 -0.190012
C33   C     C_R   0.556596 0.996616 0.273497 -0.206798
C34   C     C_R   0.056639 0.496764 0.273544 -0.206141
C35   C     C_R   0.500027 0.919862 0.500126 0.821894
C36   C     C_R   0.500028 0.080138 0.500039 0.820575
C37   C     C_R   0.000031 0.419863 0.500138 0.821906
C38   C     C_R   0.000023 0.580137 0.500010 0.820452
C39   C     C_R   0.500815 0.000217 0.185163 -0.096985
C40   C     C_R   0.000842 0.500211 0.185187 -0.096665
C41   C     C_R   0.447239 0.004287 0.165044 0.010473
C42   C     C_R   0.947235 0.504092 0.165027 0.010411
C43   C     C_3   0.378547 0.006831 0.091064 0.803262
C44   C     C_3   0.878534 0.506404 0.090994 0.802977
C45   C     C_3   0.378117 0.004827 0.162044 -0.549884
C46   C     C_3   0.878073 0.504332 0.161936 -0.549566
C47   C     C_R   0.467427 0.971993 0.686008 0.121063
C48   C     C_R   0.967065 0.472247 0.685653 0.121242
C49   C     C_R   0.500740 0.000759 0.685426 -0.081401
C50   C     C_R   0.000761 0.500806 0.685460 -0.081079
C51   C     C_R   0.535828 0.030545 0.753142 -0.210365
C52   C     C_R   0.036283 0.530357 0.753628 -0.209943
C53   C     C_R   0.535322 0.030824 0.817475 -0.208688
C54   C     C_R   0.035807 0.530618 0.817997 -0.210687
C55   C     C_R   0.501394 0.000412 0.816153 -0.096529
C56   C     C_R   0.001449 0.500419 0.816222 -0.092806
C57   C     C_R   0.468771 0.971259 0.749337 0.126694
C58   C     C_R   0.968420 0.471485 0.748990 0.126759
C59   C     C_R   0.500159 0.000008 0.618720 0.796686
C60   C     C_R   0.000164 0.500044 0.618729 0.796327
C61   C     C_3   0.427030 0.934444 0.711735 -0.471141
C62   C     C_3   0.926235 0.434902 0.710920 -0.471549
C63   C     C_3   0.426014 0.935069 0.639869 -0.478326
C64   C     C_3   0.925208 0.435557 0.639046 -0.477179
C65   C     C_R   0.381366 0.499912 0.381315 0.798404
C66   C     C_R   0.881375 0.000099 0.381324 0.798888
C67   C     C_R   0.499909 0.580135 0.499861 0.817694
C68   C     C_R   0.499987 0.419866 0.500020 0.819459
C69   C     C_R   0.999933 0.080135 0.499889 0.817647
C70   C     C_R   0.999983 0.919866 0.500013 0.819642
C71   C     C_R   0.618648 0.500270 0.618842 0.795455
C72   C     C_R   0.118649 0.000270 0.618841 0.795333
C73   C     C_R   0.618849 0.000033 0.119025 0.799711
C74   C     C_R   0.118841 0.499970 0.118999 0.800104
C75   C     C_R   0.499611 0.000015 0.118204 0.833364
C76   C     C_R   0.999638 0.500014 0.118231 0.833401
C77   C     C_R   0.380950 0.999950 0.881067 0.824630
C78   C     C_R   0.880948 0.499949 0.881074 0.824523
C79   C     C_R   0.500243 0.000055 0.881314 0.800746
C80   C     C_R   0.000271 0.500057 0.881347 0.800827
C81   C     C_R   0.280865 0.524510 0.242345 0.125396
C82   C     C_R   0.780907 0.975165 0.243009 0.125204
C83   C     C_3   0.516968 0.736312 0.461109 -0.227636
C84   C     C_3   0.491842 0.263832 0.433843 -0.224976
C85   C     C_3   0.013081 0.236323 0.456257 -0.226664
C86   C     C_3   0.004446 0.763877 0.446017 -0.225798
C87   C     C_R   0.315128 0.499048 0.315349 -0.087507
C88   C     C_R   0.815154 0.000978 0.315366 -0.086546
C89   C     C_R   0.282732 0.472718 0.323646 -0.201521
C90   C     C_R   0.782764 0.027668 0.323031 -0.200216
C91   C     C_R   0.717881 0.027885 0.257874 -0.209325
C92   C     C_R   0.217850 0.472491 0.258493 -0.210671
C93   C     C_R   0.685066 0.000360 0.186291 -0.089532
C94   C     C_R   0.185041 0.499655 0.186252 -0.087843
C95   C     C_R   0.718887 0.974215 0.182450 0.125099
C96   C     C_R   0.218842 0.525457 0.181756 0.126664
C97   C     C_3   0.714141 0.941259 0.129687 -0.471647
C98   C     C_3   0.214045 0.557950 0.128120 -0.477065
C99   C     C_3   0.284991 0.557224 0.197914 -0.465847
C100  C     C_3   0.785084 0.941999 0.199466 -0.470703
C101  C     C_R   0.717703 0.467463 0.691843 0.108943
C102  C     C_R   0.217712 0.967524 0.691685 0.108217
C103  C     C_R   0.685187 0.499877 0.686945 -0.077345
C104  C     C_R   0.185192 0.999876 0.686935 -0.076666
C105  C     C_R   0.717575 0.529500 0.754506 -0.237210
C106  C     C_R   0.217583 0.029438 0.754609 -0.237156
C107  C     C_3   0.557088 0.763987 0.544344 -0.226805
C108  C     C_3   0.546189 0.236026 0.510639 -0.229986
C109  C     C_3   0.056114 0.263989 0.539524 -0.226746
C110  C     C_3   0.052758 0.735991 0.527761 -0.230332
C111  C     C_R   0.282055 0.029672 0.818786 -0.186970
C112  C     C_R   0.782047 0.529729 0.818692 -0.187003
C113  C     C_R   0.314272 0.999374 0.817287 -0.086954
C114  C     C_R   0.814266 0.499371 0.817313 -0.087070
C115  C     C_R   0.281269 0.967041 0.756404 0.125429
C116  C     C_R   0.781260 0.466985 0.756561 0.125631
C117  C     C_3   0.284835 0.951094 0.695630 -0.490936
C118  C     C_3   0.784814 0.450929 0.695835 -0.491037
C119  C     C_3   0.714897 0.451428 0.624744 -0.451887
C120  C     C_3   0.214916 0.951617 0.624524 -0.452671
C121  C     C_1   0.500074 0.874950 0.500374 -0.176336
C122  C     C_1   0.500065 0.125050 0.500200 -0.177404
C123  C     C_1   0.000101 0.374952 0.500445 -0.176269
C124  C     C_1   0.000027 0.625047 0.500058 -0.177247
C125  C     C_1   0.499754 0.625029 0.499580 -0.157773
C126  C     C_1   0.499838 0.374972 0.499900 -0.157865
C127  C     C_1   0.999788 0.125031 0.499645 -0.155769
C128  C     C_1   0.999896 0.874971 0.499939 -0.160108
C129  C     C_3   0.460087 0.764505 0.416986 -0.157956
C130  C     C_3   0.445610 0.235634 0.423052 -0.159423
C131  C     C_3   0.957257 0.264514 0.417143 -0.157245
C132  C     C_3   0.951612 0.735701 0.417858 -0.160191
C133  C     C_3   0.499995 0.791364 0.500421 0.111347
C134  C     C_3   0.499954 0.208635 0.500290 0.111928
C135  C     C_3   0.000105 0.291367 0.500645 0.111143
C136  C     C_3   0.999832 0.708628 0.499950 0.112286
Cu1   Cu    Cu3+1 0.438230 0.000000 0.438170 0.952846
Cu2   Cu    Cu3+1 0.938230 0.500000 0.438170 0.952994
Cu3   Cu    Cu3+1 0.561800 0.000000 0.561830 0.949084
Cu4   Cu    Cu3+1 0.061800 0.500000 0.561830 0.949613
Cu5   Cu    Cu3+1 0.499880 0.500000 0.438060 0.951360
Cu6   Cu    Cu3+1 0.999880 1.000000 0.438060 0.951346
Cu7   Cu    Cu3+1 0.500000 0.500000 0.561790 0.963269
Cu8   Cu    Cu3+1 0.000000 0.000000 0.561790 0.962624
Cu9   Cu    Cu3+1 0.500030 0.958570 0.000020 0.961679
Cu10  Cu    Cu3+1 0.500030 0.041430 0.000020 0.948946
Cu11  Cu    Cu3+1 0.000030 0.458570 0.000020 0.963126
Cu12  Cu    Cu3+1 0.000030 0.541430 0.000020 0.947192
H1    H     H_    0.604018 0.775835 0.581406 0.136350
H2    H     H_    0.584880 0.224349 0.520998 0.137477
H3    H     H_    0.102243 0.275824 0.572562 0.136579
H4    H     H_    0.096624 0.724290 0.552174 0.137564
H5    H     H_    0.359079 0.975291 0.162025 0.192875
H6    H     H_    0.361413 0.033581 0.168408 0.178795
H7    H     H_    0.859239 0.474710 0.162039 0.192784
H8    H     H_    0.861120 0.533003 0.168093 0.179014
H9    H     H_    0.562614 0.053752 0.755525 0.150995
H10   H     H_    0.063397 0.553392 0.756351 0.150026
H11   H     H_    0.561907 0.054211 0.868455 0.159509
H12   H     H_    0.062753 0.553809 0.869363 0.154334
H13   H     H_    0.382026 0.942468 0.687622 0.191984
H14   H     H_    0.450466 0.906578 0.754933 0.205599
H15   H     H_    0.881334 0.443166 0.686915 0.191655
H16   H     H_    0.949333 0.406897 0.753752 0.206593
H17   H     H_    0.380365 0.943258 0.574320 0.209201
H18   H     H_    0.449258 0.907706 0.641998 0.192993
H19   H     H_    0.879655 0.444007 0.573609 0.209098
H20   H     H_    0.948117 0.408074 0.640813 0.193600
H21   H     H_    0.307337 0.452112 0.379359 0.160350
H22   H     H_    0.807376 0.048551 0.378246 0.159671
H23   H     H_    0.693603 0.048888 0.264048 0.156015
H24   H     H_    0.193566 0.451767 0.265163 0.155397
H25   H     H_    0.692469 0.953097 0.064996 0.195656
H26   H     H_    0.694719 0.911619 0.128538 0.210151
H27   H     H_    0.194599 0.587751 0.126205 0.210956
H28   H     H_    0.192363 0.545700 0.063727 0.192029
H29   H     H_    0.306473 0.586505 0.236683 0.201412
H30   H     H_    0.304270 0.544853 0.173637 0.206505
H31   H     H_    0.804363 0.953965 0.174889 0.207096
H32   H     H_    0.806590 0.912897 0.239003 0.199712
H33   H     H_    0.693157 0.553503 0.755193 0.156392
H34   H     H_    0.193167 0.053393 0.755400 0.156531
H35   H     H_    0.530945 0.724583 0.429244 0.156622
H36   H     H_    0.485300 0.275653 0.379724 0.155147
H37   H     H_    0.023808 0.224601 0.420258 0.156922
H38   H     H_    0.008229 0.775739 0.401997 0.154688
H39   H     H_    0.306553 0.053748 0.868325 0.178452
H40   H     H_    0.806544 0.553850 0.868133 0.178143
H41   H     H_    0.304537 0.919059 0.713250 0.202983
H42   H     H_    0.305872 0.974110 0.684680 0.189180
H43   H     H_    0.804542 0.418898 0.713586 0.203491
H44   H     H_    0.805813 0.473908 0.684769 0.188795
H45   H     H_    0.694285 0.419664 0.601675 0.199025
H46   H     H_    0.695379 0.474597 0.572328 0.211663
H47   H     H_    0.194284 0.919865 0.601289 0.197536
H48   H     H_    0.195422 0.974857 0.572227 0.211926
H49   H     H_    0.468189 0.775406 0.570431 0.140697
H50   H     H_    0.513334 0.224095 0.619585 0.138800
H51   H     H_    0.975513 0.275399 0.579872 0.140582
H52   H     H_    0.990293 0.723997 0.596650 0.138861
H53   H     H_    0.427360 0.776684 0.349214 0.143602
H54   H     H_    0.401203 0.223570 0.360493 0.142716
H55   H     H_    0.922172 0.276698 0.349372 0.143882
H56   H     H_    0.912044 0.723699 0.351082 0.141684
H57   H     H_    0.600174 0.993956 0.405836 0.165563
H58   H     H_    0.100217 0.494231 0.405889 0.165549
H59   H     H_    0.599749 0.993827 0.292262 0.139101
H60   H     H_    0.099813 0.494098 0.292335 0.137806
O1    O     O_R   0.447840 0.000000 0.357610 -0.580896
O2    O     O_R   0.947840 0.500000 0.357610 -0.580908
O3    O     O_R   0.500000 0.560470 0.552180 -0.573199
O4    O     O_R   0.500000 0.439530 0.552180 -0.575949
O5    O     O_R   0.000000 0.060470 0.552180 -0.577007
O6    O     O_R   0.000000 0.939530 0.552180 -0.572101
O7    O     O_R   0.590030 0.500000 0.537810 -0.585362
O8    O     O_R   0.090030 0.000000 0.537810 -0.585404
O9    O     O_R   0.590140 0.500000 0.642300 -0.591689
O10   O     O_R   0.090140 0.000000 0.642300 -0.591959
O11   O     O_R   0.590180 0.965000 0.090240 -0.586565
O12   O     O_R   0.590180 0.035000 0.090240 -0.588376
O13   O     O_R   0.090180 0.465000 0.090240 -0.588139
O14   O     O_R   0.090180 0.535000 0.090240 -0.586747
O15   O     O_R   0.500040 0.965010 0.090190 -0.566522
O16   O     O_R   0.500040 0.034990 0.090190 -0.605589
O17   O     O_R   0.000040 0.465010 0.090190 -0.569169
O18   O     O_R   0.000040 0.534990 0.090190 -0.602995
O19   O     O_R   0.409890 0.965030 0.909800 -0.582376
O20   O     O_R   0.409890 0.034970 0.909800 -0.588659
O21   O     O_R   0.909890 0.465030 0.909800 -0.582264
O22   O     O_R   0.909890 0.534970 0.909800 -0.589017
O23   O     O_R   0.500040 0.965020 0.909850 -0.590258
O24   O     O_R   0.500040 0.034980 0.909850 -0.586709
O25   O     O_R   0.000040 0.465020 0.909850 -0.587706
O26   O     O_R   0.000040 0.534980 0.909850 -0.589094
O27   O     O_R   0.552190 0.000000 0.462050 -0.595686
O28   O     O_R   0.052190 0.500000 0.462050 -0.595531
O29   O     O_R   0.447840 0.939540 0.447780 -0.580453
O30   O     O_R   0.447840 0.060460 0.447780 -0.579018
O31   O     O_R   0.947840 0.439540 0.447780 -0.580422
O32   O     O_R   0.947840 0.560460 0.447780 -0.578990
O33   O     O_R   0.552190 0.939560 0.552210 -0.580153
O34   O     O_R   0.552190 0.060440 0.552210 -0.583138
O35   O     O_R   0.052190 0.439560 0.552210 -0.580180
O36   O     O_R   0.052190 0.560440 0.552210 -0.582890
O37   O     O_R   0.447840 0.000000 0.537950 -0.583564
O38   O     O_R   0.947840 0.500000 0.537950 -0.583761
O39   O     O_R   0.552190 1.000000 0.642390 -0.586935
O40   O     O_R   0.052190 0.500000 0.642390 -0.586782
O41   O     O_R   0.409740 0.500000 0.357550 -0.585503
O42   O     O_R   0.909740 0.000000 0.357550 -0.585151
O43   O     O_R   0.409840 0.500000 0.462040 -0.584177
O44   O     O_R   0.909840 0.000000 0.462040 -0.584426
O45   O     O_R   0.499890 0.560480 0.447700 -0.583698
O46   O     O_R   0.499890 0.439520 0.447700 -0.582203
O47   O     O_R   0.999890 0.060480 0.447700 -0.580863
O48   O     O_R   0.999890 0.939520 0.447700 -0.585253
O49   O     O_3   0.578158 0.718678 0.664585 -0.611378
C137  C     C_3   0.612578 0.750198 0.729081 0.047749
H61   H     H_    0.607455 0.745520 0.774280 0.166178
H62   H     H_    0.596970 0.782786 0.703437 0.125661
C138  C     C_3   0.680551 0.745623 0.780435 -0.333495
H63   H     H_    0.696661 0.713754 0.809241 0.229188
H64   H     H_    0.686225 0.749655 0.735731 0.212861
C139  C     C_3   0.720128 0.777901 0.853363 -0.923145
H65   H     H_    0.705704 0.810042 0.825867 0.258257
H66   H     H_    0.769104 0.773598 0.889465 0.257603
H67   H     H_    0.715931 0.774022 0.899716 0.256456
O50   O     O_3   0.607800 0.280999 0.652016 -0.614180
C140  C     C_3   0.647474 0.249349 0.714144 0.044575
H68   H     H_    0.693410 0.254196 0.739034 0.165141
H69   H     H_    0.633050 0.216851 0.687646 0.128037
C141  C     C_3   0.653776 0.253419 0.790218 -0.331387
H70   H     H_    0.671614 0.285044 0.819573 0.229924
H71   H     H_    0.607900 0.249721 0.765982 0.214457
C142  C     C_3   0.697450 0.220508 0.860160 -0.919427
H72   H     H_    0.679742 0.188612 0.832647 0.256067
H73   H     H_    0.701202 0.224443 0.914484 0.259797
H74   H     H_    0.743979 0.224017 0.886391 0.256678
O51   O     O_3   0.084050 0.218650 0.664919 -0.611929
C143  C     C_3   0.120377 0.250160 0.729020 0.047275
H75   H     H_    0.118517 0.245505 0.777727 0.166151
H76   H     H_    0.104228 0.282757 0.703815 0.126273
C144  C     C_3   0.187095 0.245529 0.774750 -0.333308
H77   H     H_    0.203901 0.213626 0.803112 0.229200
H78   H     H_    0.189491 0.249618 0.726499 0.213297
C145  C     C_3   0.228826 0.277719 0.847300 -0.922123
H79   H     H_    0.213661 0.309893 0.820129 0.258615
H80   H     H_    0.276832 0.273391 0.879254 0.258052
H81   H     H_    0.227931 0.273763 0.897124 0.256256
O52   O     O_3   0.096039 0.780753 0.662219 -0.613380
C146  C     C_3   0.130317 0.748921 0.726175 0.044431
H82   H     H_    0.179677 0.753958 0.764689 0.164901
H83   H     H_    0.118895 0.716524 0.699365 0.127533
C147  C     C_3   0.121824 0.752364 0.787224 -0.329785
H84   H     H_    0.136857 0.783849 0.817853 0.230506
H85   H     H_    0.072378 0.748564 0.749236 0.214368
C148  C     C_3   0.159059 0.719137 0.858628 -0.921521
H86   H     H_    0.143771 0.687364 0.829462 0.255167
H87   H     H_    0.152129 0.722631 0.901954 0.259786
H88   H     H_    0.208862 0.722715 0.898401 0.256898
C149  C     C_1   0.381186 0.721185 0.406489 0.241771
N1    N     N_1   0.332117 0.709091 0.367719 -0.288790
C150  C     C_1   0.403054 0.278809 0.475824 0.243063
N2    N     N_1   0.362995 0.290895 0.465732 -0.285891
C151  C     C_1   0.883355 0.221212 0.417038 0.243424
N3    N     N_1   0.835141 0.209141 0.382566 -0.287577
C152  C     C_1   0.889686 0.778871 0.439953 0.240927
N4    N     N_1   0.844118 0.790991 0.415095 -0.285463
O53   O     O_3   0.355737 0.970206 0.039498 -0.618018
C153  C     C_3   0.290692 0.969146 0.975515 0.087807
H89   H     H_    0.270742 0.996752 0.931533 0.193017
H90   H     H_    0.273601 0.968266 0.006534 0.130010
C154  C     C_3   0.268735 0.929867 0.920119 -0.346649
H91   H     H_    0.286674 0.930067 0.890305 0.234136
H92   H     H_    0.287034 0.901724 0.962332 0.226115
C155  C     C_3   0.198617 0.927437 0.847784 -0.899006
H93   H     H_    0.179680 0.926042 0.876127 0.253828
H94   H     H_    0.184288 0.898854 0.808263 0.265127
H95   H     H_    0.179381 0.955124 0.804354 0.270773
O54   O     O_3   0.353581 0.044235 0.039565 -0.651208
C156  C     C_3   0.388882 0.080812 0.085200 0.002329
H96   H     H_    0.431397 0.079876 0.099593 0.174455
H97   H     H_    0.401466 0.084506 0.147045 0.143250
C157  C     C_3   0.351002 0.118806 0.027570 -0.317585
H98   H     H_    0.338597 0.115949 0.965734 0.217735
H99   H     H_    0.307809 0.119915 0.011498 0.222680
C158  C     C_3   0.386608 0.159405 0.072890 -0.915977
H100  H     H_    0.398474 0.163374 0.134124 0.255750
H101  H     H_    0.357823 0.186305 0.029234 0.256495
H102  H     H_    0.429525 0.159253 0.088273 0.257889
O55   O     O_3   0.856039 0.469724 0.039646 -0.618228
C159  C     C_3   0.791000 0.468476 0.975441 0.088274
H103  H     H_    0.770972 0.495997 0.931236 0.193368
H104  H     H_    0.773743 0.467601 0.006236 0.130112
C160  C     C_3   0.769420 0.429095 0.920432 -0.346596
H105  H     H_    0.787606 0.429272 0.890958 0.234363
H106  H     H_    0.787745 0.401031 0.962850 0.225694
C161  C     C_3   0.699327 0.426487 0.847758 -0.900878
H107  H     H_    0.680142 0.425162 0.875757 0.254117
H108  H     H_    0.685291 0.397805 0.808609 0.263896
H109  H     H_    0.680072 0.454067 0.804055 0.270979
O56   O     O_3   0.853314 0.543752 0.039307 -0.651253
C162  C     C_3   0.888350 0.580433 0.084787 0.002707
H110  H     H_    0.930779 0.579725 0.098949 0.174691
H111  H     H_    0.901074 0.584044 0.146752 0.143438
C163  C     C_3   0.850103 0.618345 0.027161 -0.317931
H112  H     H_    0.837617 0.615618 0.965249 0.217442
H113  H     H_    0.806961 0.619187 0.011241 0.222741
C164  C     C_3   0.885382 0.659049 0.072395 -0.916085
H114  H     H_    0.897320 0.662887 0.133707 0.255654
H115  H     H_    0.856337 0.685887 0.028751 0.255942
H116  H     H_    0.928240 0.659166 0.087627 0.258076

loop_
_geom_bond_atom_site_label_1
_geom_bond_atom_site_label_2
_ccdc_geom_bond_type
Cu5   O41   S    
C146  H82   S    
C73   C93   S    
Cu3   O39   S    
Cu5   O7    S    
Cu9   Cu10  S    
C39   C41   A    
C149  N1    T    
C46   H7    S    
C17   O51   S    
C120  H48   S    
Cu7   O43   S    
C109  H3    S    
C110  H4    S    
C67   C125  S    
C37   O31   A    
C73   O11   A    
C61   C63   S    
Cu3   O34   S    
C62   C64   S    
C82   C88   A    
C11   C15   S    
C63   H18   S    
C12   C16   S    
C157  H98   S    
C49   C51   A    
C50   C52   A    
C145  H80   S    
C159  C160  S    
C67   O3    A    
C4    C12   S    
C5    C13   S    
C130  H54   S    
Cu10  O12   S    
C48   C50   A    
C8    C16   S    
C41   C43   S    
C130  C134  S    
C42   C44   S    
C77   C113  S    
C44   C46   S    
C65   C87   S    
C52   H10   S    
C66   O44   A    
C53   H11   S    
C97   H25   S    
C70   O6    A    
C80   O26   A    
Cu12  O18   S    
C6    C132  S    
C70   O48   A    
C160  H106  S    
O56   C162  S    
C4    C130  S    
C81   C99   S    
C51   H9    S    
C40   C76   S    
C155  H93   S    
Cu4   O36   S    
C4    C150  S    
C32   C34   A    
C21   C123  T    
Cu8   O10   S    
Cu2   O38   S    
C118  H43   S    
C150  N2    T    
C1    C29   S    
C33   H59   S    
C83   H35   S    
C111  C113  A    
C143  H75   S    
C94   C96   A    
C79   O23   A    
Cu2   Cu4   S    
C129  C133  S    
C105  C112  A    
C140  H69   S    
Cu3   O27   S    
C1    O27   A    
Cu6   Cu8   S    
C19   C133  S    
C32   H58   S    
C156  H96   S    
Cu10  O16   S    
C101  C103  A    
C145  H81   S    
C86   C110  S    
C3    C129  S    
C17   C109  S    
C95   C97   S    
C57   C61   S    
Cu9   O15   S    
C72   O10   A    
C85   C109  S    
C91   H23   S    
C89   H21   S    
C85   C131  S    
Cu8   O6    S    
C98   H27   S    
Cu11  O21   S    
C10   C86   S    
C92   H24   S    
C141  C142  S    
C44   O56   S    
C84   C130  S    
C116  C118  S    
Cu1   O29   S    
C3    C11   S    
C38   O32   A    
C160  H105  S    
C77   O20   A    
C107  C133  S    
C98   C99   S    
C12   H50   S    
C45   H6    S    
C51   C53   A    
C21   C135  S    
C113  C115  A    
C44   O55   S    
C7    C83   S    
C66   O42   A    
C164  H114  S    
C109  C135  S    
C53   C55   A    
C110  C136  S    
Cu11  Cu12  S    
C35   O29   A    
C86   C132  S    
C112  C114  A    
C90   C91   A    
C78   O21   A    
C18   O52   S    
C74   O13   A    
C28   C46   S    
C155  H95   S    
Cu5   O46   S    
C146  H83   S    
C10   C18   S    
C83   C129  S    
C64   H19   S    
C157  C158  S    
C66   C88   S    
C138  H63   S    
C154  H92   S    
C47   C57   A    
Cu6   O48   S    
O49   C137  S    
C9    C85   S    
C37   C123  S    
C139  H65   S    
C96   C98   S    
C39   C75   S    
C20   C122  T    
C129  H53   S    
C40   C42   A    
C93   C95   A    
C12   C134  S    
C144  C145  S    
C24   C126  T    
C148  H87   S    
C106  C111  A    
C85   H37   S    
C1    O1    A    
C61   H14   S    
C84   H36   S    
C142  H74   S    
C159  H103  S    
Cu9   O19   S    
C99   H30   S    
C158  H101  S    
C141  H70   S    
Cu2   O2    S    
C119  H45   S    
C5    C9    S    
C6    C14   S    
Cu1   O37   S    
C163  H113  S    
C132  C136  S    
C156  C157  S    
Cu2   O31   S    
C103  C105  A    
C43   C45   S    
C117  H41   S    
C108  H2    S    
C2    O28   A    
C75   O16   A    
C35   O33   A    
C164  H116  S    
C161  H108  S    
C162  H111  S    
Cu12  O22   S    
C68   O4    A    
C97   C100  S    
C163  C164  S    
C9    C17   S    
C101  C116  A    
C71   C103  S    
C19   C121  T    
C82   C95   A    
C13   H51   S    
C76   O17   A    
Cu4   O40   S    
C15   O49   S    
C138  C139  S    
C114  C116  A    
Cu7   O4    S    
C6    C152  S    
C161  H109  S    
C46   H8    S    
C56   C80   S    
C13   C17   S    
C2    C30   S    
C36   O34   A    
C137  H61   S    
Cu6   O8    S    
Cu10  O20   S    
C139  H67   S    
C7    C23   S    
C7    C15   S    
C8    C24   S    
C56   C58   A    
Cu3   O33   S    
C107  H1    S    
C63   H17   S    
C141  H71   S    
C144  H77   S    
C59   O39   A    
C105  H33   S    
C31   H57   S    
C38   C124  S    
C100  H32   S    
C58   C62   S    
C37   O35   A    
C74   C94   S    
C142  H72   S    
C143  C144  S    
C104  C106  A    
Cu11  O17   S    
C9    C25   S    
Cu1   Cu3   S    
C3    C7    S    
Cu5   Cu7   S    
C47   C63   S    
C147  H84   S    
C48   C64   S    
C27   C29   A    
C155  H94   S    
O52   C146  S    
C15   C107  S    
C102  C115  A    
C118  H44   S    
C62   H16   S    
C115  C117  S    
O51   C143  S    
C131  H55   S    
C27   C45   S    
Cu9   O23   S    
C140  H68   S    
C78   C114  S    
C153  H90   S    
C36   O30   A    
C132  H56   S    
C120  H47   S    
C152  N4    T    
C35   C121  S    
C69   O5    A    
C147  C148  S    
C117  C120  S    
C81   C96   A    
C72   C104  S    
C34   H60   S    
C14   H52   S    
C73   O12   A    
Cu1   O1    S    
O55   C159  S    
C108  C134  S    
C91   C93   A    
C55   C79   S    
C59   O37   A    
C81   C87   A    
C72   O8    A    
C88   C90   A    
C86   H38   S    
C61   H13   S    
C45   H5    S    
C102  C120  S    
C153  H89   S    
C97   H26   S    
C8    C84   S    
C80   O25   A    
C18   C110  S    
C143  H76   S    
C49   C59   S    
C6    C10   S    
C160  C161  S    
C48   C58   A    
C78   O22   A    
C38   O36   A    
C74   O14   A    
C111  H39   S    
C71   O9    A    
Cu4   O35   S    
Cu5   O45   S    
C25   C127  T    
C50   C60   S    
C158  H100  S    
C64   H20   S    
C5    C151  S    
C154  H91   S    
Cu8   O5    S    
C14   C136  S    
C84   C108  S    
Cu12  O26   S    
C79   O24   A    
C54   H12   S    
C68   O46   A    
C5    C131  S    
O50   C140  S    
C69   C127  S    
C139  H66   S    
C151  N3    T    
C140  C141  S    
C22   C136  S    
Cu4   O28   S    
C87   C89   A    
C153  C154  S    
C147  H85   S    
C162  H110  S    
C60   O38   A    
Cu6   O42   S    
C65   O41   A    
C144  H78   S    
C148  H86   S    
C14   C18   S    
C4    C8    S    
C47   C49   A    
Cu10  O24   S    
O53   C153  S    
C33   C39   A    
C34   C40   A    
C142  H73   S    
C159  H104  S    
C99   H29   S    
C131  C135  S    
C11   C133  S    
C145  H79   S    
C71   O7    A    
Cu7   O9    S    
C98   H28   S    
Cu1   O30   S    
Cu12  O14   S    
C118  C119  S    
C106  H34   S    
C62   H15   S    
C156  H97   S    
C31   C33   A    
Cu2   O32   S    
Cu11  O13   S    
C23   C125  T    
C10   C26   S    
Cu8   O44   S    
C75   O15   A    
C20   C134  S    
C164  H115  S    
C92   C94   A    
C52   C54   A    
C67   O45   A    
C54   C56   A    
C2    O2    A    
C76   O18   A    
C101  C119  S    
C146  C147  S    
C13   C135  S    
C138  H64   S    
C154  C155  S    
Cu7   O3    S    
Cu6   O47   S    
C36   C122  S    
C11   H49   S    
C27   C41   A    
Cu9   O11   S    
C90   H22   S    
C55   C57   A    
C26   C128  T    
C89   C92   A    
C102  C104  A    
C16   O50   S    
Cu11  O25   S    
C157  H99   S    
C60   O40   A    
C65   O43   A    
C148  H88   S    
C137  C138  S    
C68   C126  S    
C137  H62   S    
C69   O47   A    
C70   C128  S    
C82   C100  S    
C43   O53   S    
C112  H40   S    
C158  H102  S    
C22   C124  T    
C77   O19   A    
C119  H46   S    
O54   C156  S    
C28   C30   A    
C29   C31   A    
C30   C32   A    
C163  H112  S    
C28   C42   A    
C83   C107  S    
C43   O54   S    
C117  H42   S    
C16   C108  S    
C161  H107  S    
C162  C163  S    
C100  H31   S    
C3    C149  S    
