data_mof_unit_46159.cif
_audit_creation_date              2012-10-26T19:41:54-0400
_audit_creation_method            fapswitch 2.2
_symmetry_space_group_name_H-M    P1
_symmetry_Int_Tables_number       1
_space_group_crystal_system       triclinic
_cell_length_a                    10.617779
_cell_length_b                    10.763541
_cell_length_c                    9.646497
_cell_angle_alpha                 90.878038
_cell_angle_beta                  89.756302
_cell_angle_gamma                 92.581131
_cell_volume                      1101.19413182

loop_
_atom_site_label
_atom_site_type_symbol
_atom_type_description
_atom_site_fract_x
_atom_site_fract_y
_atom_site_fract_z
_atom_type_partial_charge
C1    C     C_R   0.495275 0.262759 0.499253 0.536600
C2    C     C_R   0.392945 0.062412 0.577059 0.031864
C3    C     C_R   0.485670 0.128544 0.498058 0.005103
C4    C     C_R   0.259520 0.499928 0.500065 0.531833
C5    C     C_R   0.573313 0.066134 0.418278 -0.142812
C6    C     C_R   0.574186 0.938106 0.420174 -0.142562
C7    C     C_R   0.487641 0.870604 0.502126 0.031953
C8    C     C_R   0.692262 0.632302 0.147302 -0.068970
C9    C     C_R   0.806871 0.659617 0.083267 -0.173510
C10   C     C_R   0.815894 0.647931 0.941047 -0.173934
C11   C     C_R   0.705123 0.627611 0.864565 0.056330
C12   C     C_3   0.962444 0.607131 0.449360 -0.134362
C13   C     C_R   0.597387 0.564626 0.927270 0.169539
C14   C     C_R   0.595051 0.564960 0.076272 0.150466
C15   C     C_R   0.409098 0.437966 0.072911 -0.000867
C16   C     C_R   0.495703 0.736953 0.500808 0.527544
C17   C     C_R   0.408762 0.438464 0.925434 -0.002070
C18   C     C_R   0.740306 0.499150 0.499911 0.530902
C19   C     C_3   0.036970 0.391233 0.550535 -0.125826
C20   C     C_3   0.954291 0.403999 0.420328 -0.113039
C21   C     C_3   0.877223 0.498596 0.500145 0.043812
C22   C     C_3   0.957517 0.485682 0.630459 -0.118882
C23   C     C_3   0.041878 0.512622 0.369331 -0.106169
C24   C     C_3   0.044965 0.594310 0.579601 -0.129008
C25   C     C_2   0.694537 0.729651 0.767243 0.296542
C26   C     C_3   0.122317 0.499843 0.499788 0.048063
C27   C     C_R   0.296670 0.123325 0.649476 -0.110150
C28   C     C_R   0.205789 0.055773 0.725292 -0.125197
C29   C     C_R   0.207719 0.926806 0.728919 -0.119733
C30   C     C_R   0.300202 0.864596 0.656184 -0.086033
C31   C     C_R   0.394361 0.931181 0.579828 0.052058
Cu1   Cu    Cu3+1 0.499990 0.499990 0.640660 0.944615
Cu2   Cu    Cu3+1 0.500010 0.500010 0.359340 0.921958
H1    H     H_    0.913966 0.326223 0.355217 0.113507
H2    H     H_    0.069998 0.302854 0.592093 0.098896
H3    H     H_    0.920776 0.473654 0.737483 0.123125
H4    H     H_    0.083202 0.671972 0.645858 0.095513
H5    H     H_    0.928717 0.695505 0.408431 0.091517
H6    H     H_    0.078691 0.523831 0.262131 0.119753
H7    H     H_    0.643525 0.117087 0.356977 0.128371
H8    H     H_    0.288820 0.222978 0.646286 0.121975
H9    H     H_    0.132734 0.103659 0.780192 0.108455
H10   H     H_    0.751933 0.733213 0.673840 0.080943
H11   H     H_    0.136262 0.874613 0.786933 0.104357
H12   H     H_    0.295451 0.764317 0.658960 0.137825
H13   H     H_    0.644661 0.891413 0.359562 0.110537
H14   H     H_    0.334608 0.386468 0.126907 0.116194
H15   H     H_    0.683054 0.666307 0.251134 0.172039
H16   H     H_    0.885188 0.700639 0.142145 0.115738
H17   H     H_    0.901167 0.685685 0.891931 0.099046
H18   H     H_    0.334063 0.387383 0.870245 0.111418
N1    N     N_R   0.501210 0.501210 0.147910 -0.243033
N2    N     N_R   0.501250 0.501290 0.852040 -0.243058
O1    O     O_R   0.499990 0.319640 0.618810 -0.496605
O2    O     O_R   0.500000 0.319660 0.381240 -0.496958
O3    O     O_R   0.316850 0.499960 0.618770 -0.524638
O4    O     O_R   0.316860 0.499980 0.381190 -0.507607
O5    O     O_R   0.500000 0.680340 0.618760 -0.475081
O6    O     O_R   0.500010 0.680360 0.381190 -0.524322
O7    O     O_R   0.683140 0.500020 0.618810 -0.523242
O8    O     O_R   0.683150 0.500040 0.381230 -0.520390
O9    O     O_2   0.630462 0.817603 0.797806 -0.500328

loop_
_geom_bond_atom_site_label_1
_geom_bond_atom_site_label_2
_ccdc_geom_bond_type
C4    O4    A    
Cu2   O2    S    
C4    C26   S    
C1    O1    A    
C8    H15   S    
C18   O8    A    
C6    C7    A    
Cu1   O5    S    
C18   C21   S    
C22   H3    S    
C9    C10   A    
C12   C24   S    
C30   H12   S    
C19   C20   S    
C20   C23   S    
C15   H14   S    
C30   C31   A    
C20   H1    S    
Cu1   Cu2   S    
C17   H18   S    
C15   N1    A    
C24   H4    S    
C1    O2    A    
Cu2   O6    S    
C16   O5    A    
C21   C22   S    
C4    O3    A    
Cu2   N1    S    
C11   C13   A    
C12   C23   S    
C25   H10   S    
C2    C27   A    
C6    H13   S    
C23   H6    S    
C22   C24   S    
Cu1   O1    S    
C7    C16   S    
C24   C26   S    
C19   H2    S    
C2    C3    A    
C13   N2    A    
C25   O9    D    
C2    C31   A    
C29   H11   S    
C12   H5    S    
C5    C6    A    
C8    C14   A    
C23   C26   S    
C7    C31   A    
C10   C11   A    
Cu1   O7    S    
C29   C30   A    
C10   H17   S    
C17   N2    A    
Cu1   N2    S    
C19   C22   S    
C9    H16   S    
C20   C21   S    
C8    C9    A    
Cu2   O8    S    
C5    H7    S    
C18   O7    A    
C27   C28   A    
C15   C17   A    
C19   C26   S    
C11   C25   S    
C28   C29   A    
Cu2   O4    S    
C28   H9    S    
C3    C5    A    
C13   C14   A    
C12   C21   S    
Cu1   O3    S    
C14   N1    A    
C27   H8    S    
C1    C3    S    
C16   O6    A    
