data_mof_unit_65895.cif
_audit_creation_date              2012-10-26T20:35:33-0400
_audit_creation_method            fapswitch 2.2
_symmetry_space_group_name_H-M    P1
_symmetry_Int_Tables_number       1
_space_group_crystal_system       triclinic
_cell_length_a                    13.647262
_cell_length_b                    16.477515
_cell_length_c                    17.718752
_cell_angle_alpha                 90.552246
_cell_angle_beta                  91.828011
_cell_angle_gamma                 73.705485
_cell_volume                      3822.47349652

loop_
_atom_site_label
_atom_site_type_symbol
_atom_type_description
_atom_site_fract_x
_atom_site_fract_y
_atom_site_fract_z
_atom_type_partial_charge
C1    C     C_R   0.498000 0.500548 0.644894 0.597574
C2    C     C_R   0.813018 0.431603 0.507388 -0.012438
C3    C     C_R   0.544613 0.420264 0.155449 0.226647
C4    C     C_R   0.699906 0.456112 0.503946 0.544477
C5    C     C_R   0.554761 0.423147 0.234361 0.261144
C6    C     C_R   0.503859 0.497735 0.273118 -0.104343
C7    C     C_R   0.453780 0.570879 0.232447 -0.162046
C8    C     C_R   0.450535 0.569652 0.153960 0.347581
C9    C     C_R   0.495416 0.494660 0.115385 -0.011284
C10   C     C_1   0.492624 0.495019 0.034621 0.087025
C11   C     C_1   0.490631 0.496268 0.966969 0.025933
C12   C     C_R   0.977721 0.465210 0.500201 0.018887
C13   C     C_R   0.463192 0.435023 0.844769 -0.112730
C14   C     C_R   0.462717 0.436419 0.765789 0.223088
C15   C     C_R   0.492503 0.500974 0.728192 0.012128
C16   C     C_R   0.500957 0.499441 0.355583 0.538684
C17   C     C_R   0.516418 0.565552 0.771400 0.355639
C18   C     C_R   0.514647 0.564042 0.849919 -0.067846
C19   C     C_R   0.489088 0.498570 0.886424 -0.072941
C20   C     C_R   0.456667 0.178962 0.440691 0.294037
C21   C     C_R   0.455954 0.265267 0.440697 0.342853
C22   C     C_R   0.545406 0.246847 0.558971 0.499885
C23   C     C_R   0.870758 0.491949 0.511818 -0.071234
C24   C     C_R   0.543631 0.161608 0.561682 0.325378
C25   C     C_R   0.498372 0.126765 0.502236 -0.061819
C26   C     C_1   0.497255 0.037543 0.502597 0.168632
C27   C     C_1   0.495806 0.963486 0.502027 0.155434
C28   C     C_R   0.300935 0.544251 0.499569 0.520238
C29   C     C_R   0.447002 0.840385 0.442822 0.287092
C30   C     C_R   0.449716 0.754006 0.443414 -0.023433
C31   C     C_R   0.547392 0.733270 0.557580 0.546006
C32   C     C_R   0.544904 0.819363 0.559779 0.349335
C33   C     C_R   0.495058 0.874197 0.501677 -0.052348
C34   C     C_R   0.032125 0.527846 0.500438 -0.012897
C35   C     C_R   0.029466 0.677074 0.491307 -0.101804
C36   C     C_R   0.189882 0.569245 0.497863 -0.015453
C37   C     C_R   0.864091 0.345678 0.499045 -0.185293
C38   C     C_R   0.968276 0.319397 0.489149 -0.087578
C39   C     C_R   0.024416 0.377689 0.486932 0.352891
C40   C     C_3   0.702875 0.360316 0.302275 0.038999
C41   C     C_3   0.786849 0.332350 0.244448 -0.261013
C42   C     C_3   0.890496 0.333997 0.278498 -0.476848
C43   C     C_3   0.330449 0.389742 0.720469 0.018942
C44   C     C_3   0.302308 0.327337 0.665353 -0.237430
C45   C     C_R   0.977695 0.615146 0.499080 0.045366
C46   C     C_3   0.187536 0.337751 0.662999 -0.460120
C47   C     C_3   0.314824 0.334508 0.369789 0.059716
C48   C     C_3   0.278210 0.400542 0.307413 -0.261976
C49   C     C_3   0.162231 0.425126 0.296316 -0.458942
C50   C     C_3   0.751409 0.746661 0.449910 0.018559
C51   C     C_3   0.806352 0.752464 0.376711 -0.295536
C52   C     C_3   0.729800 0.782530 0.311161 -0.446333
C53   C     C_3   0.515040 0.304163 0.097457 0.007396
C54   C     C_3   0.506824 0.242485 0.159605 -0.239814
C55   C     C_3   0.433337 0.191533 0.135848 -0.459005
C56   C     C_R   0.873070 0.639867 0.509679 0.262706
C57   C     C_R   0.824953 0.578640 0.526144 -0.088951
C58   C     C_R   0.138791 0.507258 0.505003 -0.124832
C59   C     C_R   0.134889 0.654008 0.489196 -0.138342
Cu1   Cu    Cu3+1 0.500000 0.419580 0.500020 1.076818
Cu2   Cu    Cu3+1 0.500000 0.580420 0.499980 1.026857
F1    F     F_    0.402440 0.641437 0.115557 -0.597155
F2    F     F_    0.543425 0.629534 0.738386 -0.528037
F3    F     F_    0.419932 0.145517 0.379344 -0.610975
F4    F     F_    0.596250 0.275945 0.615080 -0.526829
F5    F     F_    0.588232 0.112874 0.621575 -0.543515
F6    F     F_    0.397582 0.890438 0.385101 -0.590689
F7    F     F_    0.599454 0.681930 0.613155 -0.509850
F8    F     F_    0.593503 0.848393 0.617586 -0.528794
F9    F     F_    0.122228 0.346581 0.466283 -0.719147
H1    H     H_    0.173326 0.702768 0.483254 0.151402
H2    H     H_    0.752327 0.602094 0.551330 0.232135
H3    H     H_    0.724804 0.318912 0.352728 0.165501
H4    H     H_    0.698060 0.425735 0.322046 0.105183
H5    H     H_    0.791247 0.267166 0.224874 0.201262
H6    H     H_    0.768253 0.375385 0.194910 0.187482
H7    H     H_    0.887693 0.398534 0.299000 0.151600
H8    H     H_    0.949406 0.315424 0.234938 0.164849
H9    H     H_    0.912761 0.288791 0.326300 0.163511
H10   H     H_    0.294225 0.455097 0.698913 0.117305
H11   H     H_    0.300066 0.382539 0.776866 0.132510
H12   H     H_    0.415861 0.628774 0.261539 0.170571
H13   H     H_    0.326606 0.337909 0.607860 0.177985
H14   H     H_    0.343093 0.261579 0.682754 0.205316
H15   H     H_    0.162612 0.323168 0.719102 0.161736
H16   H     H_    0.169336 0.293522 0.620743 0.196796
H17   H     H_    0.144728 0.403406 0.646965 0.157913
H18   H     H_    0.280510 0.362084 0.423338 0.193083
H19   H     H_    0.288429 0.278217 0.354977 0.216383
H20   H     H_    0.301990 0.458047 0.322274 0.171539
H21   H     H_    0.313830 0.374829 0.253493 0.162315
H22   H     H_    0.136201 0.368654 0.281703 0.170705
H23   H     H_    0.443473 0.384173 0.873401 0.138607
H24   H     H_    0.138682 0.471630 0.249605 0.147617
H25   H     H_    0.124804 0.454497 0.348448 0.192492
H26   H     H_    0.699430 0.810233 0.461123 0.172737
H27   H     H_    0.702756 0.702818 0.442539 0.117815
H28   H     H_    0.852964 0.797575 0.384703 0.180116
H29   H     H_    0.857875 0.689491 0.362171 0.156067
H30   H     H_    0.683210 0.737655 0.301533 0.165536
H31   H     H_    0.771333 0.786033 0.258965 0.168914
H32   H     H_    0.678423 0.846326 0.323289 0.182346
H33   H     H_    0.540015 0.267524 0.045129 0.168803
H34   H     H_    0.534405 0.613619 0.882344 0.180298
H35   H     H_    0.438250 0.348376 0.083665 0.106346
H36   H     H_    0.583512 0.198455 0.172464 0.206060
H37   H     H_    0.478520 0.278025 0.211742 0.223499
H38   H     H_    0.355723 0.234470 0.124074 0.149450
H39   H     H_    0.428870 0.147878 0.182145 0.209928
H40   H     H_    0.460503 0.153616 0.084573 0.166261
H41   H     H_    0.411031 0.729446 0.398264 0.171204
H42   H     H_    0.988977 0.743722 0.488484 0.172479
H43   H     H_    0.183669 0.444140 0.518527 0.193473
H44   H     H_    0.822741 0.298350 0.496542 0.159918
H45   H     H_    0.005386 0.253054 0.479361 0.161270
N1    N     N_R   0.500030 0.298780 0.500030 -0.302291
N2    N     N_R   0.500020 0.701210 0.500010 -0.320103
O1    O     O_R   0.500010 0.432060 0.608760 -0.411951
O2    O     O_3   0.437854 0.372132 0.725734 -0.489570
O3    O     O_3   0.422316 0.312611 0.376179 -0.505212
O4    O     O_3   0.820320 0.724942 0.512847 -0.528759
O5    O     O_3   0.589844 0.345850 0.117716 -0.549493
O6    O     O_R   0.500000 0.567880 0.608730 -0.395064
O7    O     O_R   0.650990 0.398950 0.500000 -0.482826
O8    O     O_R   0.650980 0.534770 0.499970 -0.513673
O9    O     O_R   0.500000 0.432120 0.391270 -0.414699
O10   O     O_R   0.499990 0.567940 0.391240 -0.538421
O11   O     O_R   0.349020 0.465230 0.500030 -0.541651
O12   O     O_R   0.349010 0.601050 0.500000 -0.510747
O13   O     O_3   0.608986 0.350715 0.272766 -0.520180

loop_
_geom_bond_atom_site_label_1
_geom_bond_atom_site_label_2
_ccdc_geom_bond_type
C40   C41   S    
C41   C42   S    
C44   H13   S    
C7    C8    A    
C53   C54   S    
C27   C33   S    
C12   C23   A    
C52   H32   S    
C26   C27   T    
C29   C30   A    
C4    O8    A    
C18   C19   A    
C21   O3    S    
C36   C58   A    
C53   O5    S    
C38   C39   A    
C20   C25   A    
C29   C33   A    
C56   C57   A    
C4    O7    A    
C35   C59   A    
C28   O12   A    
Cu1   O7    S    
C31   N2    A    
C29   F6    S    
C47   C48   S    
C45   C56   A    
C8    C9    A    
C48   H21   S    
C58   H43   S    
Cu1   O1    S    
C1    C15   S    
C49   H24   S    
C9    C10   S    
C3    O5    S    
C24   F5    S    
C46   H15   S    
C36   C59   A    
C51   H28   S    
C22   N1    A    
C42   H9    S    
C48   H20   S    
C13   C14   A    
C55   H39   S    
C47   H19   S    
C50   O4    S    
C21   N1    A    
C44   C46   S    
C50   C51   S    
C51   H29   S    
C31   F7    S    
C52   H31   S    
C43   O2    S    
C54   H36   S    
Cu2   N2    S    
C51   C52   S    
Cu1   O11   S    
C24   C25   A    
C13   C19   A    
C37   H44   S    
C3    C5    A    
C43   H10   S    
C52   H30   S    
C32   C33   A    
C13   H23   S    
Cu1   Cu2   S    
C20   F3    S    
C2    C4    S    
C43   C44   S    
C1    O6    A    
C22   F4    S    
C37   C38   A    
C3    C9    A    
C41   H5    S    
C31   C32   A    
C11   C19   S    
C17   C18   A    
Cu2   O10   S    
C34   C45   A    
C18   H34   S    
C49   H25   S    
C32   F8    S    
C54   H37   S    
C48   C49   S    
C42   H8    S    
C55   H40   S    
C43   H11   S    
C22   C24   A    
Cu1   N1    S    
C49   H22   S    
C12   C34   A    
C35   C45   A    
C46   H17   S    
C23   C57   A    
C40   O13   S    
C54   C55   S    
C5    O13   S    
C50   H27   S    
C44   H14   S    
C15   C17   A    
C6    C7    A    
C30   N2    A    
Cu2   O12   S    
C30   H41   S    
C55   H38   S    
Cu2   O6    S    
C47   H18   S    
C12   C39   A    
Cu1   O9    S    
C25   C26   S    
C56   O4    S    
C41   H6    S    
C38   H45   S    
C2    C37   A    
C50   H26   S    
C5    C6    A    
C53   H33   S    
C39   F9    S    
C40   H4    S    
C1    O1    A    
C57   H2    S    
C16   O10   A    
C10   C11   T    
C6    C16   S    
C53   H35   S    
C7    H12   S    
C20   C21   A    
C28   C36   S    
C42   H7    S    
C14   O2    S    
C8    F1    S    
C2    C23   A    
C34   C58   A    
C47   O3    S    
C14   C15   A    
Cu2   O8    S    
C40   H3    S    
C16   O9    A    
C17   F2    S    
C35   H42   S    
C28   O11   A    
C59   H1    S    
C46   H16   S    
