data_mof_unit_23819.cif
_audit_creation_date              2012-12-10T21:26:06-0500
_audit_creation_method            fapswitch 2.2
_symmetry_space_group_name_H-M    P1
_symmetry_Int_Tables_number       1
_space_group_crystal_system       triclinic
_cell_length_a                    8.592119
_cell_length_b                    16.119391
_cell_length_c                    16.714529
_cell_angle_alpha                 87.663492
_cell_angle_beta                  90.839705
_cell_angle_gamma                 101.051522
_cell_volume                      2270.08312627

loop_
_atom_site_label
_atom_site_type_symbol
_atom_type_description
_atom_site_fract_x
_atom_site_fract_y
_atom_site_fract_z
_atom_type_partial_charge
C1    C     C_R   0.503642 0.489166 0.653235 0.878699
C2    C     C_R   0.362618 0.147889 0.434937 -0.115372
C3    C     C_R   0.625755 0.763935 0.559877 -0.095203
C4    C     C_R   0.374288 0.236069 0.440100 -0.095257
C5    C     C_R   0.800927 0.521927 0.501001 0.975102
C6    C     C_R   0.199073 0.478073 0.499000 0.975149
C7    C     C_2   0.966830 0.533867 0.501492 -0.382914
C8    C     C_2   0.033170 0.466132 0.498510 -0.382921
C9    C     C_R   0.524423 0.483912 0.739462 -0.049610
C10   C     C_R   0.476597 0.516137 0.260485 -0.049720
C11   C     C_R   0.592342 0.557094 0.779329 -0.257923
C12   C     C_R   0.496470 0.510841 0.346760 0.878747
C13   C     C_R   0.409661 0.442908 0.220453 -0.257971
C14   C     C_R   0.609303 0.554156 0.861956 0.015105
C15   C     C_R   0.393957 0.445836 0.137773 0.015120
C16   C     C_R   0.554442 0.477399 0.905059 0.273256
C17   C     C_R   0.449126 0.522633 0.094786 0.273374
C18   C     C_R   0.497112 0.403339 0.864874 -0.180269
C19   C     C_R   0.505518 0.596725 0.135088 -0.180373
C20   C     C_R   0.481794 0.406423 0.782068 -0.216124
C21   C     C_R   0.519552 0.593654 0.217952 -0.216083
C22   C     C_1   0.322873 0.369764 0.097983 0.181604
C23   C     C_R   0.420518 0.756804 0.463265 -0.012165
C24   C     C_1   0.681053 0.630211 0.901613 0.181582
C25   C     C_2   0.757394 0.897113 0.621067 0.418458
C26   C     C_2   0.242704 0.102897 0.378882 0.418451
C27   C     C_R   0.579443 0.243192 0.536758 -0.012136
C28   C     C_R   0.426464 0.844258 0.465938 -0.295003
C29   C     C_R   0.573499 0.155738 0.534084 -0.294996
C30   C     C_R   0.535785 0.893949 0.517164 0.323074
C31   C     C_R   0.464223 0.106051 0.482835 0.323078
C32   C     C_R   0.637430 0.852116 0.565039 -0.115380
H1    H     H_    0.033945 0.598211 0.504269 0.181120
H2    H     H_    0.336617 0.719470 0.423732 0.140992
H3    H     H_    0.654054 0.127616 0.572047 0.205996
H4    H     H_    0.345875 0.872376 0.427994 0.205997
H5    H     H_    0.702478 0.731269 0.596042 0.125631
H6    H     H_    0.297595 0.268739 0.403918 0.125677
H7    H     H_    0.831372 0.861703 0.656391 0.057969
H8    H     H_    0.168762 0.138311 0.343538 0.057960
H9    H     H_    0.966055 0.401789 0.495733 0.181134
H10   H     H_    0.370033 0.383435 0.253494 0.160062
H11   H     H_    0.631751 0.616538 0.746203 0.159942
H12   H     H_    0.456814 0.344221 0.898169 0.165155
H13   H     H_    0.545923 0.655883 0.101879 0.165059
H14   H     H_    0.432137 0.349102 0.751744 0.170993
H15   H     H_    0.568486 0.651013 0.248391 0.171053
H16   H     H_    0.663309 0.280523 0.576309 0.141002
N1    N     N_2   0.542622 0.474681 0.988662 -0.184164
N2    N     N_2   0.461393 0.525461 0.011201 -0.184135
N3    N     N_R   0.519180 0.718290 0.509780 -0.082374
N4    N     N_R   0.480820 0.281710 0.490220 -0.082375
N5    N     N_2   0.546790 0.983974 0.522089 -0.120697
N6    N     N_2   0.453219 0.016027 0.477910 -0.120697
N7    N     N_1   0.265925 0.308823 0.066095 -0.194779
N8    N     N_1   0.738512 0.691142 0.933397 -0.194561
O1    O     O_R   0.493140 0.422050 0.612640 -0.622064
O2    O     O_2   0.224079 0.026656 0.371130 -0.553314
O3    O     O_R   0.506860 0.577950 0.387360 -0.622090
O4    O     O_R   0.505450 0.562230 0.618920 -0.620227
O5    O     O_R   0.494550 0.437770 0.381080 -0.620272
O6    O     O_R   0.723530 0.446300 0.497600 -0.616019
O7    O     O_R   0.276470 0.553700 0.502400 -0.616014
O8    O     O_R   0.735850 0.586490 0.503880 -0.625285
O9    O     O_R   0.264150 0.413510 0.496120 -0.625232
O10   O     O_2   0.776021 0.973354 0.628819 -0.553308
Zn1   Zn    Zn3+2 0.491780 0.406400 0.495810 0.950255
Zn2   Zn    Zn3+2 0.508220 0.593600 0.504190 0.950234

loop_
_geom_bond_atom_site_label_1
_geom_bond_atom_site_label_2
_ccdc_geom_bond_type
C27   H16   S    
C6    O7    A    
C17   N2    S    
C2    C4    A    
C19   H13   S    
C11   H11   S    
C22   N7    T    
C6    O9    A    
C18   H12   S    
O3    Zn2   S    
C27   C29   A    
C9    C11   A    
C29   H3    S    
C9    C20   A    
C23   N3    A    
C23   H2    S    
C25   C32   S    
C28   C30   A    
C3    H5    S    
C7    C8    D    
C29   C31   A    
N5    N6    D    
C27   N4    A    
C30   C32   A    
C12   O5    A    
C26   O2    D    
C26   H8    S    
N4    Zn1   S    
C10   C12   S    
O6    Zn1   S    
O1    Zn1   S    
C6    C8    S    
C15   C17   A    
O8    Zn2   S    
C13   H10   S    
C17   C19   A    
C4    N4    A    
C5    O6    A    
C18   C20   A    
N3    Zn2   S    
C13   C15   A    
C31   N6    S    
C3    C32   A    
C30   N5    S    
C14   C16   A    
C24   N8    T    
C7    H1    S    
C16   N1    S    
C20   H14   S    
C28   H4    S    
C1    C9    S    
C8    H9    S    
O4    Zn2   S    
C16   C18   A    
N1    N2    D    
C1    O4    A    
C14   C24   S    
C11   C14   A    
C5    C7    S    
C21   H15   S    
O5    Zn1   S    
O7    Zn2   S    
C2    C31   A    
C3    N3    A    
C19   C21   A    
C23   C28   A    
C12   O3    A    
C10   C21   A    
C15   C22   S    
C25   H7    S    
C25   O10   D    
C5    O8    A    
C4    H6    S    
C2    C26   S    
O9    Zn1   S    
C10   C13   A    
C1    O1    A    
