data_mof_unit_56131.cif
_audit_creation_date              2013-03-05T16:31:38-0500
_audit_creation_method            fapswitch 2.2
_symmetry_space_group_name_H-M    P1
_symmetry_Int_Tables_number       1
_space_group_crystal_system       triclinic
_cell_length_a                    9.544126
_cell_length_b                    10.869288
_cell_length_c                    15.595092
_cell_angle_alpha                 89.681491
_cell_angle_beta                  73.995415
_cell_angle_gamma                 90.412912
_cell_volume                      1555.00650683

loop_
_atom_site_label
_atom_site_type_symbol
_atom_site_description
_atom_site_fract_x
_atom_site_fract_y
_atom_site_fract_z
_atom_type_partial_charge
O1    O     O_R   0.118810 0.319640 0.500000 -0.584966
O2    O     O_R   0.881230 0.319680 0.499990 -0.598174
C1    C     C_R   0.998817 0.262803 0.501292 0.803015
O3    O     O_R   0.055580 0.499970 0.629840 -0.583029
O4    O     O_R   0.818000 0.500010 0.629830 -0.534601
C2    C     C_R   0.917499 0.494450 0.671986 0.823788
Cu1   Cu    Cu3+1 0.140670 0.499980 0.500000 0.995146
Cu2   Cu    Cu3+1 0.859330 0.500020 0.500000 0.991016
O5    O     O_R   0.118770 0.680320 0.500010 -0.546181
O6    O     O_R   0.881190 0.680360 0.500000 -0.586158
O7    O     O_R   0.182000 0.499990 0.370170 -0.592120
O8    O     O_R   0.944420 0.500030 0.370160 -0.582463
C3    C     C_R   0.000211 0.737402 0.499990 0.831648
C4    C     C_R   0.082325 0.500860 0.328151 0.813140
C5    C     C_R   0.871039 0.481415 0.769963 -0.138956
C6    C     C_R   0.129504 0.509704 0.230592 -0.041020
C7    C     C_R   0.928967 0.455721 0.910850 -0.140340
C8    C     C_R   0.973917 0.477542 0.819023 -0.254231
C9    C     C_R   0.722174 0.468197 0.815302 0.401018
C10   C     C_R   0.676350 0.474909 0.909114 -0.055473
C11   C     C_R   0.779445 0.449656 0.956638 -0.025336
C12   C     C_R   0.529770 0.500162 0.955747 0.073103
C13   C     C_R   0.479671 0.475396 0.048555 0.002100
C14   C     C_R   0.581288 0.431106 0.092423 -0.267596
C15   C     C_R   0.729812 0.418735 0.047974 0.330344
C16   C     C_R   0.435735 0.558486 0.912595 -0.126495
C17   C     C_R   0.292276 0.583095 0.957347 -0.260776
C18   C     C_R   0.238454 0.553974 0.047404 0.148874
C19   C     C_R   0.330640 0.498908 0.094171 0.123937
C20   C     C_R   0.094271 0.584162 0.092005 -0.151100
C21   C     C_R   0.040971 0.564017 0.183335 -0.092556
C22   C     C_R   0.270793 0.473391 0.185536 -0.220968
H1    H     H_    0.331573 0.426295 0.224074 0.140193
H2    H     H_    0.932341 0.594331 0.217196 0.153844
H3    H     H_    0.223984 0.628035 0.921613 0.165239
H4    H     H_    0.011987 0.447602 0.945645 0.189832
H5    H     H_    0.089457 0.485542 0.786037 0.186440
H6    H     H_    0.549207 0.406179 0.161907 0.178665
H7    H     H_    0.473359 0.591366 0.844538 0.210882
H8    H     H_    0.024179 0.627339 0.056723 0.138894
C23   C     C_R   0.114900 0.063662 0.510757 0.023870
C24   C     C_R   0.995635 0.130373 0.503329 -0.065099
C25   C     C_R   0.871690 0.063819 0.496508 -0.180904
H9    H     H_    0.774670 0.110730 0.491157 0.181109
C26   C     C_R   0.872857 0.934728 0.495605 -0.154138
H10   H     H_    0.776235 0.886236 0.490086 0.210230
C27   C     C_R   0.998294 0.870190 0.500892 -0.104866
C28   C     C_R   0.117175 0.939536 0.508115 0.048303
C29   C     C_3   0.271164 0.935405 0.514110 0.580932
C30   C     C_3   0.266522 0.077245 0.518541 -0.532131
H11   H     H_    0.268916 0.116115 0.583909 0.198960
H12   H     H_    0.339389 0.124563 0.459311 0.216519
C31   C     C_R   0.598205 0.581732 0.447735 0.313372
N1    N     N_R   0.648210 0.500930 0.499430 -0.203138
C32   C     C_R   0.548673 0.424997 0.555487 -0.026362
H13   H     H_    0.584803 0.361531 0.598128 0.155176
C33   C     C_R   0.399637 0.425626 0.556053 -0.072348
H14   H     H_    0.323269 0.363565 0.600070 0.132820
N2    N     N_R   0.352300 0.500890 0.499430 -0.201158
C34   C     C_R   0.450962 0.580174 0.446582 0.384866
C35   C     C_3   0.493446 0.582578 0.347030 -0.481676
C36   C     C_3   0.650655 0.588870 0.348773 -0.519095
H15   H     H_    0.466912 0.494847 0.318741 0.200048
H16   H     H_    0.457692 0.666364 0.318628 0.266385
H17   H     H_    0.712827 0.506387 0.319485 0.256883
H18   H     H_    0.704305 0.678682 0.325157 0.224502
N3    N     N_R   0.825322 0.364829 0.094852 0.118620
O9    O     O_R   0.795937 0.374754 0.181059 -0.395605
O10   O     O_R   0.922691 0.285273 0.055202 -0.347165
N4    N     N_R   0.284085 0.874984 0.596036 0.109392
O11   O     O_R   0.379889 0.789287 0.592651 -0.343307
O12   O     O_R   0.196340 0.903774 0.673053 -0.379256
N5    N     N_R   0.375950 0.891301 0.432779 0.109782
O13   O     O_R   0.333643 0.865925 0.362271 -0.396309
O14   O     O_R   0.514891 0.898636 0.425488 -0.371383
O15   O     O_3   0.623071 0.434815 0.769039 -0.587337
C37   C     C_3   0.597310 0.305956 0.777252 0.057583
H19   H     H_    0.630391 0.261134 0.833253 0.149194
H20   H     H_    0.659715 0.261315 0.714577 0.151340
C38   C     C_3   0.435449 0.279702 0.791797 -0.764636
H21   H     H_    0.395310 0.326026 0.739758 0.232401
H22   H     H_    0.416688 0.179049 0.788992 0.227004
H23   H     H_    0.372712 0.313629 0.858204 0.258045

loop_
_geom_bond_atom_site_label_1
_geom_bond_atom_site_label_2
_geom_bond_distance
_ccdc_geom_bond_type
C5    C8    1.402039 A    
C32   H13   1.077842 S    
C1    C24   1.439515 S    
C23   C24   1.385113 A    
C9    C10   1.409184 A    
C15   N3    1.441903 S    
Cu1   Cu2   2.685147 S    
C31   N1    1.363589 A    
C6    C21   1.396914 A    
Cu1   O7    1.953112 S    
C16   C17   1.383377 A    
C13   C19   1.429616 A    
C9    O15   1.386027 S    
C8    H5    1.083285 S    
C19   C22   1.406387 A    
C38   H23   1.110181 S    
O4    C2    1.297040 A    
O7    C4    1.295496 A    
C16   H7    1.080237 S    
C33   N2    1.367625 A    
N5    O13   1.301852 A    
C35   H15   1.109452 S    
O5    C3    1.294464 A    
C2    C5    1.474600 S    
C30   H12   1.112075 S    
C13   C14   1.417492 A    
N4    O11   1.301036 A    
C7    H4    1.080560 S    
C37   H20   1.110829 S    
N2    C34   1.364195 A    
N5    O14   1.301135 A    
O3    Cu1   1.962862 S    
Cu1   N2    2.017344 S    
C31   C34   1.410353 A    
C30   H11   1.111640 S    
C26   C27   1.413511 A    
C36   H18   1.111569 S    
N3    O9    1.300711 A    
O15   C37   1.419241 S    
C38   H22   1.110359 S    
Cu2   N1    2.017521 S    
C3    C27   1.443655 S    
C17   H3    1.084360 S    
C37   H19   1.117718 S    
C7    C11   1.409595 A    
C34   C35   1.492557 S    
N3    O10   1.301672 A    
C35   H16   1.106939 S    
C5    C9    1.407546 A    
C25   H9    1.083191 S    
C31   C36   1.486789 S    
C14   H6    1.074222 S    
C27   C28   1.388261 A    
Cu2   O8    1.962862 S    
C7    C8    1.395366 A    
C21   H2    1.080408 S    
C20   H8    1.084046 S    
C14   C15   1.403541 A    
C25   C26   1.403359 A    
O3    C2    1.301211 A    
C28   C29   1.499133 S    
C10   C12   1.417071 A    
C29   N4    1.468884 S    
C32   C33   1.420071 A    
C29   N5    1.467286 S    
C24   C25   1.411347 A    
C23   C30   1.491517 S    
C37   C38   1.522839 S    
Cu1   O5    1.972773 S    
C11   C15   1.409463 A    
N1    C32   1.367716 A    
C18   C19   1.421571 A    
C36   H17   1.107818 S    
O1    Cu1   1.969744 S    
O2    Cu2   1.972772 S    
O8    C4    1.298420 A    
C38   H21   1.108408 S    
O6    C3    1.290178 A    
O4    Cu2   1.953109 S    
C6    C22   1.398630 A    
C22   H1    1.073699 S    
C18   C20   1.402267 A    
O2    C1    1.290156 A    
C33   H14   1.081373 S    
C20   C21   1.389500 A    
C23   C28   1.350173 A    
C4    C6    1.465182 S    
C35   C36   1.509209 S    
C26   H10   1.083002 S    
C10   C11   1.412980 A    
Cu2   O6    1.969744 S    
C29   C30   1.544036 S    
C12   C16   1.413059 A    
C17   C18   1.389760 A    
C12   C13   1.417079 A    
N4    O12   1.301981 A    
O1    C1    1.292492 A    
