data_mof_unit_56660.cif
_audit_creation_date              2012-12-10T18:55:21-0500
_audit_creation_method            fapswitch 2.2
_symmetry_space_group_name_H-M    P1
_symmetry_Int_Tables_number       1
_space_group_crystal_system       triclinic
_cell_length_a                    10.705952
_cell_length_b                    9.917536
_cell_length_c                    27.580117
_cell_angle_alpha                 89.703938
_cell_angle_beta                  90.675097
_cell_angle_gamma                 89.997373
_cell_volume                      2928.12244591

loop_
_atom_site_label
_atom_site_type_symbol
_atom_type_description
_atom_site_fract_x
_atom_site_fract_y
_atom_site_fract_z
_atom_type_partial_charge
C1    C     C_R   0.260115 0.500069 0.500352 0.840157
C2    C     C_R   0.381535 0.416887 0.871725 -0.001739
C3    C     C_R   0.480635 0.499672 0.353931 -0.035967
C4    C     C_R   0.495911 0.494731 0.646117 -0.029873
C5    C     C_R   0.363569 0.434495 0.973579 0.085588
C6    C     C_R   0.553464 0.569620 0.026969 0.085671
C7    C     C_R   0.568087 0.551358 0.976386 -0.051499
C8    C     C_R   0.349787 0.451385 0.024393 -0.050705
C9    C     C_R   0.468996 0.490315 0.949714 0.001036
C10   C     C_R   0.449290 0.511982 0.050950 0.000446
C11   C     C_R   0.280081 0.354608 0.945979 -0.151237
C12   C     C_R   0.739849 0.500114 0.499981 0.841313
C13   C     C_R   0.635885 0.651265 0.054318 -0.146987
C14   C     C_R   0.285860 0.350334 0.895879 -0.176553
C15   C     C_R   0.632496 0.652857 0.104444 -0.174202
C16   C     C_R   0.496944 0.500050 0.406218 0.853002
C17   C     C_R   0.499139 0.499171 0.593720 0.858892
C18   C     C_R   0.238237 0.415181 0.049456 0.440847
C19   C     C_R   0.680964 0.585397 0.951900 0.439276
C20   C     C_R   0.063532 0.379106 0.494319 -0.194497
C21   C     C_R   0.936148 0.621837 0.507614 -0.184377
C22   C     C_R   0.935882 0.379426 0.493239 -0.218810
C23   C     C_R   0.444012 0.517834 0.102098 -0.059279
C24   C     C_R   0.064132 0.621831 0.507762 -0.196102
C25   C     C_R   0.872391 0.500540 0.500194 -0.009725
C26   C     C_R   0.127508 0.500344 0.500933 -0.005677
C27   C     C_R   0.552834 0.071765 0.537568 0.313353
C28   C     C_R   0.461588 0.929876 0.459852 0.300706
C29   C     C_R   0.449666 0.073367 0.461977 0.323776
C30   C     C_R   0.542451 0.928155 0.539647 0.318956
C31   C     C_R   0.344801 0.457799 0.177588 0.531589
C32   C     C_R   0.582197 0.532374 0.823664 0.528727
C33   C     C_R   0.538439 0.576627 0.179331 0.504836
C34   C     C_R   0.476706 0.481216 0.898656 -0.058813
C35   C     C_R   0.387351 0.416004 0.821096 0.504574
C36   C     C_R   0.522482 0.401890 0.275878 -0.122179
C37   C     C_R   0.401272 0.560667 0.721248 -0.106888
C38   C     C_R   0.537862 0.400158 0.325999 -0.200532
C39   C     C_R   0.405169 0.567630 0.670954 -0.244610
C40   C     C_R   0.402729 0.596033 0.331877 -0.234832
C41   C     C_R   0.579900 0.411166 0.671398 -0.205190
C42   C     C_R   0.387242 0.597594 0.281833 -0.113449
C43   C     C_R   0.575848 0.404080 0.721651 -0.102277
C44   C     C_R   0.448554 0.501732 0.253862 0.328601
C45   C     C_R   0.342640 0.461152 0.126755 -0.071414
C46   C     C_R   0.487120 0.479585 0.746613 0.310284
C47   C     C_3   0.742210 0.147139 0.566413 0.196154
C48   C     C_3   0.814438 0.069872 0.605460 -0.877444
C49   C     C_3   0.533767 0.893516 0.382891 0.178993
C50   C     C_3   0.478555 0.949880 0.335704 -0.836632
C51   C     C_3   0.270553 0.117609 0.418868 0.130530
C52   C     C_3   0.209920 0.226621 0.387501 -0.801555
C53   C     C_3   0.510743 0.884301 0.620109 0.149793
C54   C     C_3   0.579803 0.843656 0.666503 -0.769484
C55   C     C_3   0.046203 0.303286 0.042162 0.070469
C56   C     C_R   0.580383 0.534231 0.874404 -0.069780
C57   C     C_3   0.952726 0.261920 0.002962 -0.786664
C58   C     C_3   0.872860 0.697236 0.959843 0.070856
C59   C     C_3   0.964501 0.740363 0.999441 -0.784920
C60   C     C_R   0.239170 0.415340 0.100524 -0.266258
C61   C     C_R   0.682700 0.581347 0.900975 -0.265967
C62   C     C_R   0.539929 0.581755 0.128752 -0.002483
H1    H     H_    0.353354 0.669097 0.353466 0.189284
H2    H     H_    0.569837 0.327772 0.254019 0.135789
H3    H     H_    0.216642 0.291678 0.876262 0.189345
H4    H     H_    0.701543 0.711929 0.123987 0.188375
H5    H     H_    0.212494 0.289057 0.962317 0.190073
H6    H     H_    0.701310 0.718949 0.037679 0.186742
H7    H     H_    0.111500 0.284433 0.489602 0.153478
H8    H     H_    0.887654 0.716238 0.513345 0.162024
H9    H     H_    0.887503 0.285275 0.486791 0.139639
H10   H     H_    0.112926 0.716283 0.513402 0.152136
H11   H     H_    0.770970 0.254167 0.569484 0.166311
H12   H     H_    0.649047 0.352779 0.652262 0.165215
H13   H     H_    0.771616 0.110939 0.529973 0.089933
H14   H     H_    0.799154 0.959920 0.601629 0.288141
H15   H     H_    0.915920 0.090051 0.601736 0.208797
H16   H     H_    0.784797 0.102964 0.641968 0.257187
H17   H     H_    0.582656 0.798122 0.374296 0.169317
H18   H     H_    0.607563 0.964521 0.396153 0.098608
H19   H     H_    0.450042 0.056425 0.340235 0.276579
H20   H     H_    0.549818 0.946060 0.306811 0.221278
H21   H     H_    0.396020 0.890440 0.323933 0.249767
H22   H     H_    0.223541 0.115785 0.454677 0.100994
H23   H     H_    0.329681 0.674362 0.264682 0.137281
H24   H     H_    0.255165 0.019064 0.400789 0.179777
H25   H     H_    0.251487 0.226600 0.350786 0.262538
H26   H     H_    0.107997 0.207558 0.384111 0.202689
H27   H     H_    0.224810 0.327189 0.404101 0.259014
H28   H     H_    0.423588 0.824393 0.616647 0.130256
H29   H     H_    0.482972 0.991726 0.624033 0.160939
H30   H     H_    0.656963 0.915382 0.674059 0.246712
H31   H     H_    0.514622 0.845114 0.697516 0.211202
H32   H     H_    0.619854 0.741064 0.663015 0.272309
H33   H     H_    0.991875 0.343238 0.073034 0.171447
H34   H     H_    0.641644 0.340604 0.741268 0.144544
H35   H     H_    0.099407 0.211689 0.053722 0.132842
H36   H     H_    0.001743 0.216320 0.971835 0.231665
H37   H     H_    0.886558 0.186540 0.017864 0.204452
H38   H     H_    0.899053 0.351148 0.990063 0.302616
H39   H     H_    0.820344 0.788321 0.947300 0.132499
H40   H     H_    0.928655 0.655665 0.929653 0.171166
H41   H     H_    0.017447 0.651675 0.013278 0.302007
H42   H     H_    0.031476 0.814937 0.984565 0.204374
H43   H     H_    0.914024 0.787497 0.029911 0.231510
H44   H     H_    0.156516 0.386623 0.120162 0.183621
H45   H     H_    0.766812 0.607538 0.881823 0.184446
H46   H     H_    0.337079 0.628495 0.651475 0.137873
H47   H     H_    0.596308 0.323513 0.342816 0.158529
H48   H     H_    0.332216 0.618508 0.740585 0.143816
N1    N     N_R   0.443572 0.511869 0.202424 -0.358148
N2    N     N_R   0.485435 0.475864 0.798268 -0.356572
N3    N     N_R   0.500000 0.857200 0.500000 -0.193681
N4    N     N_R   0.500000 0.142800 0.500000 -0.196342
O1    O     O_R   0.316770 0.614620 0.500000 -0.620047
O2    O     O_2   0.678987 0.587951 0.799795 -0.567900
O3    O     O_2   0.296158 0.355806 0.794824 -0.561407
O4    O     O_2   0.631211 0.634917 0.205355 -0.562644
O5    O     O_3   0.612048 0.140171 0.574858 -0.583487
O6    O     O_3   0.437385 0.864744 0.416580 -0.592781
O7    O     O_3   0.399526 0.145279 0.423434 -0.559595
O8    O     O_3   0.588172 0.859512 0.579773 -0.562532
O9    O     O_3   0.125600 0.405062 0.023722 -0.625052
O10   O     O_3   0.792432 0.596526 0.978356 -0.624253
O11   O     O_R   0.683230 0.385380 0.500000 -0.642129
O12   O     O_R   0.683230 0.614620 0.500000 -0.604169
O13   O     O_R   0.316770 0.385380 0.500000 -0.613532
O14   O     O_R   0.500030 0.614650 0.428760 -0.583471
O15   O     O_R   0.499970 0.385350 0.571240 -0.570823
O16   O     O_R   0.499970 0.614650 0.571240 -0.577906
O17   O     O_R   0.500030 0.385350 0.428760 -0.555247
O18   O     O_2   0.250071 0.400126 0.202014 -0.563801
Zn1   Zn    Zn3+2 0.500000 0.653120 0.500000 0.997691
Zn2   Zn    Zn3+2 0.500000 0.346880 0.500000 0.998865

loop_
_geom_bond_atom_site_label_1
_geom_bond_atom_site_label_2
_ccdc_geom_bond_type
O11   Zn2   S    
C2    C35   A    
C29   N4    A    
C45   C60   A    
C34   C56   A    
C23   C45   A    
C46   N2    S    
C48   H14   S    
O13   Zn2   S    
O17   Zn2   S    
C53   C54   S    
C5    C9    A    
C24   H10   S    
C59   H43   S    
C40   H1    S    
C59   H42   S    
C28   C29   A    
C24   C26   A    
C5    C11   A    
C53   O8    S    
C11   C14   A    
C49   O6    S    
C12   O12   A    
C4    C41   A    
C57   H37   S    
C48   H16   S    
C16   O17   A    
C54   H31   S    
C41   H12   S    
C14   H3    S    
C23   C62   A    
C30   O8    S    
C3    C38   A    
C33   C62   A    
C22   C25   A    
C29   O7    S    
C53   H29   S    
C58   H40   S    
C18   O9    S    
C2    C34   A    
C40   C42   A    
C33   O4    S    
N3    Zn1   S    
C27   C30   A    
C41   C43   A    
C52   H27   S    
C42   C44   A    
C2    C14   A    
C51   H24   S    
C11   H5    S    
C50   H21   S    
C39   H46   S    
C55   O9    S    
C19   O10   S    
C17   O15   A    
C51   C52   S    
C52   H26   S    
C47   H11   S    
C55   H33   S    
C28   O6    S    
C58   H39   S    
C12   O11   A    
O1    Zn1   S    
C58   C59   S    
C15   H4    S    
C8    C18   A    
C49   H17   S    
C48   H15   S    
C44   N1    S    
C54   H30   S    
C31   O18   S    
C47   C48   S    
C4    C39   A    
C55   H35   S    
C43   H34   S    
N4    Zn2   S    
C42   H23   S    
C32   O2    S    
C38   H47   S    
C16   O14   A    
C37   H48   S    
C33   N1    A    
C4    C17   S    
C18   C60   A    
C20   C22   A    
C3    C40   A    
C7    C19   A    
C55   C57   S    
C13   C15   A    
C9    C34   A    
C51   O7    S    
C20   H7    S    
C36   C44   A    
O16   Zn1   S    
C22   H9    S    
C60   H44   S    
C50   H20   S    
C7    C9    A    
C21   C25   A    
C13   H6    S    
C32   N2    A    
C17   O16   A    
C52   H25   S    
C1    O13   A    
C6    C10   A    
C5    C8    A    
C6    C7    A    
C27   O5    S    
C10   C23   A    
C21   H8    S    
C58   O10   S    
C49   H18   S    
C12   C25   S    
C59   H41   S    
C36   C38   A    
C47   H13   S    
C37   C39   A    
C36   H2    S    
O14   Zn1   S    
C6    C13   A    
C57   H38   S    
C1    C26   S    
C20   C26   A    
C19   C61   A    
C57   H36   S    
C47   O5    S    
C15   C62   A    
C61   H45   S    
C43   C46   A    
C54   H32   S    
C35   O3    S    
C28   N3    A    
C35   N2    A    
O15   Zn2   S    
C27   N4    A    
C8    C10   A    
C49   C50   S    
C31   C45   A    
C21   C24   A    
C53   H28   S    
C31   N1    A    
C56   C61   A    
C1    O1    A    
C37   C46   A    
O12   Zn1   S    
C51   H22   S    
C32   C56   A    
C3    C16   S    
C50   H19   S    
C30   N3    A    
