data_mof_unit_52327.cif
_audit_creation_date              2012-12-10T17:51:31-0500
_audit_creation_method            fapswitch 2.2
_symmetry_space_group_name_H-M    P1
_symmetry_Int_Tables_number       1
_space_group_crystal_system       triclinic
_cell_length_a                    9.973454
_cell_length_b                    10.703457
_cell_length_c                    16.663358
_cell_angle_alpha                 95.024268
_cell_angle_beta                  84.889143
_cell_angle_gamma                 89.877648
_cell_volume                      1764.85238181

loop_
_atom_site_label
_atom_site_type_symbol
_atom_type_description
_atom_site_fract_x
_atom_site_fract_y
_atom_site_fract_z
_atom_type_partial_charge
C1    C     C_R   0.499965 0.738607 0.492909 0.864081
C2    C     C_R   0.535114 0.472397 0.259939 -0.038656
C3    C     C_R   0.250460 0.883302 0.465882 -0.185116
C4    C     C_R   0.480938 0.491208 0.652650 0.847784
C5    C     C_R   0.127575 0.943495 0.490057 -0.170424
C6    C     C_R   0.124690 0.059915 0.535283 0.220919
C7    C     C_R   0.246120 0.120106 0.548276 -0.063036
C8    C     C_R   0.371122 0.063795 0.517282 0.078638
C9    C     C_R   0.372865 0.937707 0.488040 0.082445
C10   C     C_R   0.496951 0.871282 0.484817 -0.110494
C11   C     C_R   0.618383 0.935097 0.489031 -0.204267
C12   C     C_R   0.346930 0.437154 0.781032 0.097164
C13   C     C_R   0.617554 0.063187 0.499744 -0.202211
C14   C     C_R   0.495059 0.128392 0.512969 -0.111222
C15   C     C_R   0.834375 0.663203 0.607623 -0.235737
C16   C     C_R   0.498572 0.261241 0.506407 0.887677
C17   C     C_R   0.883079 0.746240 0.664545 -0.301888
C18   C     C_R   0.018725 0.753898 0.671146 0.438253
C19   C     C_R   0.109447 0.675451 0.618077 -0.003986
C20   C     C_R   0.061332 0.583223 0.557025 0.027016
C21   C     C_R   0.917067 0.581055 0.554716 0.118563
C22   C     C_R   0.934566 0.424501 0.447121 -0.203810
C23   C     C_R   0.470998 0.501707 0.126156 0.099436
C24   C     C_R   0.076868 0.424904 0.444623 0.444315
C25   C     C_R   0.519475 0.497902 0.346944 0.908641
C26   C     C_R   0.470956 0.445914 0.733596 -0.042322
C27   C     C_R   0.587774 0.394431 0.759498 -0.228755
C28   C     C_R   0.583954 0.342664 0.832752 -0.141514
C29   C     C_R   0.464463 0.346665 0.883784 0.173248
C30   C     C_R   0.345308 0.388698 0.856346 -0.176642
C31   C     C_R   0.460128 0.538132 0.209738 0.079793
C32   C     C_R   0.624294 0.375915 0.227514 -0.236514
C33   C     C_R   0.635877 0.340779 0.145372 -0.192994
C34   C     C_R   0.557120 0.400584 0.095172 0.151724
C35   C     C_2   0.465369 0.328992 0.969863 -0.170598
C36   C     C_2   0.572872 0.362312 0.009059 -0.196451
H1    H     H_    0.683171 0.392657 0.722811 0.181058
H2    H     H_    0.812480 0.806140 0.703488 0.225991
H3    H     H_    0.682856 0.325570 0.266269 0.177542
H4    H     H_    0.670043 0.379941 0.977734 0.151734
H5    H     H_    0.251845 0.389650 0.894990 0.134301
H6    H     H_    0.369523 0.316139 0.004653 0.168265
H7    H     H_    0.676123 0.304057 0.850457 0.142763
H8    H     H_    0.919793 0.058412 0.557843 0.180080
H9    H     H_    0.985914 0.196774 0.535493 0.175520
H10   H     H_    0.280055 0.630097 0.228258 0.230165
H11   H     H_    0.415917 0.723907 0.218188 0.172819
H12   H     H_    0.704369 0.265283 0.121069 0.166352
H13   H     H_    0.976670 0.005898 0.836034 0.387197
H14   H     H_    0.268416 0.790397 0.617609 0.227050
H15   H     H_    0.266477 0.685682 0.686763 0.234663
H16   H     H_    0.337017 0.234268 0.312545 0.368270
H17   H     H_    0.295427 0.561906 0.089342 0.194980
H18   H     H_    0.426105 0.662141 0.077266 0.193842
H19   H     H_    0.158803 0.400684 0.750352 0.193614
H20   H     H_    0.178386 0.544703 0.797683 0.219712
H21   H     H_    0.714502 0.886326 0.484313 0.172050
H22   H     H_    0.247913 0.794738 0.429543 0.187942
H23   H     H_    0.035015 0.897668 0.475440 0.135716
H24   H     H_    0.241251 0.209198 0.584542 0.150145
H25   H     H_    0.713257 0.110931 0.497325 0.169514
H26   H     H_    0.883749 0.365926 0.403377 0.200068
H27   H     H_    0.728868 0.667882 0.607039 0.244413
N1    N     N_R   0.857140 0.501200 0.500750 -0.136463
N2    N     N_R   0.142740 0.501280 0.500770 -0.160455
N3    N     N_3   0.999931 0.118968 0.567701 -0.429559
N4    N     N_3   0.378543 0.643741 0.243640 -0.452504
N5    N     N_3   0.247263 0.697187 0.627320 -0.337556
N6    N     N_3   0.398413 0.567872 0.072164 -0.453285
N7    N     N_3   0.223013 0.477675 0.753973 -0.444821
O1    O     O_R   0.385310 0.683220 0.500000 -0.622636
O2    O     O_2   0.163979 0.959816 0.709294 -0.330007
O3    O     O_3   0.938020 0.944100 0.796918 -0.556333
O4    O     O_2   0.060927 0.244510 0.323027 -0.335800
O5    O     O_2   0.186682 0.431649 0.293708 -0.323917
O6    O     O_3   0.298518 0.262518 0.368044 -0.530975
O7    O     O_R   0.614640 0.683250 0.500010 -0.638043
O8    O     O_R   0.371780 0.500010 0.615800 -0.587336
O9    O     O_R   0.601110 0.500030 0.615800 -0.644577
O10   O     O_R   0.385360 0.316750 0.499990 -0.572332
O11   O     O_R   0.614690 0.316780 0.500000 -0.627843
O12   O     O_R   0.398890 0.499970 0.384200 -0.520938
O13   O     O_R   0.628220 0.499990 0.384200 -0.626239
O14   O     O_2   0.144433 0.801021 0.806908 -0.326771
S1    S     S_3+6 0.071565 0.866374 0.747134 -0.013359
S2    S     S_3+6 0.156823 0.340053 0.356027 0.026475
Zn1   Zn    Zn3+2 0.346870 0.499980 0.499990 1.018229
Zn2   Zn    Zn3+2 0.653130 0.500020 0.500010 0.938219

loop_
_geom_bond_atom_site_label_1
_geom_bond_atom_site_label_2
_ccdc_geom_bond_type
O8    Zn1   S    
C1    O7    A    
C23   N6    S    
H8    N3    S    
C35   C36   D    
H13   O3    S    
H17   N6    S    
O2    S1    D    
C7    C8    A    
C31   N4    S    
C26   C27   A    
C1    O1    A    
C28   C29   A    
O10   Zn1   S    
C5    C6    A    
O12   Zn1   S    
C2    C32   A    
C18   C19   A    
C32   H3    S    
C35   H6    S    
C21   N1    A    
C19   C20   A    
O7    Zn2   S    
C8    C9    A    
C30   H5    S    
N2    Zn1   S    
C9    C10   A    
C34   C36   S    
C17   H2    S    
O13   Zn2   S    
C13   C14   A    
H11   N4    S    
O9    Zn2   S    
C33   C34   A    
C18   S1    S    
C5    H23   S    
H19   N7    S    
C20   N2    A    
C36   H4    S    
O14   S1    D    
C4    O9    A    
C3    C5    A    
C12   C26   A    
C2    C31   A    
C16   O10   A    
C23   C31   A    
C4    O8    A    
C29   C30   A    
C3    C9    A    
C22   H26   S    
O5    S2    D    
C15   C21   A    
C23   C34   A    
C17   C18   A    
C19   N5    S    
O4    S2    D    
O3    S1    S    
C24   N2    A    
O1    Zn1   S    
H20   N7    S    
C25   O12   A    
C14   C16   S    
O6    S2    S    
C7    H24   S    
H9    N3    S    
C15   C17   A    
C12   N7    S    
C8    C14   A    
C12   C30   A    
C1    C10   S    
H16   O6    S    
C4    C26   S    
C6    C7    A    
C29   C35   S    
C28   H7    S    
C32   C33   A    
H10   N4    S    
C11   C13   A    
H18   N6    S    
H14   N5    S    
C27   H1    S    
C16   O11   A    
C2    C25   S    
C22   C24   A    
H15   N5    S    
O11   Zn2   S    
C10   C11   A    
C22   N1    A    
C3    H22   S    
C6    N3    S    
C13   H25   S    
C20   C21   A    
C27   C28   A    
C25   O13   A    
C33   H12   S    
C15   H27   S    
C11   H21   S    
C24   S2    S    
N1    Zn2   S    
