data_mof_unit_29735.cif
_audit_creation_date              2013-03-05T15:45:42-0500
_audit_creation_method            fapswitch 2.2
_symmetry_space_group_name_H-M    P1
_symmetry_Int_Tables_number       1
_space_group_crystal_system       triclinic
_cell_length_a                    6.938508
_cell_length_b                    16.670299
_cell_length_c                    16.939493
_cell_angle_alpha                 101.39094
_cell_angle_beta                  90.732396
_cell_angle_gamma                 90.190785
_cell_volume                      1920.55494237

loop_
_atom_site_label
_atom_site_type_symbol
_atom_site_description
_atom_site_fract_x
_atom_site_fract_y
_atom_site_fract_z
_atom_type_partial_charge
O1    O     O_R   0.506340 0.439070 0.579550 -0.567107
O2    O     O_R   0.170010 0.404890 0.412100 -0.598525
O3    O     O_R   0.005010 0.560930 0.420450 -0.603958
C1    C     C_R   0.339098 0.381080 0.383722 0.985904
O4    O     O_R   0.176280 0.429360 0.578400 -0.568438
O5    O     O_R   0.011320 0.585570 0.587940 -0.579417
C2    C     C_R   0.344528 0.415722 0.606639 1.087650
O6    O     O_R   0.500030 0.414430 0.412060 -0.582345
O7    O     O_3   0.340950 0.551220 0.502940 -0.299784
V1    V     V_3+5 0.064020 0.490500 0.499460 1.237084
O8    O     O_R   0.681910 0.595110 0.587900 -0.605576
C3    C     C_R   0.852101 0.618341 0.616708 0.979528
O9    O     O_R   0.675640 0.570640 0.421600 -0.612246
C4    C     C_R   0.842024 0.586408 0.394715 0.914683
V2    V     V_3+5 0.564670 0.509500 0.500540 1.211311
O10   O     O_3   0.837610 0.448780 0.497060 -0.238009
C5    C     C_R   0.928763 0.860520 0.166772 -0.130141
C6    C     C_R   0.836866 0.639525 0.333381 -0.126497
C7    C     C_R   0.645289 0.698042 0.236391 -0.212482
C8    C     C_R   0.665504 0.642945 0.288293 -0.140377
C9    C     C_R   0.990265 0.691924 0.323848 -0.278915
C10   C     C_R   0.969913 0.748335 0.272019 0.215346
C11   C     C_R   0.795655 0.751750 0.228172 0.216507
C12   C     C_R   0.775335 0.808140 0.176318 -0.270042
C13   C     C_R   0.100072 0.857138 0.211905 -0.127528
C14   C     C_R   0.120265 0.802053 0.263818 -0.213571
H1    H     H_    0.643265 0.809355 0.141686 0.138891
H2    H     H_    0.221019 0.896829 0.206365 0.137869
H3    H     H_    0.510997 0.699089 0.203236 0.133742
H4    H     H_    0.254542 0.801018 0.296985 0.134145
H5    H     H_    0.544556 0.603259 0.293843 0.134678
H6    H     H_    0.122360 0.690695 0.358460 0.138276
C15   C     C_3   0.706390 0.776577 0.772999 -0.120793
C16   C     C_3   0.793087 0.775534 0.688994 -0.152191
H7    H     H_    0.718557 0.796233 0.638255 0.124849
H8    H     H_    0.560249 0.798763 0.792090 0.125507
C17   C     C_3   0.867624 0.688484 0.687514 -0.110432
C18   C     C_3   0.781064 0.688694 0.770710 -0.067360
C19   C     C_3   0.972960 0.724154 0.811233 -0.084643
C20   C     C_3   0.059648 0.723113 0.727223 -0.050571
C21   C     C_3   0.984990 0.810978 0.729505 -0.155540
C22   C     C_3   0.898431 0.811216 0.812708 -0.124813
H9    H     H_    0.696614 0.637863 0.787116 0.154548
H10   H     H_    0.047511 0.703382 0.861927 0.138127
H11   H     H_    0.205785 0.700932 0.708122 0.134542
H12   H     H_    0.069613 0.861730 0.713046 0.126950
C23   C     C_3   0.476665 0.233034 0.312864 0.403804
C24   C     C_3   0.315751 0.178743 0.267248 -0.205396
H13   H     H_    0.262920 0.120548 0.281938 0.150798
C25   C     C_3   0.410378 0.188648 0.187546 -0.146894
C26   C     C_3   0.573714 0.241490 0.233806 -0.191343
C27   C     C_3   0.450751 0.319307 0.233324 -0.174448
C28   C     C_3   0.287794 0.265625 0.186029 -0.058747
C29   C     C_3   0.193832 0.256843 0.266698 -0.126314
C30   C     C_3   0.356223 0.310121 0.313435 -0.235901
H14   H     H_    0.729374 0.234590 0.220360 0.137920
H15   H     H_    0.504946 0.377512 0.219140 0.140404
H16   H     H_    0.209936 0.279098 0.132529 0.168685
H17   H     H_    0.038448 0.263427 0.280792 0.146336
C31   C     C_R   0.416705 0.141879 0.835900 -0.326028
C32   C     C_R   0.344743 0.368958 0.672998 -0.357072
C33   C     C_R   0.181533 0.332843 0.788875 0.307651
C34   C     C_R   0.204341 0.385261 0.733531 0.245709
C35   C     C_R   0.466192 0.301861 0.670287 -0.079856
C36   C     C_R   0.447441 0.248755 0.725358 -0.008480
C37   C     C_R   0.305044 0.264095 0.786680 -0.169969
C38   C     C_R   0.295655 0.211068 0.843975 0.477364
C39   C     C_R   0.550888 0.127602 0.773870 -0.270832
C40   C     C_R   0.568606 0.180058 0.719759 0.554688
H18   H     H_    0.646290 0.075464 0.768321 0.174008
H19   H     H_    0.570973 0.289953 0.622722 0.220612
O11   O     O_R   0.266070 0.085680 0.087850 -0.587370
O12   O     O_R   0.590090 0.070660 0.921580 -0.583627
O13   O     O_R   0.754780 0.914400 0.912080 -0.601624
C41   C     C_R   0.421168 0.087574 0.895956 1.042872
O14   O     O_R   0.596110 0.095130 0.087880 -0.590026
O15   O     O_R   0.760850 0.939050 0.079570 -0.595441
C42   C     C_R   0.427110 0.118635 0.116517 0.972386
O16   O     O_R   0.260010 0.061030 0.920360 -0.562868
O17   O     O_3   0.425070 0.948840 0.997010 -0.294317
V3    V     V_3+5 0.702100 0.009490 0.000550 1.206040
O18   O     O_R   0.090200 0.929250 0.078500 -0.608625
C43   C     C_R   0.923751 0.913566 0.105376 0.936614
O19   O     O_R   0.084180 0.904770 0.912200 -0.603022
C44   C     C_R   0.913975 0.881483 0.883429 0.923479
V4    V     V_3+5 0.201420 0.990350 0.999580 1.189053
O20   O     O_3   0.928580 0.051150 0.002990 -0.234244
N1    N     N_R   0.581209 0.211764 0.380972 0.235313
O21   O     O_R   0.683317 0.145334 0.370585 -0.378526
O22   O     O_R   0.567716 0.256776 0.452655 -0.402602
Cl1   Cl    Cl    0.155884 0.233886 0.932530 -0.589341
N2    N     N_R   0.026926 0.349534 0.844766 0.285919
O23   O     O_R   0.867385 0.307573 0.830659 -0.326731
O24   O     O_R   0.032179 0.415209 0.900995 -0.318712
Cl2   Cl    Cl    0.749110 0.157099 0.646334 -0.593087
N3    N     N_R   0.083234 0.455965 0.739278 0.250440
O25   O     O_R   0.159986 0.528134 0.744224 -0.438584
O26   O     O_R   0.896439 0.448283 0.737667 -0.358903

loop_
_geom_bond_atom_site_label_1
_geom_bond_atom_site_label_2
_geom_bond_distance
_ccdc_geom_bond_type
C16   C17   1.537823 S    
C21   C22   1.538395 S    
C4    C6    1.492472 S    
O2    C1    1.306604 A    
C7    C8    1.397493 A    
C12   H1    1.084135 S    
C1    O6    1.289620 A    
C28   C29   1.554017 S    
C13   H2    1.083359 S    
C24   C29   1.556506 S    
C17   C18   1.538357 S    
C15   C22   1.542705 S    
O14   C42   1.306283 A    
C16   H7    1.110035 S    
C17   C20   1.542554 S    
O5    C3    1.291899 A    
C18   C19   1.550662 S    
O15   C43   1.308835 A    
V2    O10   2.146295 S    
C6    C9    1.405652 A    
C15   H8    1.110492 S    
C26   H14   1.108324 S    
C35   H19   1.081634 S    
C3    C17   1.503114 S    
C32   C34   1.411221 A    
C2    C32   1.489095 S    
O11   C42   1.289499 A    
O8    V2    2.003908 S    
C31   C38   1.414764 A    
C39   C40   1.392398 A    
N3    O26   1.301375 A    
O17   V4    1.698762 S    
C21   H12   1.110103 S    
O1    V2    1.991221 S    
O7    V1    2.163500 S    
C27   C30   1.548989 S    
C24   C25   1.546340 S    
C37   C38   1.437959 A    
O9    C4    1.291501 A    
O12   C41   1.295836 A    
C16   C21   1.550558 S    
C25   C42   1.507691 S    
O12   V3    1.987673 S    
C25   C26   1.540261 S    
C19   C22   1.538015 S    
C29   H17   1.108349 S    
C20   H11   1.110491 S    
C9    H6    1.084137 S    
C5    C12   1.405655 A    
C33   C37   1.428205 A    
C26   C27   1.556324 S    
C25   C28   1.546134 S    
O19   C44   1.300157 A    
C19   C20   1.549016 S    
O4    C2    1.293745 A    
V4    O20   2.146372 S    
C23   C26   1.537464 S    
C13   C14   1.397445 A    
O18   V4    1.994791 S    
C34   N3    1.438123 S    
O18   C43   1.291467 A    
C33   N2    1.431237 S    
C5    C43   1.492442 S    
C32   C35   1.396526 A    
C7    C11   1.398648 A    
C33   C34   1.412078 A    
C23   C24   1.535498 S    
O15   V3    1.986679 S    
C11   C12   1.413863 A    
N3    O25   1.301085 A    
C38   Cl1   1.774746 S    
C15   C16   1.548973 S    
C22   C44   1.503481 S    
V3    O20   1.712644 S    
O3    C4    1.308830 A    
C24   H13   1.110297 S    
N1    O22   1.299896 A    
C14   H4    1.083767 S    
O6    V2    1.999778 S    
O9    V2    1.994801 S    
C1    C30   1.509702 S    
O13   V3    1.992936 S    
O2    V1    1.992002 S    
C27   C28   1.551782 S    
C23   C30   1.533717 S    
C29   C30   1.542065 S    
C20   C21   1.548703 S    
O1    C2    1.305148 A    
O19   V4    2.003829 S    
O17   V3    2.163503 S    
C40   Cl2   1.765506 S    
O14   V3    1.991979 S    
O5    V1    1.992847 S    
O11   V4    2.000492 S    
C28   H16   1.110076 S    
C19   H10   1.110046 S    
C31   C41   1.489503 S    
C15   C18   1.549002 S    
C5    C13   1.412359 A    
C35   C36   1.414030 A    
O7    V2    1.700755 S    
O4    V1    1.987624 S    
O3    V1    1.986786 S    
V1    O10   1.712645 S    
C23   N1    1.457687 S    
N2    O24   1.301582 A    
C36   C40   1.411661 A    
N2    O23   1.301482 A    
C6    C8    1.412359 A    
O13   C44   1.292006 A    
C27   H15   1.110221 S    
C18   H9    1.110182 S    
N1    O21   1.300273 A    
C31   C39   1.398295 A    
C39   H18   1.084253 S    
C36   C37   1.429544 A    
C10   C14   1.398628 A    
C10   C11   1.418101 A    
C9    C10   1.413837 A    
C41   O16   1.303010 A    
O16   V4    1.997422 S    
O8    C3    1.300055 A    
C8    H5    1.083349 S    
C7    H3    1.083766 S    
