data_mof_unit_11012.cif
_audit_creation_date              2012-10-26T19:41:53-0400
_audit_creation_method            fapswitch 2.2
_symmetry_space_group_name_H-M    P1
_symmetry_Int_Tables_number       1
_space_group_crystal_system       triclinic
_cell_length_a                    10.625463
_cell_length_b                    10.773705
_cell_length_c                    9.618035
_cell_angle_alpha                 90.091619
_cell_angle_beta                  89.737703
_cell_angle_gamma                 92.961899
_cell_volume                      1099.54697103

loop_
_atom_site_label
_atom_site_type_symbol
_atom_type_description
_atom_site_fract_x
_atom_site_fract_y
_atom_site_fract_z
_atom_type_partial_charge
C1    C     C_R   0.494725 0.262579 0.500039 0.562554
C2    C     C_R   0.393917 0.060153 0.580928 0.002063
C3    C     C_R   0.485336 0.128240 0.500005 0.025177
C4    C     C_R   0.259564 0.499231 0.500406 0.569572
C5    C     C_R   0.570692 0.067609 0.416580 -0.110279
C6    C     C_R   0.571087 0.939701 0.416820 -0.133261
C7    C     C_R   0.485888 0.870309 0.500122 0.017413
C8    C     C_R   0.670497 0.663233 0.143042 -0.099117
C9    C     C_R   0.756360 0.742411 0.070537 0.216399
C10   C     C_R   0.754331 0.742418 0.927038 -0.091094
C11   C     C_R   0.669308 0.664102 0.855656 -0.122365
C12   C     C_3   0.960435 0.511451 0.367233 -0.119031
C13   C     C_R   0.583320 0.580548 0.925025 0.133668
C14   C     C_R   0.583572 0.580358 0.074266 0.083162
C15   C     C_R   0.419991 0.422776 0.074745 0.358888
C16   C     C_R   0.495540 0.736980 0.500111 0.512334
C17   C     C_R   0.420588 0.423408 0.925895 0.009166
C18   C     C_R   0.740396 0.501209 0.499608 0.549162
C19   C     C_3   0.039064 0.489709 0.632669 -0.135951
C20   C     C_3   0.951363 0.393792 0.555313 0.097088
C21   C     C_3   0.877125 0.500991 0.498634 0.004967
C22   C     C_3   0.962653 0.597343 0.575836 -0.167129
C23   C     C_3   0.035854 0.406096 0.426311 0.255136
C24   C     C_3   0.048388 0.607504 0.444977 -0.165686
C25   C     C_3   0.122786 0.500089 0.501669 0.052012
C26   C     C_R   0.300602 0.119154 0.658718 -0.086255
C27   C     C_R   0.211062 0.049467 0.738259 0.272033
C28   C     C_R   0.210731 0.920232 0.735062 -0.048992
C29   C     C_R   0.299649 0.860259 0.656168 -0.157471
C30   C     C_R   0.393890 0.928918 0.580414 0.016289
Cu1   Cu    Cu3+1 0.499990 0.499990 0.640660 0.936914
Cu2   Cu    Cu3+1 0.500010 0.500010 0.359340 1.022607
H1    H     H_    0.140295 0.865594 0.793415 0.148847
H2    H     H_    0.091125 0.695152 0.400905 0.140852
H3    H     H_    0.926400 0.518854 0.258726 0.142698
H4    H     H_    0.639784 0.119863 0.353722 0.151265
H5    H     H_    0.294670 0.218929 0.656983 0.122122
H6    H     H_    0.285880 0.293316 0.081001 0.313322
H7    H     H_    0.835860 0.808072 0.239096 0.310883
H8    H     H_    0.002095 0.264307 0.309236 0.340177
H9    H     H_    0.136484 0.196505 0.812803 0.323547
H10   H     H_    0.292073 0.759909 0.654068 0.146554
H11   H     H_    0.640369 0.894630 0.354090 0.125763
H12   H     H_    0.675308 0.670552 0.252651 0.164263
H13   H     H_    0.819424 0.804077 0.869659 0.159277
H14   H     H_    0.675453 0.673275 0.746011 0.182420
H15   H     H_    0.355998 0.361151 0.869422 0.093999
H16   H     H_    0.073426 0.480984 0.740884 0.136274
H17   H     H_    0.929186 0.676548 0.637382 0.120017
I1    I     I_    0.869379 0.223521 0.636711 -0.320697
N1    N     N_R   0.501210 0.501210 0.147910 -0.212952
N2    N     N_R   0.501250 0.501290 0.852040 -0.254889
O1    O     O_R   0.499990 0.319640 0.618810 -0.500029
O2    O     O_3   0.843044 0.821298 0.137307 -0.676089
O3    O     O_3   0.078789 0.306501 0.349183 -0.644208
O4    O     O_3   0.122186 0.104962 0.818972 -0.657433
O5    O     O_R   0.500000 0.319660 0.381240 -0.442857
O6    O     O_R   0.316850 0.499960 0.618770 -0.542429
O7    O     O_R   0.316860 0.499980 0.381190 -0.420104
O8    O     O_R   0.500000 0.680340 0.618760 -0.530264
O9    O     O_R   0.500010 0.680360 0.381190 -0.530198
O10   O     O_R   0.683140 0.500020 0.618810 -0.497246
O11   O     O_R   0.683150 0.500040 0.381230 -0.536889
O12   O     O_3   0.338137 0.343426 0.147770 -0.615974

loop_
_geom_bond_atom_site_label_1
_geom_bond_atom_site_label_2
_ccdc_geom_bond_type
Cu1   O8    S    
C28   H1    S    
C8    C14   A    
C15   O12   S    
Cu2   N1    S    
C23   O3    S    
C6    C7    A    
C15   N1    A    
C29   H10   S    
C13   N2    A    
C9    C10   A    
C12   C24   S    
Cu1   Cu2   S    
C12   C23   S    
C20   C23   S    
C17   N2    A    
Cu1   N2    S    
C2    C30   A    
H8    O3    S    
C10   H13   S    
C2    C3    A    
C24   C25   S    
C2    C26   A    
C7    C30   A    
C21   C22   S    
Cu1   O1    S    
C12   H3    S    
C11   C13   A    
Cu1   O10   S    
C28   C29   A    
C26   C27   A    
C29   C30   A    
Cu2   O5    S    
C22   H17   S    
Cu1   O6    S    
C7    C16   S    
Cu2   O9    S    
C4    C25   S    
H9    O4    S    
H6    O12   S    
C6    H11   S    
C23   C25   S    
C14   N1    A    
C16   O8    A    
C5    C6    A    
C19   C25   S    
C22   C24   S    
C18   O11   A    
H7    O2    S    
C16   O9    A    
C13   C14   A    
C18   C21   S    
C5    H4    S    
C17   H15   S    
C19   C22   S    
C20   C21   S    
C4    O7    A    
C10   C11   A    
C26   H5    S    
C4    O6    A    
C27   C28   A    
C15   C17   A    
C1    O1    A    
C27   O4    S    
C18   O10   A    
C11   H14   S    
C20   I1    S    
C9    O2    S    
Cu2   O7    S    
C3    C5    A    
C19   H16   S    
C12   C21   S    
C24   H2    S    
C19   C20   S    
Cu2   O11   S    
C8    C9    A    
C1    C3    S    
C8    H12   S    
C1    O5    A    
