data_mof_unit_60062.cif
_audit_creation_date              2013-03-05T15:39:57-0500
_audit_creation_method            fapswitch 2.2
_symmetry_space_group_name_H-M    P1
_symmetry_Int_Tables_number       1
_space_group_crystal_system       triclinic
_cell_length_a                    15.874089
_cell_length_b                    17.999392
_cell_length_c                    29.4195
_cell_angle_alpha                 89.424014
_cell_angle_beta                  89.876235
_cell_angle_gamma                 89.906604
_cell_volume                      8405.40053687

loop_
_atom_site_label
_atom_site_type_symbol
_atom_site_description
_atom_site_fract_x
_atom_site_fract_y
_atom_site_fract_z
_atom_type_partial_charge
O1    O     O_R   0.429360 0.416280 0.044700 -0.554736
O2    O     O_R   0.570640 0.583720 0.044700 -0.592214
O3    O     O_R   0.570640 0.416280 0.044700 -0.596876
O4    O     O_R   0.429360 0.583720 0.044700 -0.561683
O5    O     O_R   0.427420 0.583550 0.955440 -0.537794
O6    O     O_R   0.572580 0.416450 0.955440 -0.534816
O7    O     O_R   0.572580 0.583550 0.955440 -0.547500
O8    O     O_R   0.427420 0.416450 0.955440 -0.548193
Cu1   Cu    Cu3+1 0.415470 0.500000 0.000080 1.139303
Cu2   Cu    Cu3+1 0.584530 0.500000 0.000080 1.111859
C1    C     C_R   0.500009 0.389910 0.058927 0.786291
C2    C     C_R   0.499899 0.609860 0.058802 0.740457
C3    C     C_R   0.499941 0.610740 0.941538 0.885770
C4    C     C_R   0.500134 0.389025 0.942130 0.897365
C5    C     C_R   0.569697 0.753069 0.852257 0.234361
C6    C     C_R   0.442749 0.198497 0.896328 0.231705
C7    C     C_R   0.448915 0.802956 0.893654 0.232968
C8    C     C_R   0.556855 0.250047 0.849893 0.244928
C9    C     C_R   0.563614 0.686041 0.877431 0.204430
C10   C     C_R   0.442925 0.262989 0.923090 0.214851
C11   C     C_R   0.441807 0.735559 0.918174 0.206937
C12   C     C_R   0.557189 0.314505 0.876769 0.200868
C13   C     C_R   0.805466 0.013492 0.724034 0.262077
C14   C     C_R   0.266362 0.065747 0.685206 0.262062
C15   C     C_R   0.226082 0.952693 0.725908 0.267000
C16   C     C_R   0.724382 0.090739 0.671528 0.262401
C17   C     C_R   0.879749 0.036030 0.702269 -0.192206
C18   C     C_R   0.184744 0.071149 0.667589 -0.192800
C19   C     C_R   0.144834 0.958764 0.707865 -0.154878
C20   C     C_R   0.799284 0.112949 0.650256 -0.192202
H1    H     H_    0.940156 0.015505 0.713911 0.183196
H2    H     H_    0.167864 0.116742 0.645140 0.186707
H3    H     H_    0.097238 0.917983 0.716450 0.191427
H4    H     H_    0.797808 0.151525 0.621814 0.193222
C21   C     C_3   0.512135 0.003245 0.783182 -0.116171
C22   C     C_R   0.513077 0.811674 0.860874 -0.208614
C23   C     C_R   0.500199 0.192002 0.860105 -0.210786
C24   C     C_R   0.500249 0.677290 0.911030 -0.337746
C25   C     C_R   0.500385 0.321322 0.913616 -0.340857
C26   C     C_R   0.727124 0.040859 0.708733 -0.041741
C27   C     C_R   0.287360 0.006424 0.714666 -0.040464
C28   C     C_R   0.876636 0.085866 0.665699 0.019702
C29   C     C_R   0.124231 0.017950 0.678993 -0.049725
C30   C     C_1   0.515974 0.934990 0.810687 0.077883
C31   C     C_1   0.507891 0.068062 0.812616 0.097106
C32   C     C_1   0.587427 0.011014 0.754676 0.081855
C33   C     C_1   0.435454 0.002432 0.755679 0.084887
C34   C     C_1   0.515966 0.878789 0.833408 0.214198
C35   C     C_1   0.504369 0.123796 0.834851 0.203718
C36   C     C_1   0.369129 0.003503 0.735805 0.131658
C37   C     C_1   0.650793 0.022491 0.733032 0.149893
C38   C     C_R   0.620822 0.113571 0.304915 -0.211579
C39   C     C_R   0.381194 0.987925 0.284132 -0.211946
C40   C     C_R   0.410703 0.105228 0.320048 -0.191155
C41   C     C_R   0.596332 0.981930 0.296308 -0.194272
C42   C     C_R   0.682048 0.098491 0.337697 0.256647
C43   C     C_R   0.319995 0.972483 0.317254 0.261114
C44   C     C_R   0.349990 0.090300 0.353154 0.248993
C45   C     C_R   0.657513 0.966322 0.329173 0.253944
C46   C     C_R   0.573315 0.180303 0.211036 -0.155036
C47   C     C_R   0.426657 0.018318 0.182198 -0.162983
C48   C     C_R   0.426367 0.195359 0.231001 -0.172726
C49   C     C_R   0.574797 0.989878 0.191243 -0.172703
C50   C     C_R   0.574998 0.252990 0.193918 -0.141424
C51   C     C_R   0.425824 0.979565 0.141285 -0.108231
C52   C     C_R   0.428221 0.268016 0.213846 -0.121440
C53   C     C_R   0.573743 0.951163 0.150326 -0.139339
H5    H     H_    0.632766 0.274641 0.179299 0.152651
H6    H     H_    0.368101 0.976904 0.121788 0.168104
H7    H     H_    0.371301 0.301297 0.214520 0.155860
H8    H     H_    0.631527 0.926602 0.137753 0.152585
C54   C     C_3   0.501091 0.071102 0.251709 -0.014605
C55   C     C_R   0.577885 0.055693 0.282730 -0.003716
C56   C     C_R   0.426095 0.055651 0.284091 -0.003686
C57   C     C_R   0.700479 0.024738 0.350153 -0.005303
C58   C     C_R   0.304074 0.023820 0.351904 -0.005901
C59   C     C_R   0.500259 0.151354 0.232245 0.089134
C60   C     C_R   0.500478 0.022301 0.208819 0.088200
C61   C     C_R   0.502895 0.297478 0.196110 0.121176
C62   C     C_R   0.499288 0.945660 0.125360 0.117886
H9    H     H_    0.604903 0.171117 0.298560 0.187002
H10   H     H_    0.394890 0.945509 0.259438 0.184719
H11   H     H_    0.446996 0.155864 0.322684 0.187204
H12   H     H_    0.561509 0.936185 0.281916 0.184980
H13   H     H_    0.630012 0.147002 0.208847 0.151612
H14   H     H_    0.369452 0.045783 0.193102 0.153948
H15   H     H_    0.366701 0.174095 0.243161 0.155531
H16   H     H_    0.634676 0.995793 0.208235 0.154721
C63   C     C_1   0.240915 0.009602 0.386151 0.094006
C64   C     C_1   0.761387 0.010272 0.385382 0.094327
C65   C     C_1   0.187811 0.002482 0.415170 -0.084458
C66   C     C_1   0.813102 0.002838 0.414966 -0.082838
C67   C     C_1   0.505586 0.373504 0.180494 -0.052583
C68   C     C_1   0.499028 0.907088 0.082732 -0.074020
C69   C     C_1   0.507865 0.437373 0.167800 0.010331
C70   C     C_1   0.499143 0.874948 0.046982 0.201740
O9    O     O_R   0.093410 0.059470 0.464300 -0.563703
O10   O     O_R   0.906590 0.940530 0.464300 -0.569339
O11   O     O_R   0.906590 0.059470 0.464300 -0.563466
O12   O     O_R   0.093410 0.940530 0.464300 -0.570397
O13   O     O_R   0.920740 0.061400 0.553530 -0.560100
O14   O     O_R   0.079260 0.938600 0.553530 -0.552857
O15   O     O_R   0.079260 0.061400 0.553530 -0.555863
O16   O     O_R   0.920740 0.938600 0.553530 -0.549397
Cu3   Cu    Cu3+1 0.000000 0.072960 0.508900 1.058341
Cu4   Cu    Cu3+1 0.000000 0.927040 0.508900 1.055961
C71   C     C_R   0.123626 0.000328 0.449438 0.837062
C72   C     C_R   0.876247 0.000420 0.449601 0.835747
C73   C     C_R   0.892817 0.999763 0.569193 0.724895
C74   C     C_R   0.107153 0.999705 0.569129 0.733502
N1    N     N_R   0.622036 0.626850 0.868672 0.184728
O17   O     O_R   0.702738 0.639423 0.868458 -0.232096
O18   O     O_R   0.594586 0.560373 0.860214 -0.265387
N2    N     N_R   0.385021 0.268419 0.960370 0.177328
O19   O     O_R   0.413061 0.267688 0.001863 -0.348927
O20   O     O_R   0.304298 0.264911 0.953163 -0.251082
N3    N     N_R   0.378185 0.728601 0.952550 0.170706
O21   O     O_R   0.385124 0.765288 0.990203 -0.342607
O22   O     O_R   0.307857 0.694931 0.943428 -0.246295
N4    N     N_R   0.611328 0.375038 0.864328 0.180227
O23   O     O_R   0.680996 0.385404 0.886564 -0.242379
O24   O     O_R   0.600582 0.408618 0.825407 -0.217736
N5    N     N_R   0.631670 0.760434 0.816794 0.169525
O25   O     O_R   0.639046 0.709483 0.785966 -0.237185
O26   O     O_R   0.680386 0.818420 0.814914 -0.281948
N6    N     N_R   0.386112 0.138464 0.907126 0.179663
O27   O     O_R   0.380162 0.113259 0.948617 -0.239358
O28   O     O_R   0.340802 0.108315 0.875469 -0.277753
N7    N     N_R   0.390303 0.862413 0.902035 0.171731
O29   O     O_R   0.309738 0.849431 0.903595 -0.208549
O30   O     O_R   0.417295 0.929655 0.908690 -0.297586
N8    N     N_R   0.615236 0.243320 0.812626 0.164281
O31   O     O_R   0.694424 0.259404 0.818097 -0.243839
O32   O     O_R   0.589356 0.221865 0.772926 -0.290082
Br1   Br    Br    0.814133 0.947084 0.775200 -0.331714
Br2   Br    Br    0.346700 0.141109 0.669008 -0.352189
Br3   Br    Br    0.250328 0.871344 0.766549 -0.361849
Br4   Br    Br    0.619964 0.131086 0.649497 -0.341263
Br5   Br    Br    0.736628 0.181074 0.366080 -0.431869
Br6   Br    Br    0.261017 0.879690 0.314593 -0.433567
Br7   Br    Br    0.333023 0.162207 0.400101 -0.421108
Br8   Br    Br    0.678369 0.864508 0.345509 -0.427760

loop_
_geom_bond_atom_site_label_1
_geom_bond_atom_site_label_2
_geom_bond_distance
_ccdc_geom_bond_type
O7    Cu2   1.995671 S    
N6    O27   1.301230 A    
C41   C45   1.398108 A    
C49   H16   1.080834 S    
C27   C36   1.441161 S    
C48   C59   1.414620 A    
C8    N8    1.439954 S    
N1    O17   1.301256 A    
O1    C1    1.286285 A    
C21   C33   1.463270 S    
O16   Cu4   1.829692 S    
N2    O19   1.300159 A    
C44   C58   1.402963 A    
N5    O25   1.301248 A    
C12   N4    1.432971 S    
O11   C72   1.249199 A    
C5    N5    1.437731 S    
O15   C74   1.276252 A    
C50   H5    1.083432 S    
C43   C58   1.404971 A    
C8    C23   1.409341 A    
C61   C67   1.439775 S    
N3    O22   1.300922 A    
O16   C73   1.276134 A    
N5    O26   1.300659 A    
O13   C73   1.276740 A    
C13   C26   1.409886 A    
C19   H3    1.081994 S    
O10   C72   1.253344 A    
N6    O28   1.301350 A    
C54   C60   1.544721 S    
C57   C64   1.440434 S    
C4    C25   1.486339 S    
C40   C56   1.411461 A    
C66   C72   1.431189 S    
C11   C24   1.416060 A    
C39   C56   1.413094 A    
C45   Br8   1.918324 S    
N8    O31   1.301109 A    
C11   N3    1.432444 S    
O14   Cu4   1.834052 S    
C7    C22   1.408971 A    
C13   C17   1.399322 A    
C63   C65   1.204541 T    
Cu1   Cu2   2.683675 S    
O5    C3    1.314467 A    
C58   C63   1.441208 S    
O9    Cu3   1.994015 S    
C14   Br2   1.919258 S    
O2    C2    1.286353 A    
C67   C69   1.205740 T    
C51   C62   1.397472 A    
C19   C29   1.394689 A    
C15   C19   1.399459 A    
C14   C27   1.408516 A    
C40   H11   1.082558 S    
N4    O24   1.300805 A    
C33   C36   1.205436 T    
O13   Cu3   1.827154 S    
O11   Cu3   1.998814 S    
C49   C53   1.397105 A    
C46   C59   1.413511 A    
C20   H4    1.082195 S    
C48   H15   1.080965 S    
C17   H1    1.082126 S    
C65   C71   1.432098 S    
C18   H2    1.081951 S    
O1    Cu1   2.000739 S    
N1    O18   1.300656 A    
C38   C55   1.411983 A    
C15   C27   1.409310 A    
C42   Br5   1.920853 S    
C48   C52   1.397382 A    
O8    Cu1   2.014937 S    
C7    N7    1.439729 S    
C32   C37   1.206312 T    
C7    C11   1.409704 A    
C15   Br3   1.920043 S    
C43   Br6   1.918401 S    
C39   H10   1.080658 S    
C41   C55   1.413034 A    
C5    C9    1.412613 A    
O5    Cu1   1.995597 S    
C54   C59   1.548532 S    
C52   C61   1.397289 A    
C9    C24   1.416591 A    
O6    C4    1.314241 A    
C23   C35   1.442711 S    
C64   C66   1.204036 T    
C31   C35   1.204256 T    
C47   C60   1.413177 A    
C6    C10   1.409173 A    
O15   Cu3   1.830589 S    
C68   C70   1.205424 T    
C21   C30   1.465546 S    
C3    C24   1.489581 S    
C54   C56   1.546943 S    
C16   C20   1.399451 A    
C50   C61   1.397543 A    
O8    C4    1.315078 A    
O14   C74   1.276300 A    
O4    C2    1.286448 A    
C62   C68   1.439543 S    
C21   C31   1.461257 S    
C45   C57   1.403183 A    
C5    C22   1.409303 A    
N4    O23   1.300780 A    
N7    O29   1.301077 A    
C40   C44   1.393247 A    
C10   C25   1.417118 A    
O12   C71   1.253414 A    
C39   C43   1.400690 A    
C8    C12   1.410593 A    
C53   C62   1.397077 A    
C14   C18   1.399332 A    
C54   C55   1.547394 S    
C16   Br4   1.919957 S    
O6    Cu2   2.015932 S    
N2    O20   1.301013 A    
C46   H13   1.082703 S    
C9    N1    1.436247 S    
C26   C37   1.442676 S    
Cu3   Cu4   2.626473 S    
C6    C23   1.406743 A    
C18   C29   1.395481 A    
O12   Cu4   1.991390 S    
O10   Cu4   1.995019 S    
C13   Br1   1.917759 S    
C46   C50   1.397450 A    
O4    Cu1   2.021054 S    
O3    Cu2   2.000655 S    
N3    O21   1.300267 A    
C10   N2    1.433481 S    
C17   C28   1.394730 A    
C16   C26   1.409366 A    
C52   H7    1.083532 S    
C38   C42   1.395128 A    
C51   H6    1.083446 S    
C12   C25   1.414685 A    
C22   C34   1.447326 S    
C53   H8    1.083574 S    
C38   H9    1.080338 S    
O3    C1    1.285801 A    
C47   H14   1.082746 S    
O9    C71   1.249485 A    
C47   C51   1.397331 A    
O7    C3    1.316259 A    
N8    O32   1.301409 A    
C42   C57   1.404129 A    
C20   C28   1.395627 A    
C41   H12   1.082723 S    
C21   C32   1.464649 S    
C6    N6    1.439401 S    
C44   Br7   1.920532 S    
C30   C34   1.206860 T    
N7    O30   1.301397 A    
C49   C60   1.414552 A    
O2    Cu2   2.019899 S    
