data_mof_unit_54445.cif
_audit_creation_date              2012-12-10T19:08:36-0500
_audit_creation_method            fapswitch 2.2
_symmetry_space_group_name_H-M    P1
_symmetry_Int_Tables_number       1
_space_group_crystal_system       triclinic
_cell_length_a                    15.979556
_cell_length_b                    10.854058
_cell_length_c                    9.600093
_cell_angle_alpha                 90.580336
_cell_angle_beta                  90.501433
_cell_angle_gamma                 91.725755
_cell_volume                      1664.16026627

loop_
_atom_site_label
_atom_site_type_symbol
_atom_type_description
_atom_site_fract_x
_atom_site_fract_y
_atom_site_fract_z
_atom_type_partial_charge
C1    C     C_R   0.497787 0.262938 0.499285 0.815428
C2    C     C_R   0.045441 0.480654 0.625317 -0.026981
C3    C     C_1   0.822004 0.477163 0.501455 0.011362
C4    C     C_1   0.177430 0.483226 0.496855 0.001221
C5    C     C_1   0.252455 0.491133 0.497927 -0.149918
C6    C     C_1   0.747315 0.487116 0.501578 -0.135447
C7    C     C_R   0.539487 0.067914 0.601141 0.047452
C8    C     C_R   0.497998 0.130357 0.497083 -0.056183
C9    C     C_R   0.460214 0.061963 0.387457 -0.136235
C10   C     C_R   0.458297 0.933123 0.391729 -0.221191
C11   C     C_R   0.498943 0.871432 0.500329 -0.068583
C12   C     C_R   0.341489 0.498464 0.499391 0.823949
C13   C     C_R   0.544482 0.941833 0.599123 0.120832
C14   C     C_3   0.549072 0.938282 0.754774 -0.602359
C15   C     C_3   0.541543 0.078357 0.756941 -0.075013
C16   C     C_R   0.566437 0.548315 0.073774 0.251094
C17   C     C_R   0.437040 0.443401 0.072707 -0.030073
C18   C     C_R   0.436153 0.445637 0.924219 -0.005342
C19   C     C_R   0.570518 0.537075 0.927760 0.206748
C20   C     C_3   0.618918 0.656747 0.915243 -0.209563
C21   C     C_3   0.604412 0.677949 0.072870 -0.019685
C22   C     C_R   0.499221 0.737624 0.500657 0.795606
C23   C     C_R   0.658527 0.497533 0.500538 0.835066
C24   C     C_R   0.957097 0.476790 0.628087 0.064881
C25   C     C_R   0.911928 0.466652 0.500955 0.010809
C26   C     C_R   0.953601 0.453058 0.372636 -0.041789
C27   C     C_R   0.042355 0.458047 0.369613 0.078752
C28   C     C_R   0.087302 0.473734 0.496733 -0.003801
Cu1   Cu    Cu3+1 0.500000 0.499980 0.640670 0.969057
Cu2   Cu    Cu3+1 0.500000 0.500020 0.359330 0.978796
H1    H     H_    0.385353 0.399158 0.126611 0.141785
H2    H     H_    0.383447 0.403982 0.868080 0.156270
H3    H     H_    0.584928 0.717406 0.844928 0.207272
H4    H     H_    0.428283 0.107549 0.303316 0.175619
H5    H     H_    0.422991 0.881944 0.312619 0.166285
H6    H     H_    0.494635 0.886468 0.798686 0.210278
H7    H     H_    0.611129 0.909148 0.791667 0.212570
N1    N     N_R   0.500520 0.500930 0.147930 -0.201058
N2    N     N_R   0.500520 0.500890 0.852020 -0.200335
O1    O     O_R   0.500000 0.319640 0.618810 -0.560956
O2    O     O_R   0.500010 0.319680 0.381230 -0.572414
O3    O     O_R   0.380300 0.499950 0.618760 -0.569238
O4    O     O_R   0.380310 0.499990 0.381180 -0.599086
O5    O     O_R   0.499990 0.680320 0.618770 -0.591681
O6    O     O_R   0.500000 0.680360 0.381190 -0.595778
O7    O     O_R   0.619690 0.500010 0.618820 -0.597917
O8    O     O_R   0.619700 0.500050 0.381240 -0.535761
C29   C     C_2   0.095113 0.491385 0.756607 0.837940
O9    O     O_2   0.137620 0.405680 0.793868 -0.601531
O10   O     O_R   0.094702 0.600501 0.835161 -0.764124
H8    H     H_    0.131408 0.596883 0.921617 0.328668
C30   C     C_2   0.619045 0.149493 0.809465 0.857896
O11   O     O_2   0.688181 0.124519 0.765203 -0.602440
O12   O     O_R   0.611655 0.244930 0.907181 -0.734228
H9    H     H_    0.667600 0.286095 0.932605 0.322690
C31   C     C_3   0.711002 0.641957 0.870249 -0.413023
C32   C     C_3   0.758118 0.766104 0.858730 -0.764724
H10   H     H_    0.737993 0.813921 0.763007 0.252204
H11   H     H_    0.747130 0.826450 0.950148 0.283000
H12   H     H_    0.826353 0.751159 0.851287 0.252707
H13   H     H_    0.745080 0.580129 0.940470 0.251236
H14   H     H_    0.713611 0.598015 0.767153 0.231814
C33   C     C_2   0.682752 0.691169 0.164141 0.871490
O13   O     O_2   0.703569 0.791552 0.214764 -0.602012
O14   O     O_R   0.731908 0.589496 0.189708 -0.755679
H15   H     H_    0.782788 0.612532 0.249092 0.345029
C34   C     C_3   0.544619 0.787457 0.094814 -0.365829
C35   C     C_3   0.452796 0.765132 0.051174 -0.847628
H16   H     H_    0.447096 0.724359 0.945188 0.250566
H17   H     H_    0.419922 0.704295 0.126326 0.268946
H18   H     H_    0.420705 0.854447 0.050799 0.259614
H19   H     H_    0.546898 0.817892 0.204446 0.248966
H20   H     H_    0.569996 0.868001 0.036628 0.225046
C36   C     C_3   0.910144 0.480051 0.765597 -0.388019
C37   C     C_3   0.875687 0.352192 0.803769 -0.726230
H21   H     H_    0.833225 0.314024 0.720924 0.271298
H22   H     H_    0.927994 0.288561 0.819787 0.262504
H23   H     H_    0.839639 0.358404 0.901682 0.241018
H24   H     H_    0.949476 0.515092 0.853611 0.260726
H25   H     H_    0.858307 0.544960 0.758030 0.201811
C38   C     C_2   0.902978 0.430739 0.243362 0.846396
O15   O     O_2   0.913152 0.496290 0.141775 -0.619079
O16   O     O_R   0.841409 0.336384 0.240438 -0.729190
H26   H     H_    0.809154 0.331975 0.149077 0.340466
C39   C     C_3   0.089101 0.442823 0.232480 -0.387637
C40   C     C_3   0.089327 0.307980 0.185694 -0.754895
H27   H     H_    0.119698 0.251562 0.266585 0.251673
H28   H     H_    0.024664 0.271266 0.166404 0.262034
H29   H     H_    0.125086 0.299951 0.087501 0.260775
H30   H     H_    0.062077 0.500066 0.149643 0.243017
H31   H     H_    0.155104 0.476805 0.240215 0.199981
C41   C     C_2   0.460572 0.115348 0.825550 0.880204
O17   O     O_2   0.455897 0.115581 0.952678 -0.595562
O18   O     O_R   0.390505 0.144172 0.745281 -0.764583
H32   H     H_    0.340664 0.165971 0.804290 0.331955

loop_
_geom_bond_atom_site_label_1
_geom_bond_atom_site_label_2
_ccdc_geom_bond_type
C33   O14   S    
C16   C21   S    
Cu1   O3    S    
C1    C8    S    
Cu2   O6    S    
C19   C20   S    
C20   C31   S    
C3    C6    T    
C38   O15   D    
C39   H31   S    
C7    C8    A    
C39   C40   S    
C26   C27   A    
C12   O4    A    
C16   C19   A    
C14   H6    S    
C40   H28   S    
C32   H11   S    
C31   C32   S    
Cu2   N1    S    
C34   H19   S    
C27   C39   S    
C18   N2    A    
C12   O3    A    
C1    O1    A    
C4    C28   S    
C15   C41   S    
C22   O5    A    
C35   H16   S    
Cu2   O2    S    
C10   H5    S    
C34   H20   S    
C9    C10   A    
C29   O10   S    
C23   O7    A    
C36   H25   S    
C13   C14   S    
C21   C34   S    
C38   O16   S    
C30   O12   S    
C17   C18   A    
C23   O8    A    
C36   C37   S    
C34   C35   S    
Cu2   O8    S    
C3    C25   S    
C24   C25   A    
C5    C12   S    
C40   H27   S    
C8    C9    A    
C32   H12   S    
C2    C29   S    
C25   C26   A    
C37   H21   S    
Cu1   Cu2   S    
O16   H26   S    
Cu1   N2    S    
C41   O18   S    
O10   H8    S    
C15   C30   S    
C37   H22   S    
C19   N2    A    
C20   H3    S    
C1    O2    A    
C29   O9    D    
C26   C38   S    
C36   H24   S    
Cu1   O5    S    
C2    C24   A    
C9    H4    S    
C17   H1    S    
C31   H14   S    
Cu2   O4    S    
C18   H2    S    
C30   O11   D    
O12   H9    S    
C14   C15   S    
C4    C5    T    
C40   H29   S    
C39   H30   S    
C11   C22   S    
Cu1   O7    S    
C14   H7    S    
C11   C13   A    
C24   C36   S    
C32   H10   S    
C35   H18   S    
C6    C23   S    
Cu1   O1    S    
C7    C15   S    
C41   O17   D    
C17   N1    A    
O18   H32   S    
C37   H23   S    
C21   C33   S    
C10   C11   A    
C33   O13   D    
C7    C13   A    
C22   O6    A    
C20   C21   S    
C35   H17   S    
O14   H15   S    
C27   C28   A    
C31   H13   S    
C2    C28   A    
C16   N1    A    
