data_mof_unit_21745.cif
_audit_creation_date              2012-12-10T17:04:35-0500
_audit_creation_method            fapswitch 2.2
_symmetry_space_group_name_H-M    P1
_symmetry_Int_Tables_number       1
_space_group_crystal_system       triclinic
_cell_length_a                    15.01953
_cell_length_b                    10.646202
_cell_length_c                    10.042592
_cell_angle_alpha                 87.731482
_cell_angle_beta                  90.380354
_cell_angle_gamma                 90.271767
_cell_volume                      1604.51002942

loop_
_atom_site_label
_atom_site_type_symbol
_atom_type_description
_atom_site_fract_x
_atom_site_fract_y
_atom_site_fract_z
_atom_type_partial_charge
C1    C     C_R   0.493864 0.262728 0.502968 0.941404
C2    C     C_R   0.185282 0.472509 0.615645 -0.228437
C3    C     C_R   0.231310 0.505347 0.499256 -0.076378
C4    C     C_R   0.326862 0.500569 0.499682 0.924976
C5    C     C_R   0.186441 0.545590 0.383451 -0.201668
C6    C     C_2   0.441312 0.934170 0.425417 0.332927
C7    C     C_2   0.510387 0.870656 0.482552 -0.027283
C8    C     C_2   0.445119 0.069590 0.410667 -0.195331
C9    C     C_2   0.475353 0.131699 0.513813 -0.394372
C10   C     C_2   0.571734 0.497826 0.927892 0.239560
C11   C     C_2   0.568744 0.475140 0.076644 -0.202349
C12   C     C_R   0.907712 0.558772 0.382319 0.044495
C13   C     C_R   0.502327 0.737552 0.496681 0.983414
C14   C     C_R   0.673302 0.504171 0.499698 0.894964
C15   C     C_R   0.814412 0.559823 0.383112 0.175638
C16   C     C_R   0.769425 0.513780 0.498003 -0.133616
C17   C     C_R   0.815890 0.474498 0.612360 -0.309314
C18   C     C_R   0.908008 0.477249 0.615579 0.085873
C19   C     C_R   0.954211 0.517628 0.499040 -0.019249
C20   C     C_3   0.748566 0.742009 0.270603 -0.747759
C21   C     C_3   0.651131 0.891613 0.607692 -0.831126
C22   C     C_3   0.687985 0.643586 0.870305 -0.753462
C23   C     C_R   0.954840 0.439981 0.732844 0.219943
C24   C     C_3   0.887999 0.270464 0.863560 -0.815837
C25   C     C_3   0.120935 0.766750 0.146280 -0.730844
C26   C     C_R   0.047487 0.441509 0.732348 -0.289654
C27   C     C_R   0.093349 0.476978 0.616348 0.101890
C28   C     C_R   0.047138 0.516436 0.499288 0.030042
C29   C     C_R   0.094139 0.553489 0.382458 0.086227
C30   C     C_R   0.047991 0.596247 0.267184 0.197405
C31   C     C_R   0.955421 0.598879 0.268242 -0.296688
Cl1   Cl    Cl    0.340273 0.861028 0.379238 -0.659802
H1    H     H_    0.424724 0.116652 0.317504 0.193541
H2    H     H_    0.922075 0.633438 0.178513 0.152652
H3    H     H_    0.782927 0.575370 0.179673 0.208926
H4    H     H_    0.811788 0.795293 0.256550 0.228514
H5    H     H_    0.717648 0.767241 0.365887 0.260924
H6    H     H_    0.701880 0.768901 0.188396 0.235643
H7    H     H_    0.611886 0.009772 0.443999 0.246455
H8    H     H_    0.715214 0.944037 0.603384 0.244359
H9    H     H_    0.666629 0.789772 0.610477 0.251605
H10   H     H_    0.615183 0.916496 0.699217 0.251885
H11   H     H_    0.703806 0.453523 0.909830 0.206733
H12   H     H_    0.487499 0.083590 0.609912 0.181115
H13   H     H_    0.749222 0.653804 0.809503 0.238186
H14   H     H_    0.703652 0.670375 0.973544 0.217286
H15   H     H_    0.636400 0.707985 0.827671 0.256820
H16   H     H_    0.939900 0.433994 0.937264 0.221406
H17   H     H_    0.950053 0.214087 0.871386 0.249611
H18   H     H_    0.848628 0.241339 0.775869 0.250242
H19   H     H_    0.847668 0.251192 0.954419 0.237099
H20   H     H_    0.061760 0.612730 0.062569 0.219793
H21   H     H_    0.061358 0.828384 0.143828 0.231718
H22   H     H_    0.161102 0.788141 0.055706 0.245199
H23   H     H_    0.441168 0.480812 0.897524 0.135431
H24   H     H_    0.162296 0.787030 0.235037 0.288079
H25   H     H_    0.629269 0.444507 0.127421 0.173726
H26   H     H_    0.447060 0.541663 0.099431 0.170719
H27   H     H_    0.779597 0.439264 0.698556 0.212602
H28   H     H_    0.083580 0.412564 0.822227 0.149806
H29   H     H_    0.220947 0.441440 0.705226 0.160172
H30   H     H_    0.223916 0.571746 0.294733 0.203002
N1    N     N_2   0.500970 0.501330 0.852150 -0.197932
N2    N     N_2   0.500990 0.501360 0.147810 -0.195212
N3    N     N_2   0.765007 0.608308 0.270758 -0.293421
N4    N     N_2   0.598083 0.924175 0.490976 -0.347895
N5    N     N_2   0.656879 0.514955 0.870023 -0.253694
N6    N     N_2   0.909331 0.403072 0.852168 -0.324179
N7    N     N_2   0.094060 0.636031 0.149262 -0.329579
O1    O     O_R   0.499990 0.319060 0.613040 -0.616218
O2    O     O_R   0.500010 0.319100 0.386900 -0.610891
O3    O     O_R   0.367830 0.499950 0.613080 -0.627797
O4    O     O_R   0.367860 0.499990 0.386940 -0.616084
O5    O     O_R   0.499990 0.680900 0.613100 -0.612881
O6    O     O_R   0.500010 0.680940 0.386960 -0.588082
O7    O     O_R   0.632140 0.500010 0.613060 -0.597555
O8    O     O_R   0.632170 0.500050 0.386920 -0.595310
Zn1   Zn    Zn3+2 0.499980 0.499970 0.650990 0.962909
Zn2   Zn    Zn3+2 0.500020 0.500030 0.349010 0.974985

loop_
_geom_bond_atom_site_label_1
_geom_bond_atom_site_label_2
_ccdc_geom_bond_type
C6    Cl1   S    
C21   N4    S    
O1    Zn1   S    
C10   N1    D    
C25   H24   S    
O2    Zn2   S    
C10   N5    S    
C26   C27   A    
C1    O2    A    
C28   C29   A    
O7    Zn1   S    
C30   C31   A    
C14   O8    A    
H3    N3    S    
C15   C16   A    
C15   N3    S    
C18   C19   A    
C23   C26   A    
O3    Zn1   S    
H20   N7    S    
C13   O6    A    
C8    C9    D    
H23   N1    S    
C2    C27   A    
C2    H29   S    
C24   H19   S    
C22   H15   S    
C24   H18   S    
C5    C29   A    
O8    Zn2   S    
H26   N2    S    
C18   C23   A    
C20   N3    S    
C1    C9    S    
C25   H22   S    
C11   N2    D    
C16   C17   A    
C6    C8    S    
C14   O7    A    
C23   N6    S    
C29   C30   A    
C20   H6    S    
C12   C15   A    
C17   C18   A    
O4    Zn2   S    
C31   H2    S    
H16   N6    S    
C19   C28   A    
C4    O4    A    
C17   H27   S    
C21   H9    S    
C22   H14   S    
C12   C31   A    
H7    N4    S    
C14   C16   S    
C25   N7    S    
C3    C4    S    
C4    O3    A    
C30   N7    S    
C24   H17   S    
C9    H12   S    
C25   H21   S    
C3    C5    A    
C6    C7    D    
C1    O1    A    
C2    C3    A    
C7    N4    S    
C20   H5    S    
C21   H8    S    
C26   H28   S    
C12   C19   A    
N2    Zn2   S    
C5    H30   S    
C8    H1    S    
C22   N5    S    
C10   C11   S    
C24   N6    S    
C21   H10   S    
C20   H4    S    
C7    C13   S    
C22   H13   S    
C13   O5    A    
H11   N5    S    
O5    Zn1   S    
C27   C28   A    
C11   H25   S    
O6    Zn2   S    
N1    Zn1   S    
