data_mof_unit_65000.cif
_audit_creation_date              2012-12-10T17:20:09-0500
_audit_creation_method            fapswitch 2.2
_symmetry_space_group_name_H-M    P1
_symmetry_Int_Tables_number       1
_space_group_crystal_system       triclinic
_cell_length_a                    10.145537
_cell_length_b                    10.872804
_cell_length_c                    14.162628
_cell_angle_alpha                 89.813084
_cell_angle_beta                  81.889689
_cell_angle_gamma                 94.962427
_cell_volume                      1540.67322496

loop_
_atom_site_label
_atom_site_type_symbol
_atom_type_description
_atom_site_fract_x
_atom_site_fract_y
_atom_site_fract_z
_atom_type_partial_charge
C1    C     C_R   0.555838 0.732328 0.492473 0.939602
C2    C     C_1   0.499831 0.500021 0.042629 0.008848
C3    C     C_2   0.587399 0.863754 0.482310 -0.376982
C4    C     C_2   0.412534 0.136316 0.500306 -0.378453
C5    C     C_2   0.487049 0.934440 0.480350 -0.145376
C6    C     C_2   0.512805 0.065725 0.477708 -0.146128
C7    C     C_2   0.928246 0.511726 0.507995 -0.124246
C8    C     C_2   0.071763 0.488294 0.491984 -0.125536
C9    C     C_R   0.444147 0.267685 0.503990 0.940315
C10   C     C_R   0.500175 0.499965 0.670789 0.892088
C11   C     C_R   0.499825 0.500036 0.329207 0.887203
C12   C     C_1   0.500533 0.499925 0.772232 -0.202783
C13   C     C_1   0.499467 0.500075 0.227767 -0.201228
C14   C     C_1   0.500485 0.499935 0.857466 -0.007862
C15   C     C_1   0.499515 0.500064 0.142533 -0.008258
C16   C     C_1   0.500168 0.499978 0.957371 0.009063
H1    H     H_    0.121806 0.617902 0.581403 0.163768
H2    H     H_    0.878186 0.382083 0.418607 0.162746
H3    H     H_    0.616224 0.104271 0.461477 0.188793
H4    H     H_    0.383600 0.895934 0.485385 0.189500
H5    H     H_    0.309383 0.097316 0.516606 0.151766
H6    H     H_    0.690582 0.902712 0.477397 0.151417
H7    H     H_    0.105713 0.417291 0.442990 0.162387
H8    H     H_    0.894302 0.582743 0.556977 0.162126
N1    N     N_2   0.842710 0.448890 0.464580 -0.188282
N2    N     N_2   0.157290 0.551110 0.535420 -0.188653
O1    O     O_R   0.431050 0.692470 0.507130 -0.608062
O2    O     O_R   0.568950 0.307530 0.492870 -0.607726
O3    O     O_R   0.651120 0.659650 0.484400 -0.608226
O4    O     O_R   0.348880 0.340350 0.515600 -0.608025
O5    O     O_R   0.389940 0.516410 0.637650 -0.588206
O6    O     O_R   0.610060 0.483590 0.362350 -0.590292
O7    O     O_R   0.610010 0.483590 0.614920 -0.591679
O8    O     O_R   0.389990 0.516410 0.385080 -0.593721
Zn1   Zn    Zn3+2 0.353060 0.521920 0.515180 0.940032
Zn2   Zn    Zn3+2 0.646940 0.478080 0.484820 0.940073

loop_
_geom_bond_atom_site_label_1
_geom_bond_atom_site_label_2
_ccdc_geom_bond_type
C2    C15   S    
C2    C16   T    
C7    N1    D    
C3    C5    D    
C8    H7    S    
C1    O3    A    
C7    C8    S    
C5    H4    S    
C4    H5    S    
C11   C13   S    
O3    Zn2   S    
H2    N1    S    
C10   C12   S    
C9    O4    A    
H1    N2    S    
O6    Zn2   S    
C6    H3    S    
C11   O6    A    
C10   O7    A    
C14   C16   S    
C13   C15   T    
C5    C6    S    
O5    Zn1   S    
N1    Zn2   S    
C7    H8    S    
O4    Zn1   S    
N2    Zn1   S    
O7    Zn2   S    
C8    N2    D    
O2    Zn2   S    
C4    C6    D    
O8    Zn1   S    
C1    O1    A    
C3    H6    S    
O1    Zn1   S    
C4    C9    S    
C10   O5    A    
C11   O8    A    
C9    O2    A    
C12   C14   T    
C1    C3    S    
