data_mof_unit_66065.cif
_audit_creation_date              2013-03-05T16:28:25-0500
_audit_creation_method            fapswitch 2.2
_symmetry_space_group_name_H-M    P1
_symmetry_Int_Tables_number       1
_space_group_crystal_system       triclinic
_cell_length_a                    18.269902
_cell_length_b                    18.267925
_cell_length_c                    21.402233
_cell_angle_alpha                 90.084581
_cell_angle_beta                  89.99146
_cell_angle_gamma                 89.994869
_cell_volume                      7143.05584878

loop_
_atom_site_label
_atom_site_type_symbol
_atom_site_description
_atom_site_fract_x
_atom_site_fract_y
_atom_site_fract_z
_atom_type_partial_charge
O1    O     O_R   0.439410 0.107330 0.500000 -0.622226
O2    O     O_R   0.439410 0.892670 0.500000 -0.622362
O3    O     O_R   0.939410 0.607330 0.000000 -0.621340
O4    O     O_R   0.939410 0.392670 0.000000 -0.623202
O5    O     O_R   0.560610 0.107310 0.500000 -0.622278
O6    O     O_R   0.560610 0.892690 0.500000 -0.622161
O7    O     O_R   0.060610 0.607310 0.000000 -0.621432
O8    O     O_R   0.060610 0.392690 0.000000 -0.623123
C1    C     C_R   0.500011 0.141248 0.500099 0.926841
C2    C     C_R   0.500016 0.858752 0.499901 0.926814
C3    C     C_R   0.000012 0.641247 0.999973 0.931469
C4    C     C_R   0.000018 0.358752 0.000029 0.922032
O9    O     O_R   0.439410 1.000000 0.593020 -0.625550
O10   O     O_R   0.439410 0.000000 0.406980 -0.625743
O11   O     O_R   0.939410 0.500000 0.093020 -0.625155
O12   O     O_R   0.939410 0.500000 0.906980 -0.625208
O13   O     O_R   0.560610 0.000000 0.593010 -0.624784
O14   O     O_R   0.560610 1.000000 0.406990 -0.624606
O15   O     O_R   0.060610 0.500000 0.093010 -0.625055
O16   O     O_R   0.060610 0.500000 0.906990 -0.625028
C5    C     C_R   0.500033 0.998382 0.621612 0.909099
C6    C     C_R   0.500053 0.001600 0.378387 0.909145
C7    C     C_R   0.000011 0.501590 0.121616 0.908968
C8    C     C_R   0.000022 0.501640 0.878388 0.908928
Zn1   Zn    Zn3+2 0.419080 1.000000 0.500000 0.941777
Zn2   Zn    Zn3+2 0.919080 0.500000 0.000000 0.942068
Zn3   Zn    Zn3+2 0.580940 1.000000 0.500000 0.942190
Zn4   Zn    Zn3+2 0.080940 0.500000 0.000000 0.941930
C9    C     C_3   0.561538 0.966629 0.729463 0.157818
C10   C     C_3   0.562283 0.032088 0.270525 0.157995
C11   C     C_3   0.442603 0.039701 0.270537 0.158305
C12   C     C_3   0.441728 0.961496 0.729473 0.158061
C13   C     C_3   0.940211 0.536100 0.229564 0.157875
C14   C     C_3   0.060329 0.535411 0.770511 0.157829
C15   C     C_3   0.940414 0.536559 0.770551 0.157858
C16   C     C_3   0.060134 0.535509 0.229572 0.157986
C17   C     C_3   0.503107 0.929621 0.770417 0.143209
C18   C     C_3   0.504627 0.070300 0.229581 0.143691
C19   C     C_3   0.000327 0.570253 0.270608 0.143603
C20   C     C_3   0.000685 0.570454 0.729580 0.143193
C21   C     C_3   0.500153 0.999024 0.811115 -0.127280
C22   C     C_3   0.500266 0.000975 0.188883 -0.127263
C23   C     C_3   0.999980 0.500759 0.311112 -0.127299
C24   C     C_3   0.000018 0.500986 0.688886 -0.127255
C25   C     C_3   0.558784 0.036113 0.770287 0.143944
C26   C     C_3   0.558115 0.962682 0.229702 0.142921
C27   C     C_3   0.438007 0.970299 0.229689 0.144871
C28   C     C_3   0.438546 0.030977 0.770315 0.145120
C29   C     C_3   0.939652 0.466532 0.270194 0.144024
C30   C     C_3   0.059874 0.465865 0.729683 0.144440
C31   C     C_3   0.939532 0.467013 0.729723 0.144595
C32   C     C_3   0.059999 0.465940 0.270201 0.143923
C33   C     C_3   0.497152 0.068368 0.729160 0.060387
C34   C     C_3   0.495820 0.931703 0.270834 0.060331
C35   C     C_3   0.999666 0.431409 0.228946 0.060632
C36   C     C_3   0.999381 0.431590 0.770848 0.060457
C37   C     C_3   0.500135 0.998466 0.688768 -0.166195
C38   C     C_3   0.500225 0.001525 0.311230 -0.166088
C39   C     C_3   0.000015 0.501406 0.188767 -0.166073
C40   C     C_3   0.000053 0.501556 0.811233 -0.166158
C41   C     C_1   0.500012 0.217742 0.500058 -0.200748
C42   C     C_1   0.500026 0.782258 0.499943 -0.200934
C43   C     C_1   0.000017 0.717742 0.999914 -0.199906
C44   C     C_1   0.000031 0.282259 0.000088 -0.201846
C45   C     C_1   0.500011 0.282541 0.499982 -0.190646
C46   C     C_1   0.500021 0.717459 0.500018 -0.191087
C47   C     C_1   0.000019 0.782543 0.999896 -0.188998
C48   C     C_1   0.000029 0.217461 0.000105 -0.192893
O17   O     O_R   0.607280 0.939410 0.000000 -0.622058
O18   O     O_R   0.607280 0.060590 0.000000 -0.622853
O19   O     O_R   0.107280 0.439410 0.500000 -0.622352
O20   O     O_R   0.107280 0.560590 0.500000 -0.622560
C49   C     C_R   0.641219 0.999998 0.000001 0.935835
C50   C     C_R   0.141219 0.499993 0.500002 0.936340
O21   O     O_R   0.499930 0.939410 0.906960 -0.626272
O22   O     O_R   0.499930 0.060590 0.093040 -0.626428
O23   O     O_R   0.499930 0.939410 0.093040 -0.629770
O24   O     O_R   0.499930 0.060590 0.906960 -0.629934
O25   O     O_R   0.999930 0.439410 0.406960 -0.629771
O26   O     O_R   0.999930 0.560590 0.593040 -0.626298
O27   O     O_R   0.999930 0.439410 0.593040 -0.629928
O28   O     O_R   0.999930 0.560590 0.406960 -0.626423
C51   C     C_R   0.500050 0.999808 0.878297 0.929051
C52   C     C_R   0.500112 0.000192 0.121702 0.928906
C53   C     C_R   0.999946 0.500106 0.378296 0.928901
C54   C     C_R   0.999965 0.500194 0.621703 0.929031
Zn5   Zn    Zn3+2 0.499940 0.919080 0.000000 0.942416
Zn6   Zn    Zn3+2 0.499940 0.080920 0.000000 0.940876
Zn7   Zn    Zn3+2 0.999940 0.419080 0.500000 0.938144
Zn8   Zn    Zn3+2 0.999940 0.580920 0.500000 0.945137
O29   O     O_R   0.392580 0.939390 0.000000 -0.622214
O30   O     O_R   0.392580 0.060610 0.000000 -0.622800
O31   O     O_R   0.892580 0.439390 0.500000 -0.622478
O32   O     O_R   0.892580 0.560610 0.500000 -0.622511
C55   C     C_R   0.358671 0.000003 0.999999 0.937105
C56   C     C_R   0.858671 0.499999 0.499998 0.936674
O33   O     O_R   0.607360 0.500000 0.552500 -0.620790
O34   O     O_R   0.607360 0.500000 0.447500 -0.620846
O35   O     O_R   0.107360 0.000000 0.052500 -0.620613
O36   O     O_R   0.107360 1.000000 0.947500 -0.620689
C57   C     C_R   0.640952 0.499990 0.499996 0.926975
C58   C     C_R   0.140952 0.000013 0.999996 0.926957
O37   O     O_R   0.500010 0.392660 0.552500 -0.623176
O38   O     O_R   0.500010 0.607340 0.447500 -0.623529
O39   O     O_R   0.500010 0.392660 0.447500 -0.619703
O40   O     O_R   0.500010 0.607340 0.552500 -0.620038
O41   O     O_R   0.000010 0.892660 0.052500 -0.620267
O42   O     O_R   0.000010 0.107340 0.947500 -0.622261
O43   O     O_R   0.000010 0.892660 0.947500 -0.620861
O44   O     O_R   0.000010 0.107340 0.052500 -0.622898
C59   C     C_R   0.500011 0.359050 0.499978 0.926883
C60   C     C_R   0.500013 0.640950 0.500023 0.926318
C61   C     C_R   0.000017 0.859052 0.999962 0.927490
C62   C     C_R   0.000019 0.140952 0.000039 0.925637
Zn9   Zn    Zn3+2 0.500000 0.500000 0.570120 0.955567
Zn10  Zn    Zn3+2 0.500000 0.500000 0.429880 0.955627
Zn11  Zn    Zn3+2 0.000000 1.000000 0.070120 0.955403
Zn12  Zn    Zn3+2 0.000000 1.000000 0.929880 0.955517
O45   O     O_R   0.392660 0.500000 0.552510 -0.620575
O46   O     O_R   0.392660 0.500000 0.447490 -0.620495
O47   O     O_R   0.892660 0.000000 0.052510 -0.620764
O48   O     O_R   0.892660 1.000000 0.947490 -0.620672
C63   C     C_R   0.359049 0.499987 0.500004 0.926693
C64   C     C_R   0.859049 0.000010 0.000004 0.926670
C65   C     C_1   0.717724 0.999997 0.000007 -0.198659
C66   C     C_1   0.217724 0.499976 0.500008 -0.198566
C67   C     C_1   0.282528 0.499974 0.500010 -0.189138
C68   C     C_1   0.782529 0.000004 0.000010 -0.189345
C69   C     C_1   0.282209 0.000012 0.999993 -0.198330
C70   C     C_1   0.782209 0.499991 0.499992 -0.198431
C71   C     C_1   0.717430 0.499985 0.499990 -0.188950
C72   C     C_1   0.217430 0.000016 0.999990 -0.188788
C73   C     C_3   0.506562 0.850367 0.792276 -0.849656
H1    H     H_    0.508526 0.813447 0.751088 0.235753
H2    H     H_    0.556426 0.841828 0.820955 0.247213
H3    H     H_    0.457282 0.837298 0.820446 0.248335
C74   C     C_3   0.509736 0.149459 0.207709 -0.850635
H4    H     H_    0.512636 0.186327 0.248890 0.235913
H5    H     H_    0.559680 0.156894 0.178895 0.246689
H6    H     H_    0.460662 0.163612 0.179671 0.248416
C75   C     C_3   0.000713 0.649605 0.292618 -0.849917
H7    H     H_    0.951113 0.660702 0.321025 0.247759
H8    H     H_    0.050363 0.660179 0.321091 0.247571
H9    H     H_    0.000946 0.686537 0.251498 0.235649
C76   C     C_3   0.001442 0.649782 0.707725 -0.849665
H10   H     H_    0.001889 0.686745 0.748917 0.235687
H11   H     H_    0.051120 0.660083 0.679228 0.247660
H12   H     H_    0.951877 0.661096 0.679378 0.247893
C77   C     C_3   0.631195 0.929605 0.706376 -0.851707
H13   H     H_    0.663244 0.909492 0.746904 0.236404
H14   H     H_    0.616874 0.882665 0.675754 0.240173
H15   H     H_    0.664865 0.969364 0.679783 0.252368
C78   C     C_3   0.632707 0.067679 0.293534 -0.851601
H16   H     H_    0.665137 0.087082 0.252967 0.235850
H17   H     H_    0.619382 0.114940 0.324130 0.240598
H18   H     H_    0.665572 0.027252 0.320127 0.252287
C79   C     C_3   0.377380 0.083809 0.293969 -0.855398
H19   H     H_    0.347421 0.107316 0.253611 0.237448
H20   H     H_    0.339861 0.047756 0.320660 0.252914
H21   H     H_    0.396756 0.128866 0.324624 0.238768
C80   C     C_3   0.375594 0.918730 0.706118 -0.854332
H22   H     H_    0.345207 0.895854 0.746513 0.237493
H23   H     H_    0.338784 0.955540 0.679464 0.252819
H24   H     H_    0.394015 0.873274 0.675454 0.238908
C81   C     C_3   0.872452 0.576378 0.206454 -0.853438
H25   H     H_    0.841302 0.598032 0.246975 0.236773
H26   H     H_    0.889067 0.622546 0.175936 0.239467
H27   H     H_    0.836998 0.538245 0.179729 0.252726
C82   C     C_3   0.128677 0.574699 0.793684 -0.852905
H28   H     H_    0.160097 0.595907 0.753199 0.236869
H29   H     H_    0.112751 0.621098 0.824333 0.239567
H30   H     H_    0.163606 0.536051 0.820283 0.252579
C83   C     C_3   0.872856 0.577137 0.793821 -0.853329
H31   H     H_    0.841796 0.598972 0.753383 0.237062
H32   H     H_    0.837232 0.539151 0.820447 0.252737
H33   H     H_    0.889702 0.623200 0.824475 0.239272
C84   C     C_3   0.128304 0.575123 0.206499 -0.853458
H34   H     H_    0.159625 0.596454 0.247039 0.236607
H35   H     H_    0.163413 0.536649 0.179782 0.252648
H36   H     H_    0.112168 0.621464 0.175987 0.239607
C85   C     C_3   0.626141 0.075645 0.795185 -0.899485
H37   H     H_    0.656258 0.101268 0.755865 0.245970
H38   H     H_    0.609713 0.118375 0.829234 0.244433
H39   H     H_    0.662470 0.035874 0.819115 0.242199
C86   C     C_3   0.624680 0.921774 0.204837 -0.897325
H40   H     H_    0.654271 0.895609 0.244182 0.245783
H41   H     H_    0.607429 0.879329 0.170835 0.244903
H42   H     H_    0.661797 0.960779 0.180866 0.241983
C87   C     C_3   0.366970 0.938117 0.204566 -0.901862
H43   H     H_    0.334315 0.915442 0.243732 0.247290
H44   H     H_    0.334971 0.981599 0.180837 0.242666
H45   H     H_    0.379002 0.894198 0.170269 0.242833
C88   C     C_3   0.368159 0.064628 0.795409 -0.902353
H46   H     H_    0.335977 0.087902 0.756220 0.246988
H47   H     H_    0.335287 0.021838 0.819185 0.242717
H48   H     H_    0.381050 0.108350 0.829654 0.242989
C89   C     C_3   0.870562 0.430215 0.295108 -0.900110
H49   H     H_    0.839280 0.405891 0.255796 0.246647
H50   H     H_    0.885054 0.386885 0.329137 0.243761
H51   H     H_    0.836116 0.471682 0.319077 0.242362
C90   C     C_3   0.128459 0.428582 0.704678 -0.900693
H52   H     H_    0.159416 0.403847 0.743932 0.246352
H53   H     H_    0.113382 0.385436 0.670560 0.243948
H54   H     H_    0.163463 0.469556 0.680792 0.242384
C91   C     C_3   0.870263 0.431042 0.704728 -0.901135
H55   H     H_    0.838874 0.406836 0.743980 0.246608
H56   H     H_    0.836008 0.472688 0.680901 0.242490
H57   H     H_    0.884539 0.387669 0.670559 0.243645
C92   C     C_3   0.128732 0.428952 0.295111 -0.899789
H58   H     H_    0.159808 0.404354 0.255793 0.246508
H59   H     H_    0.163550 0.470075 0.319103 0.242292
H60   H     H_    0.113819 0.385740 0.329118 0.243956
C93   C     C_3   0.493897 0.144103 0.698462 -0.392302
C94   C     C_3   0.491238 0.206796 0.745956 -0.336229
C95   C     C_3   0.488018 0.280736 0.712934 -0.859669
H61   H     H_    0.537257 0.288525 0.683201 0.267831
H62   H     H_    0.438208 0.284278 0.683315 0.266209
H63   H     H_    0.486151 0.325334 0.748205 0.244142
H64   H     H_    0.442179 0.201377 0.776079 0.230949
H65   H     H_    0.540642 0.205624 0.775996 0.230696
H66   H     H_    0.542924 0.150578 0.668207 0.199680
H67   H     H_    0.444455 0.146378 0.668264 0.202116
C96   C     C_3   0.491023 0.856040 0.301513 -0.392534
C97   C     C_3   0.487035 0.793436 0.254002 -0.335503
C98   C     C_3   0.482386 0.719560 0.287002 -0.860335
H68   H     H_    0.531508 0.710759 0.316658 0.268006
H69   H     H_    0.432565 0.717014 0.316694 0.265574
H70   H     H_    0.479563 0.675027 0.251718 0.244489
H71   H     H_    0.438046 0.799863 0.223952 0.231181
H72   H     H_    0.536402 0.793620 0.223890 0.230787
H73   H     H_    0.539925 0.848537 0.331731 0.199160
H74   H     H_    0.441564 0.854779 0.331746 0.202692
C99   C     C_3   0.999292 0.355647 0.197985 -0.392251
C100  C     C_3   0.999064 0.292835 0.245257 -0.336693
C101  C     C_3   0.998575 0.218873 0.211972 -0.858614
H75   H     H_    0.948892 0.213513 0.182385 0.266615
H76   H     H_    0.048027 0.212976 0.182163 0.266957
H77   H     H_    0.998437 0.174186 0.247083 0.244016
H78   H     H_    0.048437 0.295820 0.275250 0.230941
H79   H     H_    0.949885 0.296372 0.275451 0.231001
H80   H     H_    0.949960 0.351538 0.167789 0.201227
H81   H     H_    0.048516 0.351079 0.167695 0.200845
C102  C     C_3   0.998677 0.355800 0.801564 -0.391973
C103  C     C_3   0.998068 0.293037 0.754087 -0.336705
C104  C     C_3   0.997395 0.219043 0.787130 -0.859103
H82   H     H_    0.046924 0.212917 0.816784 0.267168
H83   H     H_    0.947790 0.213849 0.816832 0.266853
H84   H     H_    0.996962 0.174396 0.751872 0.244001
H85   H     H_    0.948808 0.296794 0.724030 0.230888
H86   H     H_    0.047357 0.295863 0.723979 0.230814
H87   H     H_    0.047924 0.350962 0.831774 0.200792
H88   H     H_    0.949369 0.351898 0.831811 0.201352

loop_
_geom_bond_atom_site_label_1
_geom_bond_atom_site_label_2
_geom_bond_distance
_ccdc_geom_bond_type
O1    Zn1   1.995600 S    
C66   C67   1.183976 T    
Zn5   O29   1.996206 S    
C28   C88   1.522727 S    
C87   H45   1.108602 S    
C90   H53   1.108478 S    
C90   H52   1.109551 S    
O39   Zn10  1.997358 S    
O15   C7    1.265377 A    
C96   C97   1.530952 S    
O41   Zn11  1.996265 S    
O26   Zn8   2.026138 S    
C16   C39   1.534946 S    
O18   Zn6   1.995915 S    
C97   C98   1.526497 S    
O22   C52   1.263203 A    
C80   H22   1.109618 S    
C7    C39   1.437199 S    
C25   C85   1.522854 S    
C29   C89   1.522738 S    
C91   H55   1.109548 S    
O7    C3    1.268827 A    
C74   H5    1.109707 S    
C81   H25   1.109624 S    
C103  H86   1.108476 S    
C20   C76   1.523497 S    
C1    C41   1.397388 S    
C44   C48   1.183724 T    
C11   C38   1.534623 S    
C58   C72   1.397240 S    
C18   C22   1.538079 S    
C3    C43   1.397406 S    
C94   H64   1.108533 S    
C75   H8    1.109663 S    
C22   C26   1.539980 S    
C4    C44   1.397371 S    
C23   C32   1.539990 S    
C86   H41   1.108412 S    
C77   H13   1.109635 S    
C13   C29   1.540986 S    
C102  C103  1.530927 S    
C21   C51   1.437896 S    
C92   H60   1.108502 S    
C103  C104  1.526515 S    
C10   C18   1.538402 S    
O37   C59   1.280052 A    
C31   C36   1.546250 S    
Zn12  O48   1.996926 S    
O42   C62   1.280375 A    
C89   H50   1.108511 S    
Zn11  O47   1.997036 S    
O41   C61   1.280328 A    
O47   C64   1.280664 A    
O26   C54   1.263182 A    
C100  H78   1.108493 S    
C76   H11   1.109662 S    
C13   C39   1.534882 S    
O5    Zn3   1.995176 S    
C93   H66   1.111623 S    
O24   C51   1.267760 A    
C21   C28   1.540071 S    
C10   C78   1.523174 S    
C45   C59   1.397664 S    
O34   Zn10  1.997432 S    
C19   C75   1.523571 S    
Zn7   O31   1.996206 S    
C91   H57   1.108509 S    
C30   C90   1.522812 S    
C73   H3    1.109670 S    
C101  H75   1.111072 S    
O17   C49   1.268715 A    
C78   H17   1.109817 S    
C99   C100  1.530914 S    
O44   C62   1.280516 A    
O27   C54   1.267790 A    
C16   C32   1.540950 S    
C32   C35   1.546377 S    
O43   C61   1.280488 A    
C64   C68   1.398022 S    
C69   C72   1.183513 T    
O27   Zn7   2.025060 S    
C88   H48   1.108578 S    
O11   C7    1.265456 A    
O39   C59   1.280799 A    
C74   H4    1.109721 S    
C25   C33   1.546472 S    
O12   C8    1.265503 A    
C11   C27   1.541273 S    
C104  H82   1.111078 S    
C14   C40   1.535011 S    
C90   H54   1.109827 S    
C101  H76   1.111077 S    
O9    Zn1   2.025242 S    
C2    C42   1.397386 S    
O36   Zn12  1.997432 S    
C12   C37   1.534714 S    
C35   C99   1.533603 S    
C24   C54   1.437916 S    
O44   Zn11  1.997356 S    
C80   H24   1.109854 S    
C80   H23   1.109530 S    
C96   H73   1.111628 S    
O43   Zn12  1.997358 S    
Zn8   O32   1.996271 S    
C85   H38   1.108449 S    
O12   Zn2   2.025135 S    
C28   C33   1.546116 S    
C74   H6    1.109661 S    
C43   C47   1.183775 T    
O4    Zn2   1.995536 S    
C14   C30   1.540906 S    
C102  H87   1.111606 S    
C103  H85   1.108496 S    
C42   C46   1.183752 T    
O9    C5    1.265822 A    
O13   Zn3   2.024921 S    
C82   H28   1.109625 S    
Zn6   O30   1.996271 S    
O1    C1    1.268811 A    
O20   C50   1.268760 A    
C77   H15   1.109545 S    
O38   C60   1.280053 A    
C33   C37   1.541960 S    
C94   C95   1.526506 S    
C23   C29   1.539970 S    
C86   H42   1.109870 S    
O40   C60   1.280797 A    
O16   Zn4   2.025032 S    
O23   C52   1.267750 A    
C88   H47   1.109868 S    
C85   H37   1.109553 S    
O29   C55   1.268759 A    
C16   C19   1.538196 S    
O30   C55   1.268749 A    
O13   C5    1.265049 A    
O7    Zn4   1.995176 S    
Zn10  O46   1.996926 S    
C79   H19   1.109620 S    
C9    C25   1.540716 S    
C15   C40   1.534930 S    
C23   C53   1.437950 S    
C27   C87   1.522685 S    
C89   H51   1.109828 S    
O37   Zn9   1.996265 S    
C95   H61   1.111113 S    
O5    C1    1.268850 A    
C82   H30   1.109506 S    
C97   H72   1.108441 S    
O35   Zn11  1.997322 S    
O20   Zn8   1.995915 S    
C93   H67   1.111592 S    
C63   C67   1.398026 S    
O6    Zn3   1.995243 S    
O19   Zn7   1.995980 S    
C93   C94   1.530939 S    
O8    C4    1.268851 A    
C84   H36   1.109805 S    
C12   C80   1.522908 S    
C26   C34   1.546548 S    
O18   C49   1.268683 A    
O36   C58   1.280314 A    
C92   H58   1.109545 S    
C22   C52   1.437877 S    
C13   C19   1.538175 S    
C12   C17   1.538247 S    
C78   H18   1.109548 S    
O32   C56   1.268825 A    
O15   Zn4   2.024921 S    
C83   H32   1.109501 S    
O42   Zn12  1.996263 S    
C11   C79   1.522881 S    
C14   C82   1.523034 S    
C84   H34   1.109630 S    
C27   C34   1.546023 S    
C21   C25   1.540012 S    
C57   C71   1.397240 S    
C24   C31   1.540025 S    
O21   Zn5   2.026140 S    
C81   H27   1.109501 S    
C36   C102  1.533612 S    
C9    C37   1.535251 S    
C50   C66   1.397739 S    
O31   C56   1.268682 A    
Zn9   O45   1.997036 S    
C104  H83   1.111069 S    
C15   C31   1.540977 S    
C73   H1    1.109722 S    
O8    Zn4   1.995243 S    
C101  H77   1.110363 S    
C14   C20   1.538325 S    
C95   H63   1.110362 S    
O4    C4    1.268818 A    
C100  C101  1.526527 S    
C79   H20   1.109525 S    
C98   H70   1.110367 S    
O2    C2    1.268795 A    
O34   C57   1.280310 A    
C35   C39   1.542012 S    
C76   H10   1.109711 S    
O25   C53   1.267989 A    
C76   H12   1.109655 S    
C96   H74   1.111582 S    
C56   C70   1.396950 S    
C82   H29   1.109803 S    
C83   H33   1.109809 S    
C24   C30   1.540047 S    
C87   H43   1.109538 S    
O22   Zn6   2.026138 S    
O24   Zn6   2.025062 S    
C33   C93   1.533616 S    
C102  H88   1.111598 S    
C85   H39   1.109870 S    
C98   H68   1.111113 S    
O14   C6    1.264874 A    
C10   C26   1.540609 S    
O3    Zn2   1.995600 S    
C13   C81   1.523043 S    
O14   Zn3   2.025032 S    
O11   Zn2   2.025242 S    
O17   Zn5   1.995980 S    
C6    C38   1.437296 S    
O19   C50   1.268638 A    
C19   C23   1.538323 S    
O46   C63   1.280647 A    
C11   C18   1.538231 S    
C75   H9    1.109715 S    
O45   C63   1.280662 A    
C79   H21   1.109859 S    
O28   C53   1.263003 A    
C9    C77   1.523108 S    
C5    C37   1.437282 S    
C16   C84   1.523068 S    
C15   C83   1.523007 S    
C86   H40   1.109552 S    
O28   Zn8   2.025062 S    
C100  H79   1.108497 S    
O40   Zn9   1.997356 S    
O38   Zn10  1.996263 S    
O10   C6    1.265999 A    
C77   H14   1.109828 S    
C70   C71   1.183511 T    
C47   C61   1.397670 S    
C29   C35   1.546330 S    
C97   H71   1.108541 S    
C32   C92   1.522747 S    
O21   C51   1.263204 A    
C34   C96   1.533612 S    
C12   C28   1.541176 S    
C65   C68   1.183977 T    
C49   C65   1.397743 S    
C31   C91   1.522775 S    
C10   C38   1.535395 S    
C98   H69   1.111057 S    
C18   C74   1.523470 S    
C84   H35   1.109503 S    
C15   C20   1.538276 S    
O2    Zn1   1.995536 S    
C17   C73   1.523477 S    
C22   C27   1.540071 S    
C26   C86   1.522875 S    
C17   C21   1.538104 S    
C89   H49   1.109542 S    
C55   C69   1.396946 S    
C30   C36   1.546336 S    
O25   Zn7   2.026140 S    
C95   H62   1.111072 S    
O3    C3    1.268822 A    
O6    C2    1.268864 A    
C83   H31   1.109623 S    
C36   C40   1.541950 S    
C99   H81   1.111603 S    
C20   C24   1.538136 S    
O35   C58   1.280293 A    
C34   C38   1.541958 S    
O10   Zn1   2.025135 S    
O23   Zn5   2.025060 S    
C81   H26   1.109808 S    
C88   H46   1.109542 S    
C104  H84   1.110363 S    
C9    C17   1.538359 S    
C73   H2    1.109702 S    
O33   Zn9   1.997322 S    
C92   H59   1.109831 S    
C94   H65   1.108467 S    
C8    C40   1.437270 S    
C46   C60   1.397668 S    
C78   H16   1.109640 S    
C75   H7    1.109657 S    
C91   H56   1.109826 S    
O48   C64   1.280644 A    
O16   C8    1.265372 A    
O33   C57   1.280294 A    
C99   H80   1.111602 S    
C48   C62   1.397659 S    
C87   H44   1.109869 S    
C41   C45   1.183750 T    
