data_mof_unit_22745.cif
_audit_creation_date              2012-12-10T20:38:16-0500
_audit_creation_method            fapswitch 2.2
_symmetry_space_group_name_H-M    P1
_symmetry_Int_Tables_number       1
_space_group_crystal_system       triclinic
_cell_length_a                    9.856226
_cell_length_b                    10.692883
_cell_length_c                    16.630154
_cell_angle_alpha                 90.104532
_cell_angle_beta                  85.287661
_cell_angle_gamma                 90.022788
_cell_volume                      1746.74889831

loop_
_atom_site_label
_atom_site_type_symbol
_atom_type_description
_atom_site_fract_x
_atom_site_fract_y
_atom_site_fract_z
_atom_type_partial_charge
C1    C     C_R   0.500414 0.740081 0.497758 0.913168
C2    C     C_R   0.351188 0.484980 0.786933 -0.208563
C3    C     C_R   0.416676 0.450528 0.137590 -0.147729
C4    C     C_R   0.414439 0.490515 0.216884 -0.212997
C5    C     C_R   0.648944 0.423604 0.221618 -0.201937
C6    C     C_R   0.650953 0.382899 0.142065 -0.181758
C7    C     C_R   0.533754 0.392846 0.100414 0.206386
C8    C     C_2   0.428645 0.330330 0.977851 -0.246773
C9    C     C_2   0.540584 0.355580 0.015501 -0.231450
C10   C     C_R   0.529486 0.475087 0.259831 -0.030660
C11   C     C_R   0.385389 0.936480 0.471434 0.033259
C12   C     C_R   0.480896 0.494138 0.653257 0.870204
C13   C     C_R   0.503669 0.871421 0.485407 -0.068412
C14   C     C_R   0.628262 0.935413 0.483502 -0.232366
C15   C     C_R   0.628404 0.064500 0.483775 -0.223476
C16   C     C_R   0.503974 0.128595 0.485547 -0.062076
C17   C     C_R   0.385779 0.063964 0.471273 0.047994
C18   C     C_3   0.244014 0.072040 0.510281 -0.525223
C19   C     C_3   0.242217 0.929807 0.509085 0.352753
C20   C     C_R   0.919263 0.489602 0.570514 0.224365
C21   C     C_R   0.937506 0.525885 0.431428 -0.149935
C22   C     C_R   0.081422 0.526038 0.431452 -0.152177
C23   C     C_R   0.500501 0.259924 0.497906 0.882729
C24   C     C_R   0.061684 0.488871 0.570373 0.184544
C25   C     C_3   0.060162 0.381371 0.627061 -0.494527
C26   C     C_3   0.906054 0.382548 0.627935 -0.518709
C27   C     C_R   0.518789 0.497862 0.346375 0.851913
C28   C     C_R   0.466878 0.452898 0.736564 -0.024072
C29   C     C_R   0.559483 0.365038 0.762122 -0.216612
C30   C     C_R   0.541861 0.315892 0.839295 -0.155770
C31   C     C_R   0.431054 0.354312 0.891550 0.204181
C32   C     C_R   0.333320 0.435604 0.864386 -0.167636
H1    H     H_    0.643528 0.332080 0.721837 0.146084
H2    H     H_    0.743264 0.342143 0.113336 0.125159
H3    H     H_    0.723947 0.887063 0.487739 0.174476
H4    H     H_    0.724104 0.112784 0.488504 0.166165
H5    H     H_    0.240389 0.112686 0.572012 0.220420
H6    H     H_    0.172399 0.114457 0.469846 0.163801
H7    H     H_    0.172187 0.889622 0.466288 0.047321
H8    H     H_    0.891249 0.543179 0.375781 0.149571
H9    H     H_    0.142886 0.543701 0.375808 0.147706
H10   H     H_    0.107463 0.296255 0.598658 0.211383
H11   H     H_    0.321915 0.531772 0.244955 0.141178
H12   H     H_    0.097713 0.407847 0.685969 0.201145
H13   H     H_    0.863197 0.297314 0.601113 0.210094
H14   H     H_    0.856499 0.411339 0.687428 0.197576
H15   H     H_    0.738928 0.410606 0.253933 0.149622
H16   H     H_    0.638590 0.365873 0.981071 0.150773
H17   H     H_    0.247475 0.466087 0.904520 0.122579
H18   H     H_    0.327187 0.467011 0.105607 0.121853
H19   H     H_    0.276135 0.549222 0.766721 0.138903
H20   H     H_    0.330135 0.320570 0.011541 0.146359
H21   H     H_    0.616570 0.250952 0.859075 0.131831
N1    N     N_R   0.857140 0.500860 0.500530 -0.105652
N2    N     N_R   0.142780 0.500820 0.500530 -0.107004
O1    O     O_R   0.385310 0.683210 0.499990 -0.605631
O2    O     O_R   0.614650 0.683240 0.500000 -0.631031
O3    O     O_R   0.371780 0.500000 0.615800 -0.613902
O4    O     O_R   0.601120 0.500040 0.615800 -0.612951
O5    O     O_R   0.385350 0.316760 0.500000 -0.608470
O6    O     O_R   0.614690 0.316790 0.500010 -0.627269
O7    O     O_R   0.398880 0.499960 0.384200 -0.625675
O8    O     O_R   0.628220 0.500000 0.384200 -0.625957
Zn1   Zn    Zn3+2 0.346870 0.499980 0.499990 0.943016
Zn2   Zn    Zn3+2 0.653130 0.500020 0.500010 0.932182
O9    O     O_3   0.235934 0.879621 0.588117 -0.615280
C33   C     C_3   0.113889 0.811571 0.605206 0.142078
H22   H     H_    0.127588 0.751245 0.658261 0.156091
H23   H     H_    0.092784 0.747381 0.554985 0.123911
C34   C     C_3   0.992507 0.898953 0.625958 -0.417180
H24   H     H_    0.014389 0.960060 0.677459 0.237922
H25   H     H_    0.975677 0.959350 0.573393 0.211722
C35   C     C_3   0.862691 0.824532 0.648273 -0.938534
H26   H     H_    0.838638 0.763484 0.597237 0.271803
H27   H     H_    0.776312 0.889842 0.662102 0.272046
H28   H     H_    0.874878 0.765709 0.702192 0.261126

loop_
_geom_bond_atom_site_label_1
_geom_bond_atom_site_label_2
_ccdc_geom_bond_type
C10   C27   S    
O8    Zn2   S    
C35   H26   S    
N1    Zn2   S    
C24   N2    A    
C5    H15   S    
C11   C19   S    
C12   C28   S    
C5    C6    A    
C19   H7    S    
C28   C29   A    
C18   H5    S    
C3    C7    A    
C30   C31   A    
C22   H9    S    
C15   C16   A    
C29   H1    S    
C19   O9    S    
C2    C32   A    
C18   C19   S    
O7    Zn1   S    
C26   H13   S    
C12   O4    A    
C20   C24   A    
C16   C17   A    
O1    Zn1   S    
C34   H24   S    
C8    H20   S    
C12   O3    A    
O9    C33   S    
C21   C22   A    
C35   H27   S    
C25   H12   S    
C3    H18   S    
O3    Zn1   S    
C23   O5    A    
C30   H21   S    
C33   H22   S    
C24   C25   S    
C20   N1    A    
C14   H3    S    
C8    C9    D    
C25   C26   S    
C6    H2    S    
C33   H23   S    
C29   C30   A    
C27   O7    A    
C1    O2    A    
C31   C32   A    
N2    Zn1   S    
C34   C35   S    
C17   C18   S    
C6    C7    A    
C27   O8    A    
C16   C23   S    
C35   H28   S    
C1    C13   S    
C4    C10   A    
C3    C4    A    
C15   H4    S    
C7    C9    S    
C11   C17   A    
C8    C31   S    
C1    O1    A    
O2    Zn2   S    
C25   H10   S    
C2    C28   A    
C22   N2    A    
C4    H11   S    
O5    Zn1   S    
C33   C34   S    
C18   H6    S    
C5    C10   A    
O4    Zn2   S    
C11   C13   A    
C21   N1    A    
C21   H8    S    
C20   C26   S    
C32   H17   S    
C2    H19   S    
C26   H14   S    
O6    Zn2   S    
C23   O6    A    
C9    H16   S    
C14   C15   A    
C34   H25   S    
C13   C14   A    
