data_mof_unit_27114.cif
_audit_creation_date              2012-10-26T20:24:19-0400
_audit_creation_method            fapswitch 2.2
_symmetry_space_group_name_H-M    P1
_symmetry_Int_Tables_number       1
_space_group_crystal_system       triclinic
_cell_length_a                    15.661847
_cell_length_b                    11.153217
_cell_length_c                    10.032401
_cell_angle_alpha                 87.032999
_cell_angle_beta                  91.687691
_cell_angle_gamma                 89.76193
_cell_volume                      1749.32294142

loop_
_atom_site_label
_atom_site_type_symbol
_atom_type_description
_atom_site_fract_x
_atom_site_fract_y
_atom_site_fract_z
_atom_type_partial_charge
C1    C     C_R   0.497041 0.261359 0.501810 0.532771
C2    C     C_3   0.528582 0.922584 0.631313 -0.247060
C3    C     C_3   0.399732 0.075690 0.495817 -0.059696
C4    C     C_R   0.341517 0.496711 0.498859 0.586400
C5    C     C_3   0.542426 0.075092 0.377355 0.142512
C6    C     C_3   0.493593 0.122148 0.500744 -0.063566
C7    C     C_3   0.492736 0.878292 0.497699 -0.082807
C8    C     C_3   0.398352 0.935009 0.495440 0.079438
C9    C     C_3   0.554976 0.935254 0.392264 0.110347
C10   C     C_3   0.509618 0.624136 0.073027 0.223077
C11   C     C_3   0.520773 0.624808 0.911783 0.167212
C12   C     C_3   0.083497 0.489892 0.499632 -0.021407
C13   C     C_3   0.578517 0.433340 0.090637 0.046969
C14   C     C_3   0.427085 0.436365 0.070747 0.163995
C15   C     C_3   0.574915 0.421852 0.927120 0.326732
C16   C     C_R   0.495223 0.738757 0.498110 0.622321
C17   C     C_3   0.419148 0.467208 0.914816 -0.131132
C18   C     C_R   0.658486 0.497956 0.501816 0.578674
C19   C     C_3   0.972652 0.383429 0.549764 0.106447
C20   C     C_3   0.025393 0.404992 0.422549 -0.130865
C21   C     C_1   0.251467 0.492556 0.496564 0.085243
C22   C     C_1   0.748552 0.495998 0.505757 0.105609
C23   C     C_3   0.974573 0.576627 0.582206 0.111276
C24   C     C_3   0.031763 0.468227 0.625411 0.270994
C25   C     C_3   0.916438 0.492102 0.505341 -0.010640
C26   C     C_3   0.027232 0.598920 0.455167 -0.122628
C27   C     C_3   0.967633 0.514047 0.378100 -0.133917
C28   C     C_1   0.175462 0.490409 0.496809 0.037009
C29   C     C_1   0.824540 0.494168 0.506625 0.050081
C30   C     C_3   0.536726 0.060237 0.626404 -0.238451
Cu1   Cu    Cu3+1 0.500040 0.499860 0.642410 1.073575
Cu2   Cu    Cu3+1 0.499960 0.500140 0.357590 1.136000
H1    H     H_    0.047861 0.334810 0.357082 0.170982
H2    H     H_    0.573620 0.344209 0.141755 0.184189
H3    H     H_    0.939403 0.532941 0.276326 0.186072
H4    H     H_    0.051251 0.687090 0.416298 0.183141
H5    H     H_    0.508267 0.090825 0.716874 0.268817
H6    H     H_    0.605236 0.080757 0.624261 0.249998
H7    H     H_    0.592045 0.885343 0.652915 0.291114
H8    H     H_    0.776476 0.925631 0.554400 0.402337
H9    H     H_    0.258850 0.716243 0.339691 0.386339
H10   H     H_    0.751692 0.739580 0.917207 0.400280
H11   H     H_    0.256989 0.305197 0.277413 0.365839
H12   H     H_    0.488061 0.892502 0.715898 0.175599
H13   H     H_    0.631483 0.278637 0.702260 0.350251
H14   H     H_    0.027357 0.409466 0.986799 0.382484
H15   H     H_    0.371526 0.903347 0.592388 0.166736
H16   H     H_    0.534520 0.899195 0.297233 0.175427
H17   H     H_    0.365351 0.116047 0.406599 0.217633
H18   H     H_    0.471388 0.686070 0.864455 0.134207
H19   H     H_    0.441080 0.339471 0.077454 0.182003
H20   H     H_    0.370743 0.539697 0.894106 0.165675
H21   H     H_    0.392120 0.390829 0.861848 0.227607
I1    I     I_    0.322693 0.139653 0.653719 -0.138622
I2    I     I_    0.470127 0.107351 0.191484 -0.066709
I3    I     I_    0.661918 0.173973 0.349177 -0.111834
I4    I     I_    0.608384 0.722995 0.167935 0.032567
I5    I     I_    0.925640 0.213047 0.621718 -0.083332
I6    I     I_    0.402567 0.739324 0.098127 -0.059201
I7    I     I_    0.714626 0.448982 0.169055 -0.111513
I8    I     I_    0.709980 0.439215 0.850935 -0.013401
I9    I     I_    0.930560 0.713311 0.705844 -0.109406
N1    N     N_3   0.501840 0.500250 0.143650 -0.330938
N2    N     N_3   0.501160 0.503300 0.856280 -0.353781
O1    O     O_R   0.500050 0.317570 0.620260 -0.490878
O2    O     O_2   0.718226 0.914377 0.299279 -0.184381
O3    O     O_3   0.717927 0.959656 0.547801 -0.510939
O4    O     O_2   0.230813 0.921133 0.443563 -0.243145
O5    O     O_2   0.318418 0.942776 0.248248 -0.205270
O6    O     O_3   0.315310 0.735873 0.379887 -0.514098
O7    O     O_2   0.643517 0.696348 0.717057 -0.224550
O8    O     O_2   0.601864 0.837592 0.880540 -0.287724
O9    O     O_3   0.710874 0.676715 0.946871 -0.457750
O10   O     O_2   0.281379 0.539710 0.172089 -0.247585
O11   O     O_2   0.263241 0.376419 0.024308 -0.218888
O12   O     O_R   0.499980 0.317810 0.379740 -0.488847
O13   O     O_3   0.318252 0.320468 0.261923 -0.514338
O14   O     O_2   0.609806 0.191596 0.015999 -0.204773
O15   O     O_2   0.478928 0.219268 0.881028 -0.302513
O16   O     O_3   0.630379 0.216488 0.775218 -0.486882
O17   O     O_2   0.128414 0.323722 0.791286 -0.203261
O18   O     O_2   0.133774 0.540006 0.825606 -0.224893
O19   O     O_3   0.997943 0.422740 0.898441 -0.465948
O20   O     O_R   0.379110 0.499870 0.620240 -0.519978
O21   O     O_R   0.379040 0.500110 0.379720 -0.395527
O22   O     O_R   0.500020 0.682190 0.620260 -0.487205
O23   O     O_R   0.499950 0.682430 0.379740 -0.448360
O24   O     O_R   0.620960 0.499890 0.620280 -0.467776
O25   O     O_R   0.620890 0.500130 0.379760 -0.481094
O26   O     O_2   0.674914 0.756650 0.458920 -0.268377
S1    S     S_3+6 0.668542 0.888513 0.423453 0.040357
S2    S     S_3+6 0.314233 0.885229 0.386166 0.025181
S3    S     S_3+6 0.619612 0.707684 0.858482 0.048562
S4    S     S_3+6 0.319663 0.423562 0.133437 0.060482
S5    S     S_3+6 0.569152 0.261141 0.898767 0.040729
S6    S     S_3+6 0.076925 0.437831 0.789017 0.094597

loop_
_geom_bond_atom_site_label_1
_geom_bond_atom_site_label_2
_ccdc_geom_bond_type
C22   C29   T    
O10   S4    D    
C5    I3    S    
C2    C7    S    
O9    S3    S    
C3    C6    S    
C9    S1    S    
C10   N1    S    
C3    H17   S    
C7    C8    S    
C13   I7    S    
C5    C9    S    
C26   C27   S    
C12   C28   S    
C24   S6    S    
C17   N2    S    
C15   S5    S    
C5    C6    S    
C3    I1    S    
Cu2   O21   S    
O13   S4    S    
C30   H6    S    
Cu1   O1    S    
C23   C26   S    
C2    H7    S    
C23   I9    S    
Cu1   Cu2   S    
C2    H12   S    
H8    O3    S    
C4    O20   A    
C16   O23   A    
C1    O1    A    
C15   N2    S    
C8    S2    S    
O5    S2    D    
C11   S3    S    
Cu1   O22   S    
C16   O22   A    
C18   O25   A    
C14   C17   S    
C17   H20   S    
C19   I5    S    
C25   C29   S    
O18   S6    D    
C1    C6    S    
C10   I4    S    
C3    C8    S    
O17   S6    D    
C4    O21   A    
C27   H3    S    
Cu2   O23   S    
C18   O24   A    
Cu1   O20   S    
C30   H5    S    
C12   C26   S    
O15   S5    D    
Cu2   O25   S    
C13   N1    S    
O14   S5    D    
C23   C24   S    
C12   C20   S    
O3    S1    S    
C15   I8    S    
O16   S5    S    
C9    H16   S    
O8    S3    D    
C26   H4    S    
C7    C16   S    
C6    C30   S    
C21   C28   T    
C11   N2    S    
C13   C15   S    
C25   C27   S    
C20   H1    S    
C17   H21   S    
C7    C9    S    
H10   O9    S    
Cu1   O24   S    
C18   C22   S    
C1    O12   A    
Cu1   N2    S    
C5    I2    S    
O6    S2    S    
Cu2   N1    S    
Cu2   O12   S    
O2    S1    D    
O7    S3    D    
C20   C27   S    
H11   O13   S    
C12   C24   S    
C2    C30   S    
C19   C20   S    
C10   I6    S    
C8    H15   S    
C13   H2    S    
C11   H18   S    
C4    C21   S    
O26   S1    D    
O19   S6    S    
C14   N1    S    
O4    S2    D    
C19   C24   S    
H13   O16   S    
C23   C25   S    
C19   C25   S    
C10   C11   S    
H14   O19   S    
C14   H19   S    
C14   S4    S    
O11   S4    D    
H9    O6    S    
