data_mof_unit_63609.cif
_audit_creation_date              2013-03-05T16:41:23-0500
_audit_creation_method            fapswitch 2.2
_symmetry_space_group_name_H-M    P1
_symmetry_Int_Tables_number       1
_space_group_crystal_system       triclinic
_cell_length_a                    17.72461
_cell_length_b                    16.463304
_cell_length_c                    11.722046
_cell_angle_alpha                 90.048471
_cell_angle_beta                  90.200798
_cell_angle_gamma                 90.178553
_cell_volume                      3420.52029587

loop_
_atom_site_label
_atom_site_type_symbol
_atom_site_description
_atom_site_fract_x
_atom_site_fract_y
_atom_site_fract_z
_atom_type_partial_charge
O1    O     O_R   0.391260 0.567930 0.500000 -0.560091
O2    O     O_R   0.608740 0.432070 0.500000 -0.560167
O3    O     O_R   0.608740 0.567930 0.500000 -0.555772
O4    O     O_R   0.391260 0.432070 0.500000 -0.555740
C1    C     C_R   0.355515 0.499839 0.500109 0.944994
C2    C     C_R   0.644482 0.500160 0.499883 0.945168
O5    O     O_R   0.500010 0.567910 0.337200 -0.551864
O6    O     O_R   0.499990 0.432090 0.662800 -0.551859
O7    O     O_R   0.499990 0.567910 0.662800 -0.588719
O8    O     O_R   0.500010 0.432090 0.337200 -0.588723
C3    C     C_R   0.499958 0.499978 0.283581 0.859037
C4    C     C_R   0.500042 0.500022 0.716419 0.859019
Cu1   Cu    Cu3+1 0.500000 0.580420 0.500000 1.041790
Cu2   Cu    Cu3+1 0.500000 0.419580 0.500000 1.041785
C5    C     C_R   0.548904 0.828841 0.571895 0.280432
C6    C     C_R   0.451074 0.171158 0.428146 0.280434
C7    C     C_R   0.451212 0.828434 0.427956 0.277506
C8    C     C_R   0.548813 0.171568 0.572010 0.277494
C9    C     C_R   0.547813 0.743084 0.570363 0.047009
C10   C     C_R   0.452164 0.256915 0.429674 0.047115
C11   C     C_R   0.452303 0.742702 0.429490 0.053797
C12   C     C_R   0.547722 0.257300 0.570474 0.053719
H1    H     H_    0.585507 0.709775 0.625886 0.178296
H2    H     H_    0.414452 0.290223 0.374178 0.178276
H3    H     H_    0.414733 0.709121 0.373788 0.208236
H4    H     H_    0.585311 0.290883 0.626144 0.208148
N1    N     N_R   0.500000 0.701220 0.500000 -0.233548
N2    N     N_R   0.500000 0.298780 0.500000 -0.233533
C13   C     C_1   0.500014 0.962766 0.499987 0.212025
C14   C     C_1   0.499989 0.037234 0.500019 0.212027
C15   C     C_1   0.499963 0.499952 0.162100 -0.077269
C16   C     C_1   0.500039 0.500048 0.837900 -0.077293
C17   C     C_1   0.499984 0.499978 0.059793 0.082840
C18   C     C_1   0.500019 0.500022 0.940207 0.082835
C19   C     C_R   0.500040 0.873048 0.499952 -0.090620
C20   C     C_R   0.499962 0.126953 0.500052 -0.090601
C21   C     C_R   0.846010 0.548927 0.421074 0.264948
C22   C     C_R   0.153949 0.450941 0.578626 0.264957
C23   C     C_R   0.153993 0.541052 0.412619 0.268796
C24   C     C_R   0.846026 0.459114 0.587397 0.268870
C25   C     C_R   0.766818 0.546713 0.418767 0.263786
C26   C     C_R   0.233143 0.453145 0.580993 0.263796
C27   C     C_R   0.233202 0.542913 0.414986 0.261762
C28   C     C_R   0.766814 0.457237 0.585078 0.261685
C29   C     C_R   0.727209 0.500779 0.500616 -0.300756
C30   C     C_R   0.272783 0.499221 0.499326 -0.300826
C31   C     C_R   0.885274 0.504699 0.504994 -0.241642
C32   C     C_R   0.114715 0.495327 0.494834 -0.241631
C33   C     C_1   0.966199 0.501510 0.501552 0.216728
C34   C     C_1   0.033790 0.498532 0.498236 0.216734
Cl1   Cl    Cl    0.612038 0.878762 0.664753 -0.426783
Cl2   Cl    Cl    0.387910 0.121234 0.335336 -0.426757
Cl3   Cl    Cl    0.388119 0.877787 0.334999 -0.406003
Cl4   Cl    Cl    0.611938 0.122216 0.664919 -0.406091
N3    N     N_R   0.886587 0.596083 0.338284 0.189705
O9    O     O_R   0.875831 0.583886 0.229749 -0.193064
O10   O     O_R   0.935793 0.650091 0.371280 -0.246364
N4    N     N_R   0.113338 0.403633 0.661219 0.189757
O11   O     O_R   0.124120 0.415564 0.769812 -0.192952
O12   O     O_R   0.064061 0.349769 0.627995 -0.246627
N5    N     N_R   0.113499 0.584974 0.326144 0.190191
O13   O     O_R   0.125898 0.662152 0.310975 -0.188277
O14   O     O_R   0.063566 0.548046 0.262936 -0.243594
N6    N     N_R   0.886552 0.415363 0.674012 0.190239
O15   O     O_R   0.874085 0.338245 0.689608 -0.188135
O16   O     O_R   0.936581 0.452387 0.736932 -0.243852
Cl5   Cl    Cl    0.717512 0.602140 0.312906 -0.453847
Cl6   Cl    Cl    0.282410 0.397526 0.686700 -0.453711
Cl7   Cl    Cl    0.282617 0.594331 0.305555 -0.483637
Cl8   Cl    Cl    0.717412 0.405999 0.694686 -0.483589

loop_
_geom_bond_atom_site_label_1
_geom_bond_atom_site_label_2
_geom_bond_distance
_ccdc_geom_bond_type
C24   C31   1.408147 A    
C5    C9    1.412007 A    
N3    O9    1.301127 A    
C15   C17   1.199254 T    
C28   Cl8   1.770374 S    
C13   C14   1.225995 T    
C2    C29   1.466317 S    
C5    Cl1   1.759750 S    
C21   C31   1.407766 A    
C8    C12   1.411759 A    
C9    N1    1.365286 A    
C1    C30   1.466401 S    
C13   C19   1.477063 S    
C22   C32   1.407810 A    
O3    Cu1   1.938949 S    
C25   C29   1.409921 A    
C14   C20   1.477061 S    
O6    C4    1.282426 A    
O3    C2    1.284740 A    
N6    O15   1.301188 A    
C7    C11   1.411757 A    
C32   C34   1.436189 S    
C17   C18   1.401793 S    
C11   N1    1.365254 A    
C3    C15   1.424006 S    
C25   Cl5   1.770753 S    
O4    Cu2   1.938949 S    
C12   N2    1.365254 A    
Cu1   Cu2   2.647959 S    
C4    C16   1.424007 S    
C26   Cl6   1.770783 S    
C16   C18   1.199254 T    
N6    O16   1.301187 A    
O2    C2    1.285897 A    
C26   C30   1.410008 A    
O1    C1    1.285925 A    
O4    C1    1.284762 A    
C5    C19   1.410969 A    
C6    C10   1.412005 A    
O7    C4    1.282734 A    
C22   C26   1.404229 A    
N3    O10   1.301170 A    
C21   C25   1.404177 A    
N5    O13   1.301240 A    
O2    Cu2   1.937675 S    
C27   C30   1.409425 A    
O6    Cu2   1.919258 S    
O1    Cu1   1.937675 S    
O8    C3    1.282734 A    
C8    Cl4   1.759753 S    
N4    O12   1.301209 A    
C21   N3    1.436824 S    
C7    Cl3   1.759754 S    
C24   C28   1.404409 A    
C23   N5    1.436990 S    
C7    C19   1.410880 A    
C28   C29   1.409372 A    
C23   C27   1.404357 A    
C31   C33   1.436189 S    
C33   C34   1.199949 T    
C12   H4    1.081420 S    
N5    O14   1.301216 A    
O7    Cu1   1.919604 S    
C9    H1    1.081917 S    
Cu1   N1    1.988765 S    
O5    C3    1.282426 A    
C11   H3    1.081407 S    
O5    Cu1   1.919258 S    
C10   N2    1.365285 A    
Cu2   N2    1.988765 S    
N4    O11   1.301185 A    
C22   N4    1.436909 S    
C8    C20   1.410881 A    
C10   H2    1.081917 S    
C6    C20   1.410968 A    
C6    Cl2   1.759750 S    
C27   Cl7   1.770397 S    
O8    Cu2   1.919604 S    
C23   C32   1.408120 A    
C24   N6    1.437013 S    
