data_mof_unit_38720.cif
_audit_creation_date              2012-12-11T15:43:52-0500
_audit_creation_method            fapswitch 2.2
_symmetry_space_group_name_H-M    P1
_symmetry_Int_Tables_number       1
_space_group_crystal_system       triclinic
_cell_length_a                    14.522815
_cell_length_b                    16.545998
_cell_length_c                    6.919123
_cell_angle_alpha                 89.997398
_cell_angle_beta                  98.455075
_cell_angle_gamma                 90.000519
_cell_volume                      1644.55664222

loop_
_atom_site_label
_atom_site_type_symbol
_atom_type_description
_atom_site_fract_x
_atom_site_fract_y
_atom_site_fract_z
_atom_type_partial_charge
O1    O     O_R   0.831700 0.662810 0.581550 -0.534722
O2    O     O_R   0.168300 0.337190 0.418450 -0.531243
O3    O     O_R   0.168300 0.162810 0.418450 -0.534778
O4    O     O_R   0.831700 0.837190 0.581550 -0.531192
O5    O     O_R   0.842890 0.834390 0.255500 -0.527969
O6    O     O_R   0.157110 0.165610 0.744500 -0.522016
O7    O     O_R   0.157110 0.334390 0.744500 -0.527967
O8    O     O_R   0.842890 0.665610 0.255500 -0.522089
O9    O     O_R   0.661690 0.835580 0.024130 -0.544266
O10   O     O_R   0.338310 0.164420 0.975870 -0.520349
O11   O     O_R   0.338310 0.335580 0.975870 -0.544242
O12   O     O_R   0.661690 0.664420 0.024130 -0.520399
C1    C     C_R   0.864133 0.865837 0.429846 0.734559
C2    C     C_R   0.137323 0.133054 0.571776 0.786844
C3    C     C_R   0.135866 0.365835 0.570149 0.734523
C4    C     C_R   0.862675 0.633053 0.428231 0.786855
C5    C     C_R   0.071829 0.060694 0.544937 -0.395314
C6    C     C_R   0.932502 0.935857 0.462489 -0.402711
C7    C     C_R   0.928174 0.560696 0.455084 -0.395383
C8    C     C_R   0.067493 0.435851 0.537504 -0.402705
C9    C     C_R   0.997926 0.950915 0.334757 0.299359
C10   C     C_R   0.008887 0.043034 0.678401 0.318829
C11   C     C_R   0.002094 0.450921 0.665284 0.299285
C12   C     C_R   0.991099 0.543030 0.321591 0.318800
O13   O     O_3   0.687240 0.750000 0.366320 -0.376620
O14   O     O_3   0.312760 0.250000 0.633680 -0.376632
V1    V     V_3+5 0.757720 0.750000 0.115230 1.528747
V2    V     V_3+5 0.242280 0.250000 0.884770 1.528831
O15   O     O_R   0.650500 0.664000 0.690740 -0.559419
O16   O     O_R   0.349500 0.336000 0.309260 -0.528740
O17   O     O_R   0.349500 0.164000 0.309260 -0.559512
O18   O     O_R   0.650500 0.836000 0.690740 -0.528740
C13   C     C_R   0.628267 0.636922 0.854861 0.762740
C14   C     C_R   0.369481 0.364649 0.145107 0.777232
C15   C     C_R   0.371709 0.136903 0.145140 0.763117
C16   C     C_R   0.630512 0.864646 0.854887 0.777248
C17   C     C_R   0.068672 0.009905 0.378443 0.343844
C18   C     C_R   0.935274 0.986831 0.628543 0.358344
C19   C     C_R   0.931363 0.509926 0.621632 0.343752
C20   C     C_R   0.064711 0.486825 0.371438 0.358330
V3    V     V_3+5 0.735670 0.750000 0.607790 1.496014
V4    V     V_3+5 0.264330 0.250000 0.392210 1.495862
O19   O     O_3   0.806150 0.750000 0.906560 -0.371939
O20   O     O_3   0.193850 0.250000 0.093440 -0.371973
C21   C     C_2   0.561146 0.930065 0.848403 -0.399914
C22   C     C_2   0.443816 0.073573 0.150805 -0.380225
C23   C     C_2   0.438821 0.430084 0.151583 -0.399789
C24   C     C_2   0.556160 0.573591 0.849198 -0.380342
C25   C     C_2   0.544340 0.973782 0.007254 -0.035124
C26   C     C_2   0.465178 0.033046 0.990499 0.005070
C27   C     C_2   0.455604 0.473818 0.992734 -0.035099
C28   C     C_2   0.534713 0.533132 0.009532 0.004875
H1    H     H_    0.482136 0.062236 0.294458 0.153662
H2    H     H_    0.520144 0.939693 0.706408 0.163819
H3    H     H_    0.517936 0.562170 0.705498 0.153815
H4    H     H_    0.479816 0.439726 0.293581 0.163917
O21   O     O_3   0.986353 0.915689 0.152391 -0.498839
C29   C     C_3   0.044954 0.848028 0.154920 0.239011
H5    H     H_    0.009204 0.795422 0.207450 0.054921
H6    H     H_    0.111501 0.853913 0.255409 0.070526
C30   C     C_3   0.066241 0.834421 0.948492 -0.689941
H7    H     H_    0.090865 0.891570 0.889177 0.251249
H8    H     H_    0.122167 0.789007 0.950114 0.139851
H9    H     H_    0.002849 0.813577 0.851814 0.210684
O22   O     O_3   0.027664 0.069915 0.869857 -0.495786
C31   C     C_3   0.969298 0.134988 0.903636 0.260321
H10   H     H_    0.919653 0.154343 0.773048 0.030810
H11   H     H_    0.015753 0.186158 0.951461 0.123639
C32   C     C_3   0.916244 0.116121 0.073155 -0.661974
H12   H     H_    0.960882 0.128259 0.214072 0.174716
H13   H     H_    0.854077 0.155227 0.067173 0.137497
H14   H     H_    0.892491 0.052560 0.069027 0.281640
O23   O     O_3   0.013724 0.415739 0.847713 -0.498797
C33   C     C_3   0.955170 0.348053 0.845360 0.239023
H15   H     H_    0.990877 0.295467 0.792620 0.054952
H16   H     H_    0.888544 0.353945 0.745144 0.070501
C34   C     C_3   0.934095 0.334390 0.051925 -0.690170
H17   H     H_    0.909481 0.391506 0.111397 0.251019
H18   H     H_    0.878231 0.288934 0.050517 0.139814
H19   H     H_    0.997576 0.313577 0.148349 0.210953
O24   O     O_3   0.972316 0.569916 0.130134 -0.495757
C35   C     C_3   0.030665 0.635004 0.096352 0.260506
H20   H     H_    0.080307 0.654359 0.226940 0.030734
H21   H     H_    0.984197 0.686167 0.048520 0.123659
C36   C     C_3   0.083723 0.616160 0.926831 -0.661880
H22   H     H_    0.039086 0.628305 0.785915 0.174745
H23   H     H_    0.145883 0.655273 0.932818 0.137467
H24   H     H_    0.107489 0.552603 0.930948 0.281654
O25   O     O_3   0.133967 0.016774 0.251996 -0.502973
C37   C     C_3   0.220746 0.985770 0.342905 0.130053
H25   H     H_    0.215010 0.939984 0.459253 0.098205
H26   H     H_    0.264153 0.036289 0.408981 0.173984
C38   C     C_3   0.272333 0.946973 0.190770 -0.699293
H27   H     H_    0.268353 0.987017 0.062060 0.276011
H28   H     H_    0.346258 0.936942 0.253752 0.201620
H29   H     H_    0.242187 0.887714 0.142578 0.198368
O26   O     O_3   0.863567 0.986100 0.740465 -0.520679
C39   C     C_3   0.781104 0.016842 0.628056 0.127340
H30   H     H_    0.737376 0.965622 0.566471 0.164655
H31   H     H_    0.793994 0.056886 0.504602 0.065414
C40   C     C_3   0.724706 0.065219 0.756415 -0.751173
H32   H     H_    0.753961 0.126840 0.780501 0.200924
H33   H     H_    0.651786 0.071291 0.682485 0.188313
H34   H     H_    0.724750 0.034642 0.899057 0.219137
O27   O     O_3   0.866164 0.516880 0.748257 -0.502909
C41   C     C_3   0.779358 0.485805 0.657727 0.130134
H35   H     H_    0.785035 0.439905 0.541613 0.097877
H36   H     H_    0.735911 0.536261 0.591433 0.174070
C42   C     C_3   0.727888 0.447173 0.810277 -0.698732
H37   H     H_    0.731828 0.487406 0.938644 0.275803
H38   H     H_    0.653974 0.436975 0.747461 0.201506
H39   H     H_    0.758164 0.388017 0.858979 0.198465
O28   O     O_3   0.136412 0.486099 0.259499 -0.520650
C43   C     C_3   0.218879 0.516840 0.371891 0.127419
H40   H     H_    0.262617 0.465619 0.433443 0.164667
H41   H     H_    0.205996 0.556870 0.495368 0.065408
C44   C     C_3   0.275259 0.565238 0.243527 -0.751273
H42   H     H_    0.245995 0.626858 0.219470 0.200934
H43   H     H_    0.348182 0.571313 0.317438 0.188260
H44   H     H_    0.275211 0.534675 0.100873 0.219146
C45   C     C_2   0.410786 0.045480 0.793275 0.396705
H45   H     H_    0.445523 0.065542 0.673224 0.023699
O29   O     O_2   0.327883 0.029882 0.762714 -0.566371
C46   C     C_2   0.605356 0.964308 0.197919 0.408494
H46   H     H_    0.679709 0.974544 0.207780 -0.002289
O30   O     O_2   0.573480 0.940571 0.341379 -0.557245
C47   C     C_2   0.588938 0.545703 0.206855 0.397103
H47   H     H_    0.554085 0.565943 0.326581 0.023657
O31   O     O_2   0.671812 0.529999 0.237880 -0.566361
C48   C     C_2   0.394600 0.464332 0.802061 0.408485
H48   H     H_    0.320249 0.474574 0.792170 -0.002309
O32   O     O_2   0.426483 0.440570 0.658637 -0.557205

loop_
_geom_bond_atom_site_label_1
_geom_bond_atom_site_label_2
_ccdc_geom_bond_type
C24   H3    S    
C31   H11   S    
O3    V4    S    
C38   H27   S    
O17   V4    S    
C30   H9    S    
C6    C9    A    
O23   C33   S    
O26   C39   S    
O21   C29   S    
C34   H17   S    
O14   V4    S    
C40   H32   S    
C33   H16   S    
C1    C6    S    
O18   C16   A    
C44   H43   S    
C8    C20   A    
C39   H30   S    
C36   H24   S    
C31   C32   S    
O4    V3    S    
C29   H6    S    
C10   C18   A    
O15   C13   A    
C30   H8    S    
O4    C1    A    
C32   H13   S    
C40   H34   S    
O5    V1    S    
C28   C47   S    
O6    V2    S    
C33   C34   S    
O9    C16   A    
O18   V3    S    
O10   C15   A    
O5    C1    A    
C29   C30   S    
O7    C3    A    
C31   H10   S    
O8    C4    A    
C13   C24   S    
V3    O19   S    
C2    C5    S    
C32   H12   S    
C26   C45   S    
V4    O20   S    
C11   O23   S    
C18   O26   S    
C27   C48   S    
O24   C35   S    
C36   H23   S    
C3    C8    S    
C33   H15   S    
O16   C14   A    
O12   V1    S    
C27   C28   S    
C42   H39   S    
O13   V3    S    
C23   C27   D    
C29   H5    S    
C36   H22   S    
C25   C46   S    
V2    O20   S    
O7    V2    S    
C32   H14   S    
C48   O32   D    
C12   O24   S    
C47   O31   D    
C10   O22   S    
C9    O21   S    
O6    C2    A    
C37   H26   S    
C20   O28   S    
C8    C11   A    
C21   C25   D    
C44   H42   S    
C34   H18   S    
C16   C21   S    
O1    C4    A    
C5    C17   A    
O2    C3    A    
C23   H4    S    
C45   H45   S    
O3    C2    A    
C7    C19   A    
O1    V3    S    
C21   H2    S    
C25   C26   S    
C38   H29   S    
C35   H21   S    
O17   C15   A    
C44   H44   S    
C47   H47   S    
C35   C36   S    
O9    V1    S    
C37   C38   S    
C46   O30   D    
O28   C43   S    
C40   H33   S    
C34   H19   S    
O10   V2    S    
C19   O27   S    
O15   V3    S    
O14   V2    S    
O11   C14   A    
C43   H41   S    
C43   H40   S    
O13   V1    S    
C39   C40   S    
O27   C41   S    
C22   C26   D    
C39   H31   S    
C5    C10   A    
C17   O25   S    
C42   H38   S    
C48   H48   S    
C6    C18   A    
C42   H37   S    
C37   H25   S    
C41   H36   S    
O11   V2    S    
O2    V4    S    
C4    C7    S    
C11   C19   A    
C22   H1    S    
C12   C20   A    
C7    C12   A    
O22   C31   S    
C30   H7    S    
C45   O29   D    
C43   C44   S    
V1    O19   S    
C24   C28   D    
C9    C17   A    
C38   H28   S    
C35   H20   S    
C41   H35   S    
O8    V1    S    
O16   V4    S    
C14   C23   S    
O12   C13   A    
O25   C37   S    
C15   C22   S    
C46   H46   S    
C41   C42   S    
