data_mof_unit_43467.cif
_audit_creation_date              2012-12-10T18:57:43-0500
_audit_creation_method            fapswitch 2.2
_symmetry_space_group_name_H-M    P1
_symmetry_Int_Tables_number       1
_space_group_crystal_system       triclinic
_cell_length_a                    10.902339
_cell_length_b                    10.935009
_cell_length_c                    9.631869
_cell_angle_alpha                 89.647792
_cell_angle_beta                  88.228095
_cell_angle_gamma                 93.210651
_cell_volume                      1145.89791774

loop_
_atom_site_label
_atom_site_type_symbol
_atom_type_description
_atom_site_fract_x
_atom_site_fract_y
_atom_site_fract_z
_atom_type_partial_charge
C1    C     C_R   0.493601 0.262814 0.500500 0.837690
C2    C     C_R   0.487279 0.129723 0.499055 -0.257445
C3    C     C_R   0.485194 0.065093 0.372060 0.382155
C4    C     C_R   0.507414 0.938731 0.369494 0.395876
C5    C     C_R   0.501808 0.870451 0.495790 -0.252435
C6    C     C_R   0.490245 0.936137 0.617766 -0.096189
C7    C     C_3   0.487351 0.919852 0.771325 0.346682
C8    C     C_3   0.484234 0.062539 0.776995 0.542089
C9    C     C_R   0.608387 0.514073 0.069200 0.012064
C10   C     C_R   0.396470 0.463401 0.076783 0.619272
C11   C     C_R   0.398928 0.461754 0.927779 -0.193604
C12   C     C_R   0.265202 0.496711 0.503175 0.803645
C13   C     C_R   0.606061 0.522325 0.922859 0.215561
C14   C     C_3   0.686953 0.636927 0.919143 0.300860
C15   C     C_3   0.704341 0.617340 0.074914 -0.158356
C16   C     C_R   0.502731 0.737363 0.499038 0.854309
C17   C     C_R   0.734110 0.500712 0.497200 0.863092
C18   C     C_2   0.923968 0.396213 0.474144 0.486352
C19   C     C_2   0.865956 0.501141 0.485881 -0.358608
C20   C     C_2   0.060767 0.398056 0.463140 -0.040134
C21   C     C_2   0.131556 0.491681 0.517317 0.261677
C22   C     C_R   0.485949 0.059767 0.620020 -0.126098
Cu1   Cu    Cu3+1 0.499990 0.499980 0.640670 0.982019
Cu2   Cu    Cu3+1 0.500010 0.500020 0.359330 0.995775
H1    H     H_    0.319385 0.428634 0.872721 0.146442
H2    H     H_    0.632905 0.717165 0.898043 0.038998
H3    H     H_    0.672069 0.691101 0.142384 0.185621
H4    H     H_    0.913964 0.589688 0.468832 0.141755
H5    H     H_    0.573641 0.882809 0.806705 0.044077
N1    N     N_R   0.500780 0.500930 0.147930 -0.225500
N2    N     N_R   0.500780 0.500890 0.852020 -0.230100
O1    O     O_R   0.500000 0.319640 0.618810 -0.586585
O2    O     O_R   0.500010 0.319680 0.381230 -0.527321
O3    O     O_R   0.321940 0.499980 0.618760 -0.581650
O4    O     O_R   0.321950 0.500020 0.381180 -0.548227
O5    O     O_R   0.499990 0.680320 0.618770 -0.562448
O6    O     O_R   0.500000 0.680360 0.381190 -0.545842
O7    O     O_R   0.678050 0.499980 0.618820 -0.527496
O8    O     O_R   0.678060 0.500020 0.381240 -0.615117
O9    O     O_3   0.857393 0.284104 0.480969 -0.597827
C23   C     C_3   0.818555 0.250089 0.347063 -0.365279
H6    H     H_    0.819828 0.149054 0.338308 0.175827
H7    H     H_    0.876971 0.291170 0.259763 0.130262
H8    H     H_    0.722823 0.274859 0.333501 0.217693
O10   O     O_3   0.590716 0.117502 0.840431 -0.601333
C24   C     C_3   0.700591 0.118873 0.758127 -0.293896
H9    H     H_    0.697944 0.186114 0.671818 0.230659
H10   H     H_    0.720180 0.026850 0.717811 0.120951
H11   H     H_    0.778227 0.149085 0.823806 0.181254
O11   O     O_3   0.293800 0.414741 0.150464 -0.563735
C25   C     C_3   0.183251 0.454435 0.096991 -0.438707
H12   H     H_    0.149730 0.390832 0.015347 0.155270
H13   H     H_    0.192111 0.550659 0.057476 0.162909
H14   H     H_    0.111927 0.451054 0.181463 0.195718
O12   O     O_3   0.793808 0.625454 0.834095 -0.554936
C26   C     C_3   0.823870 0.737179 0.763613 -0.315599
H15   H     H_    0.835599 0.814583 0.837433 0.138769
H16   H     H_    0.752683 0.756614 0.687441 0.149995
H17   H     H_    0.912101 0.730063 0.704899 0.220836
C27   C     C_3   0.832919 0.574641 0.110859 -0.284820
C28   C     C_3   0.921000 0.683858 0.141362 -0.887630
H18   H     H_    0.935007 0.744049 0.048454 0.269633
H19   H     H_    0.884026 0.737449 0.229220 0.240519
H20   H     H_    0.011203 0.651259 0.170747 0.232132
H21   H     H_    0.827189 0.513688 0.202341 0.209533
H22   H     H_    0.873193 0.518890 0.026781 0.220258
C29   C     C_3   0.117746 0.280645 0.417818 -0.416152
C30   C     C_3   0.131552 0.198576 0.543925 -0.848682
H23   H     H_    0.208624 0.236642 0.605997 0.240399
H24   H     H_    0.046034 0.192253 0.609940 0.282540
H25   H     H_    0.150702 0.104606 0.510819 0.235236
H26   H     H_    0.060686 0.230787 0.341187 0.223108
H27   H     H_    0.208647 0.298186 0.365491 0.242370
O13   O     O_3   0.083349 0.574217 0.610657 -0.605054
C31   C     C_3   0.059349 0.516152 0.741355 -0.250638
H28   H     H_    0.061382 0.587151 0.823149 0.199213
H29   H     H_    0.127952 0.448940 0.767954 0.132041
H30   H     H_    0.966519 0.469006 0.745276 0.201066
O14   O     O_3   0.456596 0.123150 0.250304 -0.545955
C32   C     C_3   0.330486 0.097082 0.227196 -0.278305
H31   H     H_    0.272675 0.091925 0.323880 0.139402
H32   H     H_    0.316779 0.009336 0.171501 0.161623
H33   H     H_    0.295821 0.171366 0.163148 0.203688
O15   O     O_3   0.527850 0.882355 0.243336 -0.575291
C33   C     C_3   0.642140 0.928215 0.184877 -0.343829
H34   H     H_    0.648196 0.029370 0.171568 0.212318
H35   H     H_    0.719140 0.899523 0.248473 0.139998
H36   H     H_    0.653820 0.890487 0.079059 0.168814
O16   O     O_3   0.378328 0.852173 0.813698 -0.555152
C34   C     C_3   0.383753 0.818442 0.954521 -0.282919
H37   H     H_    0.437475 0.736385 0.966034 0.162199
H38   H     H_    0.289168 0.793936 0.995029 0.169297
H39   H     H_    0.422083 0.894591 0.018173 0.205534
C35   C     C_3   0.368546 0.119435 0.841367 -0.326261
C36   C     C_3   0.242228 0.058555 0.811373 -0.865889
H40   H     H_    0.240388 0.019408 0.705591 0.286434
H41   H     H_    0.215717 0.986004 0.889094 0.273933
H42   H     H_    0.171415 0.127242 0.822105 0.220395
H43   H     H_    0.378564 0.122071 0.954796 0.217175
H44   H     H_    0.369030 0.216207 0.806676 0.206033

loop_
_geom_bond_atom_site_label_1
_geom_bond_atom_site_label_2
_ccdc_geom_bond_type
O12   C26   S    
C7    H5    S    
C23   H6    S    
C20   C29   S    
C36   H40   S    
C3    O14   S    
C36   H42   S    
C1    O2    A    
C7    C8    S    
C33   H34   S    
C24   H11   S    
C29   H26   S    
C5    C6    A    
C21   O13   S    
C11   H1    S    
C7    O16   S    
Cu2   O8    S    
C26   H15   S    
C18   C19   D    
C17   O8    A    
C28   H19   S    
C9    C13   A    
C8    O10   S    
C5    C16   S    
C18   O9    S    
C34   H38   S    
C30   H23   S    
C2    C22   A    
C8    C22   S    
Cu1   Cu2   S    
C29   H27   S    
C16   O6    A    
C14   O12   S    
C27   H22   S    
C13   C14   S    
C23   H7    S    
C28   H18   S    
C32   H33   S    
O11   C25   S    
C33   H35   S    
C24   H10   S    
Cu2   O4    S    
O13   C31   S    
C25   H12   S    
C8    C35   S    
O15   C33   S    
C32   H32   S    
C4    C5    A    
O10   C24   S    
C12   C21   S    
C1    O1    A    
C29   C30   S    
C27   C28   S    
C25   H13   S    
Cu1   N2    S    
C28   H20   S    
C31   H28   S    
C10   N1    A    
C15   H3    S    
C4    O15   S    
C35   H44   S    
Cu1   O3    S    
Cu2   O6    S    
C14   H2    S    
C12   O4    A    
C19   H4    S    
C31   H29   S    
C9    N1    A    
O9    C23   S    
C27   H21   S    
C23   H8    S    
C12   O3    A    
C3    C4    A    
C10   O11   S    
C34   H39   S    
C33   H36   S    
C24   H9    S    
C13   N2    A    
C32   H31   S    
C36   H41   S    
C6    C7    S    
Cu1   O7    S    
Cu2   O2    S    
C26   H17   S    
C25   H14   S    
Cu1   O1    S    
C2    C3    A    
C9    C15   S    
C16   O5    A    
C34   H37   S    
C35   H43   S    
C30   H25   S    
C1    C2    S    
C17   C19   S    
C26   H16   S    
C18   C20   S    
C17   O7    A    
C35   C36   S    
C31   H30   S    
Cu2   N1    S    
C10   C11   A    
C11   N2    A    
O14   C32   S    
C20   C21   D    
C30   H24   S    
Cu1   O5    S    
C14   C15   S    
O16   C34   S    
C15   C27   S    
C6    C22   A    
