data_mof_unit_31477.cif
_audit_creation_date              2013-03-05T15:53:46-0500
_audit_creation_method            fapswitch 2.2
_symmetry_space_group_name_H-M    P1
_symmetry_Int_Tables_number       1
_space_group_crystal_system       triclinic
_cell_length_a                    10.64502
_cell_length_b                    10.709311
_cell_length_c                    9.97089
_cell_angle_alpha                 88.757162
_cell_angle_beta                  90.504449
_cell_angle_gamma                 93.924752
_cell_volume                      1133.72665961

loop_
_atom_site_label
_atom_site_type_symbol
_atom_site_description
_atom_site_fract_x
_atom_site_fract_y
_atom_site_fract_z
_atom_type_partial_charge
O1    O     O_R   0.500000 0.316780 0.614690 -0.674486
O2    O     O_R   0.499990 0.316750 0.385360 -0.545941
C1    C     C_R   0.504561 0.260058 0.503374 0.908182
O3    O     O_R   0.314800 0.499990 0.614670 -0.670060
O4    O     O_R   0.314790 0.499970 0.385330 -0.570654
C2    C     C_R   0.258220 0.502914 0.499664 0.872004
Zn1   Zn    Zn3+2 0.500010 0.500020 0.653130 0.979165
Zn2   Zn    Zn3+2 0.499990 0.499980 0.346870 1.005484
O5    O     O_R   0.500010 0.683250 0.614640 -0.566600
O6    O     O_R   0.500000 0.683220 0.385310 -0.622721
O7    O     O_R   0.685210 0.500030 0.614670 -0.604980
O8    O     O_R   0.685200 0.500010 0.385330 -0.613290
C3    C     C_R   0.492075 0.738572 0.498339 0.911273
C4    C     C_R   0.741975 0.503475 0.500236 0.940882
C5    C     C_3   0.075741 0.551033 0.636370 -0.410253
H1    H     H_    0.115104 0.648150 0.653848 0.205690
H2    H     H_    0.107385 0.490859 0.720648 0.205879
C6    C     C_3   0.932436 0.548140 0.638272 -0.378364
H3    H     H_    0.897718 0.481827 0.719465 0.201690
H4    H     H_    0.901365 0.641129 0.664972 0.289090
H5    H     H_    0.127014 0.689686 0.399326 0.200790
C7    C     C_3   0.078878 0.595065 0.386733 -0.457209
C8    C     C_3   0.064343 0.369955 0.474869 -0.461077
C9    C     C_3   0.121776 0.504639 0.499304 0.044909
H6    H     H_    0.097129 0.334730 0.378884 0.222500
H7    H     H_    0.098371 0.305120 0.554067 0.146670
C10   C     C_3   0.878435 0.505755 0.499745 -0.123100
C11   C     C_3   0.934416 0.599549 0.388882 0.172005
C12   C     C_3   0.919479 0.369242 0.480379 0.345151
H8    H     H_    0.893817 0.317778 0.575666 0.123885
H9    H     H_    0.107586 0.562761 0.286868 0.168292
H10   H     H_    0.897989 0.570394 0.289183 0.121728
H11   H     H_    0.594278 0.121531 0.316586 0.189144
C13   C     C_R   0.434158 0.101185 0.753563 -0.169908
H12   H     H_    0.478321 0.187312 0.789489 0.175724
C14   C     C_R   0.361273 0.031114 0.847575 -0.151808
H13   H     H_    0.343719 0.069361 0.944769 0.143085
C15   C     C_R   0.311555 0.912061 0.816586 -0.103699
H14   H     H_    0.252241 0.858522 0.887794 0.146399
C16   C     C_R   0.344172 0.859358 0.696595 -0.123573
H15   H     H_    0.306658 0.765237 0.676894 0.132669
C17   C     C_R   0.424959 0.927046 0.604495 0.097600
C18   C     C_R   0.456336 0.054213 0.624177 0.104565
C19   C     C_R   0.508985 0.126140 0.513192 -0.139709
C20   C     C_R   0.551233 0.068004 0.399740 -0.181462
H16   H     H_    0.580926 0.896413 0.308065 0.203342
C21   C     C_R   0.540051 0.940321 0.392748 -0.156440
C22   C     C_R   0.479296 0.870125 0.495346 -0.129988
H17   H     H_    0.665882 0.614327 0.126600 0.205337
C23   C     C_R   0.301076 0.353833 0.130559 0.568654
C24   C     C_R   0.194642 0.317118 0.051769 -0.287062
H18   H     H_    0.109415 0.275511 0.096686 0.152522
C25   C     C_R   0.203391 0.314944 0.914750 -0.284654
H19   H     H_    0.128142 0.269890 0.855619 0.177079
C26   C     C_R   0.313028 0.361565 0.854699 -0.154447
H20   H     H_    0.323757 0.338211 0.752467 0.216580
C27   C     C_R   0.405983 0.432015 0.926256 0.023998
C28   C     C_R   0.403675 0.430505 0.070713 0.041105
N1    N     N_R   0.498810 0.498800 0.142780 -0.135339
C29   C     C_R   0.591591 0.562654 0.072204 -0.196723
C30   C     C_R   0.592829 0.562895 0.929817 0.351044
N2    N     N_R   0.498760 0.498720 0.857170 -0.169862
O9    O     O_3   0.852670 0.295488 0.381835 -0.598008
C31   C     C_3   0.876048 0.331809 0.246735 -0.251402
H21   H     H_    0.965087 0.388592 0.228699 0.129215
H22   H     H_    0.796288 0.382727 0.206281 0.193738
H23   H     H_    0.879926 0.245833 0.187312 0.184679
O10   O     O_3   0.304724 0.309284 0.261126 -0.578002
C32   C     C_3   0.277054 0.177743 0.269562 -0.329985
H24   H     H_    0.337654 0.127458 0.201401 0.162777
H25   H     H_    0.175965 0.151032 0.251442 0.166565
H26   H     H_    0.294503 0.145117 0.373534 0.188358
N3    N     N_R   0.697089 0.629047 0.864305 0.207117
O11   O     O_R   0.677811 0.724797 0.786608 -0.346720
O12   O     O_R   0.809834 0.618455 0.912859 -0.458421
N4    N     N_R   0.896813 0.727926 0.406739 0.215754
O13   O     O_R   0.951876 0.801320 0.495086 -0.394471
O14   O     O_R   0.814879 0.773314 0.324779 -0.401900

loop_
_geom_bond_atom_site_label_1
_geom_bond_atom_site_label_2
_geom_bond_distance
_ccdc_geom_bond_type
C5    C6    1.523953 S    
C26   H20   1.063804 S    
C12   O9    1.428132 S    
C10   C12   1.570566 S    
H11   C20   1.084496 S    
N3    O11   1.298194 A    
C27   N2    1.361707 A    
C25   H19   1.083128 S    
Zn1   O7    2.011713 S    
H17   C29   1.082305 S    
C8    C12   1.543035 S    
C14   H13   1.082938 S    
N4    O14   1.301181 A    
C13   H12   1.073358 S    
Zn2   N1    2.035195 S    
O4    C2    1.295952 A    
O7    C4    1.294474 A    
C8    H7    1.114674 S    
C5    H1    1.111122 S    
C5    H2    1.111817 S    
C6    H3    1.113870 S    
C20   C21   1.367661 A    
C32   H25   1.108658 S    
O5    C3    1.295457 A    
O10   C32   1.420141 S    
C8    C9    1.550970 S    
C4    C10   1.451199 S    
C6    H4    1.109113 S    
C16   C17   1.417045 A    
N1    C29   1.355437 A    
C7    C11   1.542176 S    
H5    C7    1.112869 S    
N3    O12   1.301421 A    
C32   H24   1.113195 S    
O3    Zn1   2.005174 S    
C25   C26   1.374570 A    
C1    C19   1.439342 S    
C7    H9    1.113262 S    
C13   C18   1.422288 A    
C24   H18   1.079526 S    
C23   C28   1.445880 A    
C31   H23   1.108980 S    
C11   H10   1.107332 S    
N4    O13   1.301999 A    
O3    C2    1.291334 A    
C30   N3    1.430170 S    
C28   N1    1.409059 A    
C29   C30   1.419842 A    
C24   C25   1.371005 A    
C31   H22   1.108474 S    
C32   H26   1.105036 S    
C18   C19   1.430698 A    
Zn1   N2    2.034361 S    
C12   H8    1.114593 S    
C3    C22   1.424274 S    
C21   C22   1.393430 A    
Zn2   O8    2.005176 S    
C2    C9    1.453811 S    
C23   C24   1.411446 A    
C17   C22   1.406671 A    
C16   H15   1.079894 S    
O8    C4    1.290689 A    
C26   C27   1.402202 A    
C7    C9    1.552590 S    
C17   C18   1.397478 A    
C11   N4    1.472851 S    
C19   C20   1.395490 A    
Zn1   O5    1.991257 S    
H16   C21   1.084014 S    
C5    C9    1.558634 S    
O1    Zn1   2.007589 S    
O2    Zn2   1.991257 S    
C6    C10   1.556211 S    
O6    C3    1.290789 A    
O4    Zn2   2.011712 S    
C31   H21   1.104473 S    
C14   C15   1.386711 A    
O2    C1    1.314408 A    
C15   C16   1.390667 A    
C27   C28   1.440510 A    
C15   H14   1.082683 S    
C13   C14   1.395114 A    
C8    H6    1.104373 S    
C30   N2    1.383612 A    
O9    C31   1.413422 S    
Zn2   O6    2.007589 S    
C10   C11   1.570827 S    
O1    C1    1.279650 A    
C23   O10   1.377934 S    
