data_mof_unit_33609.cif
_audit_creation_date              2012-10-26T19:05:04-0400
_audit_creation_method            fapswitch 2.2
_symmetry_space_group_name_H-M    P1
_symmetry_Int_Tables_number       1
_space_group_crystal_system       triclinic
_cell_length_a                    15.876256
_cell_length_b                    10.812952
_cell_length_c                    9.634864
_cell_angle_alpha                 89.58954
_cell_angle_beta                  89.918711
_cell_angle_gamma                 93.149003
_cell_volume                      1651.46677324

loop_
_atom_site_label
_atom_site_type_symbol
_atom_type_description
_atom_site_fract_x
_atom_site_fract_y
_atom_site_fract_z
_atom_type_partial_charge
C1    C     C_R   0.505785 0.262600 0.501322 0.573776
C2    C     C_R   0.480501 0.050148 0.880913 -0.135230
C3    C     C_R   0.430053 0.941624 0.865710 -0.095293
C4    C     C_R   0.340463 0.499709 0.500158 0.545935
C5    C     C_R   0.427828 0.880658 0.738893 -0.031398
C6    C     C_R   0.469562 0.934562 0.622144 0.018976
C7    C     C_R   0.502886 0.057616 0.630648 0.046062
C8    C     C_R   0.510513 0.127278 0.504727 0.009159
C9    C     C_R   0.503683 0.066210 0.377253 -0.181222
C10   C     C_R   0.486958 0.939243 0.371120 -0.012361
C11   C     C_R   0.477296 0.870389 0.496162 0.014643
C12   C     C_3   0.946701 0.413996 0.615450 -0.183224
C13   C     C_R   0.641309 0.612068 0.138700 0.153631
C14   C     C_R   0.718807 0.611181 0.069606 -0.166241
C15   C     C_R   0.719357 0.603148 0.926634 -0.182274
C16   C     C_R   0.490168 0.736232 0.498989 0.564196
C17   C     C_R   0.642394 0.607078 0.858013 0.059340
C18   C     C_R   0.568317 0.555549 0.925003 0.140910
C19   C     C_R   0.568155 0.556207 0.073835 0.181697
C20   C     C_R   0.435558 0.446067 0.074275 -0.004340
C21   C     C_R   0.435501 0.446302 0.926773 -0.020842
C22   C     C_R   0.659467 0.499606 0.499916 0.552002
C23   C     C_3   0.916813 0.504886 0.502694 -0.009465
C24   C     C_3   0.044672 0.418429 0.623417 -0.017045
C25   C     C_3   0.046534 0.455405 0.360772 -0.040804
C26   C     C_3   0.948871 0.461318 0.359982 -0.209064
C27   C     C_1   0.749003 0.501040 0.500011 -0.009341
C28   C     C_3   0.083022 0.503370 0.503754 0.065409
C29   C     C_2   0.593822 0.194906 0.793554 0.288486
C30   C     C_2   0.472130 0.886212 0.231572 0.246984
C31   C     C_2   0.640300 0.716684 0.767207 0.312517
C32   C     C_2   0.100940 0.713501 0.632149 0.252334
C33   C     C_2   0.923445 0.690142 0.665393 0.211353
C34   C     C_3   0.955446 0.638619 0.530248 -0.085942
C35   C     C_3   0.054325 0.639544 0.519645 -0.078397
C36   C     C_1   0.824510 0.502757 0.500829 -0.053767
C37   C     C_1   0.175478 0.502054 0.501669 -0.045455
C38   C     C_1   0.250942 0.500899 0.500593 -0.010132
C39   C     C_R   0.521948 0.104929 0.765594 0.062998
Cu1   Cu    Cu3+1 0.499990 0.499990 0.640660 0.972883
Cu2   Cu    Cu3+1 0.500010 0.500010 0.359340 1.005735
H1    H     H_    0.923060 0.318020 0.589830 0.127087
H2    H     H_    0.776503 0.642420 0.121617 0.121625
H3    H     H_    0.777751 0.629222 0.872842 0.138422
H4    H     H_    0.382791 0.401257 0.872677 0.121780
H5    H     H_    0.072131 0.518359 0.276937 0.153703
H6    H     H_    0.918088 0.369277 0.334355 0.163013
H7    H     H_    0.930086 0.526547 0.277068 0.100111
H8    H     H_    0.071747 0.689017 0.420801 0.130781
H9    H     H_    0.138349 0.452394 0.767641 0.238810
H10   H     H_    0.046892 0.398797 0.835491 0.237519
H11   H     H_    0.598942 0.240631 0.893411 0.084905
H12   H     H_    0.918455 0.434886 0.717772 0.136661
H13   H     H_    0.511137 0.919063 0.145057 0.093815
H14   H     H_    0.687424 0.705587 0.307186 0.213523
H15   H     H_    0.635694 0.790347 0.192925 0.213687
H16   H     H_    0.679674 0.724579 0.675038 0.120772
H17   H     H_    0.043872 0.264334 0.394427 0.241971
H18   H     H_    0.136006 0.325387 0.327389 0.242568
H19   H     H_    0.091720 0.690802 0.740944 0.148651
H20   H     H_    0.938168 0.647217 0.763853 0.114868
H21   H     H_    0.933407 0.699721 0.445442 0.140867
H22   H     H_    0.507563 0.118295 0.280589 0.123483
H23   H     H_    0.489696 0.089021 0.983437 0.075576
H24   H     H_    0.396850 0.900455 0.954013 0.161913
H25   H     H_    0.391736 0.793042 0.731762 0.150247
H26   H     H_    0.382866 0.400890 0.129262 0.121194
H27   H     H_    0.065673 0.322688 0.610252 0.139357
N1    N     N_R   0.500800 0.501210 0.147910 -0.225025
N2    N     N_R   0.500820 0.501290 0.852040 -0.253125
N3    N     N_3   0.073139 0.460296 0.760866 -0.677405
N4    N     N_3   0.634235 0.704211 0.243097 -0.540752
N5    N     N_3   0.070472 0.330051 0.325002 -0.639980
O1    O     O_R   0.499990 0.319640 0.618810 -0.494089
O2    O     O_2   0.413418 0.810936 0.210634 -0.481282
O3    O     O_2   0.600908 0.804896 0.802598 -0.508520
O4    O     O_2   0.149381 0.800996 0.601135 -0.502821
O5    O     O_2   0.880831 0.780759 0.664750 -0.511699
O6    O     O_R   0.500000 0.319660 0.381240 -0.519259
O7    O     O_R   0.379430 0.499990 0.618840 -0.516668
O8    O     O_R   0.379440 0.500020 0.381260 -0.489019
O9    O     O_R   0.500000 0.680340 0.618760 -0.498853
O10   O     O_R   0.500010 0.680360 0.381190 -0.421290
O11   O     O_R   0.620560 0.499980 0.618740 -0.504967
O12   O     O_R   0.620570 0.500010 0.381160 -0.487159
O13   O     O_2   0.649455 0.215561 0.707458 -0.492187

loop_
_geom_bond_atom_site_label_1
_geom_bond_atom_site_label_2
_ccdc_geom_bond_type
C18   N2    A    
C1    C8    S    
Cu1   O11   S    
C20   H26   S    
C7    C8    A    
C25   C28   S    
C30   H13   S    
C12   C23   S    
Cu1   N2    S    
C1    O1    A    
C15   H3    S    
C4    O7    A    
C5    C6    A    
C33   O5    D    
C23   C26   S    
Cu2   O10   S    
C34   H21   S    
C34   C35   S    
C22   O12   A    
C12   H1    S    
C32   O4    D    
C2    C39   A    
C4    O8    A    
C28   C35   S    
C8    C9    A    
H15   N4    S    
C35   H8    S    
Cu1   O7    S    
C9    C10   A    
H18   N5    S    
C12   H12   S    
C26   H7    S    
C13   C14   A    
C3    H24   S    
H10   N3    S    
C2    H23   S    
C17   C18   A    
C21   H4    S    
C13   C19   A    
C32   C35   S    
Cu1   O9    S    
C6    C11   A    
C18   C19   A    
C25   C26   S    
C16   O10   A    
C22   O11   A    
H9    N3    S    
C37   C38   T    
C11   C16   S    
C10   C30   S    
H14   N4    S    
C23   C34   S    
Cu2   O8    S    
C29   C39   S    
C16   O9    A    
C33   C34   S    
C29   O13   D    
C26   H6    S    
Cu1   Cu2   S    
C4    C38   S    
C22   C27   S    
C17   C31   S    
C20   N1    A    
C19   N1    A    
C32   H19   S    
Cu2   N1    S    
C15   C17   A    
C9    H22   S    
C24   C28   S    
C5    H25   S    
C3    C5    A    
Cu2   O6    S    
C6    C7    A    
C13   N4    S    
C27   C36   T    
Cu2   O12   S    
C12   C24   S    
C21   N2    A    
C31   H16   S    
C2    C3    A    
C30   O2    D    
C31   O3    D    
C28   C37   S    
C1    O6    A    
Cu1   O1    S    
C25   N5    S    
C10   C11   A    
C24   H27   S    
C20   C21   A    
H17   N5    S    
C33   H20   S    
C23   C36   S    
C7    C39   A    
C14   C15   A    
C25   H5    S    
C24   N3    S    
C14   H2    S    
C29   H11   S    
