data_mof_unit_38837.cif
_audit_creation_date              2012-12-10T18:13:26-0500
_audit_creation_method            fapswitch 2.2
_symmetry_space_group_name_H-M    P1
_symmetry_Int_Tables_number       1
_space_group_crystal_system       triclinic
_cell_length_a                    18.430111
_cell_length_b                    18.267301
_cell_length_c                    26.028185
_cell_angle_alpha                 88.991042
_cell_angle_beta                  90.911564
_cell_angle_gamma                 89.700429
_cell_volume                      8760.26653414

loop_
_atom_site_label
_atom_site_type_symbol
_atom_type_description
_atom_site_fract_x
_atom_site_fract_y
_atom_site_fract_z
_atom_type_partial_charge
C1    C     C_R   0.858117 0.138700 0.250174 0.578219
C2    C     C_R   0.816120 0.265616 0.256866 0.192907
C3    C     C_R   0.254667 0.296663 0.289522 0.199367
C4    C     C_R   0.052429 0.864500 0.448313 0.032412
C5    C     C_R   0.123774 0.853848 0.431925 -0.050903
C6    C     C_R   0.143165 0.788599 0.408193 -0.054074
C7    C     C_R   0.091491 0.733934 0.400682 -0.081645
C8    C     C_R   0.020597 0.743897 0.417631 -0.063763
C9    C     C_R   0.001219 0.808758 0.441752 -0.040126
C10   C     C_R   0.060618 0.869242 0.557568 0.032505
C11   C     C_R   0.014781 0.810063 0.568682 -0.050046
C12   C     C_R   0.040986 0.750046 0.597598 -0.064089
C13   C     C_R   0.187101 0.263496 0.723039 0.145434
C14   C     C_R   0.113072 0.748532 0.615167 -0.072269
C15   C     C_R   0.159164 0.806869 0.603670 -0.064029
C16   C     C_R   0.133031 0.867271 0.575124 -0.059121
C17   C     C_R   0.618035 0.416648 0.949919 0.033487
C18   C     C_R   0.672806 0.456998 0.925785 -0.096892
C19   C     C_R   0.737484 0.422969 0.911782 -0.069713
C20   C     C_R   0.748336 0.348406 0.922088 -0.054359
C21   C     C_R   0.694283 0.307766 0.946202 -0.032692
C22   C     C_R   0.628668 0.341206 0.958884 -0.025977
C23   C     C_R   0.610077 0.414145 0.060955 0.008105
C24   C     C_R   0.192733 0.256523 0.280017 0.199945
C25   C     C_R   0.594180 0.343302 0.079376 -0.050770
C26   C     C_R   0.645552 0.303913 0.108926 -0.088668
C27   C     C_R   0.712922 0.334949 0.120319 -0.084904
C28   C     C_R   0.729005 0.405440 0.102187 -0.074426
C29   C     C_R   0.677790 0.445014 0.072595 -0.099706
C30   C     C_R   0.319880 0.765934 0.266844 0.195694
C31   C     C_R   0.322125 0.770571 0.728961 0.186737
C32   C     C_R   0.715306 0.734459 0.202273 0.194431
C33   C     C_R   0.717818 0.731789 0.794202 0.208767
C34   C     C_R   0.800215 0.195870 0.745027 -0.050675
C35   C     C_R   0.798037 0.192208 0.249505 -0.078040
C36   C     C_R   0.191858 0.202448 0.756740 -0.049043
C37   C     C_R   0.858747 0.139903 0.748175 0.575604
C38   C     C_R   0.197871 0.195900 0.247656 -0.059224
C39   C     C_R   0.303049 0.696143 0.246822 -0.060225
C40   C     C_R   0.304412 0.697775 0.745010 -0.052761
C41   C     C_R   0.697411 0.697107 0.249241 -0.067155
C42   C     C_R   0.691469 0.702251 0.747361 -0.049737
C43   C     C_R   0.731366 0.177887 0.763668 0.206956
C44   C     C_R   0.723284 0.171006 0.245553 0.111684
C45   C     C_R   0.253961 0.193762 0.789119 0.199819
C46   C     C_R   0.255982 0.193872 0.211876 0.201350
C47   C     C_R   0.232865 0.679917 0.226633 0.163809
C48   C     C_R   0.140382 0.140011 0.249490 0.562476
C49   C     C_R   0.231816 0.678233 0.756279 0.140663
C50   C     C_R   0.735008 0.715268 0.295783 0.180379
C51   C     C_R   0.715714 0.731595 0.699262 0.150466
C52   C     C_R   0.179057 0.735943 0.225997 0.169651
C53   C     C_R   0.181906 0.734356 0.765527 0.164597
C54   C     C_R   0.775893 0.779482 0.295895 0.196456
C55   C     C_R   0.765173 0.791339 0.700064 0.171317
C56   C     C_R   0.684859 0.234153 0.778808 0.190147
C57   C     C_R   0.669058 0.225011 0.253730 0.171847
C58   C     C_R   0.316032 0.235108 0.778401 0.177323
C59   C     C_R   0.137753 0.143087 0.752822 0.582520
C60   C     C_R   0.297844 0.257260 0.206346 0.198161
C61   C     C_R   0.194569 0.802466 0.251171 -0.073578
C62   C     C_R   0.197862 0.806072 0.748670 -0.066448
C63   C     C_R   0.804483 0.804324 0.249228 -0.049736
C64   C     C_R   0.802047 0.806446 0.746938 -0.063724
C65   C     C_R   0.699627 0.307227 0.762001 -0.060560
C66   C     C_R   0.690604 0.298229 0.261027 -0.061571
C67   C     C_R   0.310628 0.295602 0.743874 -0.060115
C68   C     C_R   0.304584 0.303759 0.249179 -0.068700
C69   C     C_R   0.050634 0.956727 0.026660 0.135623
C70   C     C_R   0.360368 0.640709 0.748575 0.620541
C71   C     C_R   0.039283 0.947435 0.973933 0.121621
C72   C     C_R   0.953404 0.050600 0.024279 0.144452
C73   C     C_R   0.964336 0.058409 0.970845 0.189731
C74   C     C_R   0.541146 0.444875 0.527256 0.130268
C75   C     C_R   0.531543 0.439194 0.473488 0.161392
C76   C     C_R   0.454551 0.548863 0.524709 0.142147
C77   C     C_R   0.467223 0.557154 0.471757 0.165642
C78   C     C_R   0.001515 0.002146 0.945712 -0.055639
C79   C     C_R   0.000713 0.002296 0.052996 -0.061005
C80   C     C_R   0.500835 0.499233 0.445929 -0.041353
C81   C     C_R   0.359322 0.639543 0.248613 0.635975
C82   C     C_R   0.498189 0.497471 0.553225 -0.053624
C83   C     C_R   0.140182 0.860261 0.251008 0.634899
C84   C     C_R   0.140359 0.860606 0.749887 0.626304
C85   C     C_R   0.860276 0.859853 0.249751 0.624420
C86   C     C_R   0.859690 0.860822 0.749143 0.621620
C87   C     C_R   0.641358 0.361276 0.753381 0.567888
C88   C     C_R   0.638764 0.358591 0.252562 0.558470
C89   C     C_R   0.362787 0.356605 0.747257 0.570155
C90   C     C_R   0.360541 0.359814 0.250196 0.581473
C91   C     C_R   0.999834 0.000455 0.109685 0.585028
C92   C     C_R   0.638962 0.641394 0.749293 0.594916
C93   C     C_R   0.000484 0.000082 0.889831 0.627219
C94   C     C_R   0.499432 0.499355 0.609779 0.591936
C95   C     C_R   0.500437 0.500108 0.389898 0.649849
C96   C     C_R   0.003704 0.999357 0.389773 0.547205
C97   C     C_R   0.002123 0.000255 0.609961 0.567109
C98   C     C_R   0.502395 0.499688 0.890009 0.545024
C99   C     C_R   0.499244 0.500624 0.110067 0.563967
C100  C     C_R   0.003056 0.062067 0.472160 -0.023834
C101  C     C_R   0.999206 0.061895 0.524089 -0.014134
C102  C     C_R   0.466116 0.551775 0.972228 -0.077044
C103  C     C_R   0.640636 0.640521 0.249796 0.569848
C104  C     C_R   0.463947 0.551679 0.024771 -0.027139
C105  C     C_R   0.013243 0.998089 0.445135 0.027210
C106  C     C_R   0.010516 0.999143 0.554278 0.035100
C107  C     C_R   0.507436 0.500600 0.945886 0.024201
C108  C     C_R   0.504691 0.501701 0.054485 0.060680
C109  C     C_R   0.031684 0.933244 0.473942 -0.045493
C110  C     C_R   0.032603 0.934481 0.528506 -0.045420
C111  C     C_R   0.557647 0.456152 0.974877 -0.031812
C112  C     C_R   0.555648 0.456571 0.029644 -0.032536
C113  C     C_3   0.969724 0.138222 0.525229 0.311112
C114  C     C_R   0.814229 0.269189 0.729445 0.180155
C115  C     C_3   0.988376 0.142886 0.466107 0.345362
C116  C     C_3   0.387170 0.580381 0.025519 0.359460
C117  C     C_3   0.393360 0.588614 0.964962 0.344801
C118  C     C_R   0.262766 0.815866 0.274629 0.174446
C119  C     C_R   0.265823 0.824318 0.727258 0.164793
C120  C     C_R   0.778734 0.776831 0.202111 0.202090
C121  C     C_R   0.782179 0.771485 0.793012 0.194304
C122  C     C_R   0.768759 0.325129 0.744883 0.207473
C123  C     C_R   0.763620 0.313882 0.273061 0.188964
C124  C     C_R   0.249679 0.302098 0.710910 0.181463
H1    H     H_    0.164176 0.895857 0.437750 0.151847
H2    H     H_    0.168956 0.912564 0.566866 0.154118
H3    H     H_    0.666970 0.515398 0.920321 0.143371
H4    H     H_    0.780188 0.454977 0.894527 0.192130
H5    H     H_    0.798877 0.322331 0.911949 0.176229
H6    H     H_    0.703113 0.250307 0.955050 0.183323
H7    H     H_    0.587187 0.308833 0.977315 0.140727
H8    H     H_    0.542009 0.318894 0.070896 0.172997
H9    H     H_    0.633057 0.249469 0.123182 0.156774
H10   H     H_    0.752544 0.304388 0.143257 0.161169
H11   H     H_    0.781166 0.429460 0.111037 0.181642
H12   H     H_    0.198205 0.780304 0.395603 0.189993
H13   H     H_    0.690769 0.499574 0.058738 0.152444
H14   H     H_    0.779942 0.074451 0.510871 0.394972
H15   H     H_    0.829264 0.121712 0.378001 0.369908
H16   H     H_    0.964697 0.298360 0.542798 0.367136
H17   H     H_    0.129068 0.119755 0.392895 0.337473
H18   H     H_    0.311754 0.394951 0.034422 0.398723
H19   H     H_    0.214130 0.545631 0.909038 0.398068
H20   H     H_    0.292373 0.743811 0.071759 0.395723
H21   H     H_    0.523865 0.690875 0.939339 0.346318
H22   H     H_    0.326492 0.904262 0.392054 0.381333
H23   H     H_    0.106525 0.683690 0.382055 0.161035
H24   H     H_    0.341852 0.966344 0.640335 0.389950
H25   H     H_    0.844062 0.730252 0.074094 0.375991
H26   H     H_    0.862158 0.700308 0.914029 0.369052
H27   H     H_    0.908311 0.464983 0.760956 0.390607
H28   H     H_    0.882989 0.408302 0.364404 0.388949
H29   H     H_    0.208404 0.320626 0.573494 0.390946
H30   H     H_    0.220470 0.314383 0.426534 0.391829
H31   H     H_    0.840766 0.356304 0.603625 0.382732
H32   H     H_    0.916347 0.399842 0.181975 0.392367
H33   H     H_    0.134218 0.403404 0.757627 0.362096
H34   H     H_    0.980735 0.701296 0.412248 0.177665
H35   H     H_    0.078267 0.420278 0.280921 0.396272
H36   H     H_    0.483306 0.875665 0.304905 0.383587
H37   H     H_    0.453922 0.806786 0.628249 0.402949
H38   H     H_    0.653570 0.776617 0.068031 0.388953
H39   H     H_    0.635229 0.641169 0.905033 0.339495
H40   H     H_    0.722341 0.991205 0.713830 0.392041
H41   H     H_    0.719616 0.111301 0.144440 0.346517
H42   H     H_    0.162667 0.120479 0.902567 0.381901
H43   H     H_    0.279945 0.998960 0.184896 0.394620
H44   H     H_    0.251072 0.480327 0.199917 0.391339
H45   H     H_    0.946519 0.815706 0.455449 0.170445
H46   H     H_    0.196101 0.590301 0.667906 0.340884
H47   H     H_    0.661867 0.676269 0.409671 0.383354
H48   H     H_    0.772979 0.616271 0.636597 0.354564
H49   H     H_    0.043842 0.667771 0.131506 0.392082
H50   H     H_    0.070924 0.641549 0.862577 0.390541
H51   H     H_    0.727065 0.842003 0.423990 0.386518
H52   H     H_    0.707297 0.898337 0.586207 0.388401
H53   H     H_    0.644327 0.144711 0.900506 0.380878
H54   H     H_    0.522390 0.111713 0.305144 0.389632
H55   H     H_    0.438026 0.094296 0.828588 0.405618
H56   H     H_    0.958714 0.811076 0.555629 0.160687
H57   H     H_    0.298600 0.259106 0.065204 0.378052
H58   H     H_    0.194061 0.013421 0.057322 0.368481
H59   H     H_    0.953396 0.825724 0.925901 0.368055
H60   H     H_    0.809970 0.000979 0.049445 0.363272
H61   H     H_    0.970319 0.193030 0.864607 0.366647
H62   H     H_    0.690447 0.471984 0.558033 0.357787
H63   H     H_    0.486879 0.295033 0.384870 0.406498
H64   H     H_    0.310381 0.505545 0.553849 0.354338
H65   H     H_    0.526448 0.706601 0.395265 0.395691
H66   H     H_    0.005339 0.704858 0.606569 0.156843
H67   H     H_    0.133161 0.702290 0.637789 0.126085
H68   H     H_    0.215020 0.805406 0.617109 0.179270
O1    O     O_3   0.000000 0.000010 0.249960 -0.538023
O2    O     O_R   0.414520 0.646190 0.219700 -0.446496
O3    O     O_3   0.211027 0.291124 0.393011 -0.417481
O4    O     O_2   0.934386 0.306080 0.680045 -0.128845
O5    O     O_2   0.850405 0.218404 0.640244 -0.177902
O6    O     O_3   0.815238 0.354178 0.636820 -0.416945
O7    O     O_2   0.945925 0.326197 0.270398 -0.135445
O8    O     O_2   0.931008 0.250335 0.194030 -0.237127
O9    O     O_3   0.870110 0.378521 0.193854 -0.526721
O10   O     O_2   0.078276 0.299302 0.658393 -0.077219
O11   O     O_2   0.046987 0.281972 0.749237 -0.247343
O12   O     O_3   0.114618 0.399884 0.722101 -0.398153
O13   O     O_R   0.585480 0.646190 0.780300 -0.460180
O14   O     O_2   0.070507 0.291405 0.231730 -0.227131
O15   O     O_2   0.066902 0.283123 0.326361 -0.095208
O16   O     O_3   0.126781 0.396854 0.283860 -0.450975
O17   O     O_2   0.449171 0.733037 0.310933 -0.268298
O18   O     O_2   0.449597 0.789248 0.225257 -0.199851
O19   O     O_3   0.429764 0.872321 0.302063 -0.391334
O20   O     O_2   0.433458 0.866867 0.721472 -0.145639
O21   O     O_2   0.469421 0.739268 0.720839 -0.254781
O22   O     O_3   0.405378 0.791230 0.639905 -0.426391
O23   O     O_2   0.656390 0.654575 0.126242 -0.283628
O24   O     O_R   0.585480 0.646190 0.219700 -0.467896
O25   O     O_2   0.583163 0.756108 0.158360 -0.170555
O26   O     O_3   0.686024 0.787525 0.097588 -0.403176
O27   O     O_2   0.699787 0.773497 0.894078 -0.169122
O28   O     O_2   0.591442 0.754639 0.842210 -0.195521
O29   O     O_3   0.664640 0.639830 0.873562 -0.524401
O30   O     O_2   0.702599 0.047064 0.808553 -0.176320
O31   O     O_2   0.619502 0.089446 0.739594 -0.169166
O32   O     O_3   0.744730 0.040372 0.714082 -0.481057
O33   O     O_2   0.730095 0.024850 0.260759 -0.193600
O34   O     O_2   0.619768 0.067757 0.217015 -0.146828
O35   O     O_R   0.085460 0.853840 0.280340 -0.504002
O36   O     O_3   0.736335 0.068724 0.165652 -0.404765
O37   O     O_2   0.266025 0.066375 0.842914 -0.171250
O38   O     O_2   0.300582 0.177745 0.888129 -0.197019
O39   O     O_3   0.164026 0.154278 0.872415 -0.480483
O40   O     O_2   0.223292 0.110928 0.130998 -0.210974
O41   O     O_2   0.352643 0.123644 0.151635 -0.160493
O42   O     O_3   0.277664 0.039201 0.209858 -0.441631
O43   O     O_2   0.140559 0.566654 0.212155 -0.194455
O44   O     O_2   0.216515 0.603981 0.140052 -0.123242
O45   O     O_3   0.273637 0.525640 0.212910 -0.496608
O46   O     O_R   0.085460 0.853840 0.719660 -0.524618
O47   O     O_2   0.242252 0.537436 0.789744 -0.216381
O48   O     O_2   0.122357 0.574133 0.757476 -0.178834
O49   O     O_3   0.221893 0.555854 0.691721 -0.409544
O50   O     O_2   0.765879 0.580928 0.334612 -0.168087
O51   O     O_2   0.794775 0.681159 0.390420 -0.218878
O52   O     O_3   0.659157 0.647006 0.378036 -0.463932
O53   O     O_2   0.601964 0.684962 0.642116 -0.220585
O54   O     O_2   0.700781 0.734210 0.591922 -0.163307
O55   O     O_3   0.719869 0.608394 0.634821 -0.443936
O56   O     O_2   0.045509 0.678854 0.233986 -0.227509
O57   O     O_R   0.914540 0.853840 0.280340 -0.487815
O58   O     O_2   0.052062 0.793643 0.185412 -0.243994
O59   O     O_3   0.094934 0.678137 0.141136 -0.383279
O60   O     O_2   0.081567 0.783887 0.831287 -0.188956
O61   O     O_2   0.040951 0.697517 0.766503 -0.226168
O62   O     O_3   0.117827 0.648632 0.845153 -0.420409
O63   O     O_2   0.854732 0.818170 0.378622 -0.264687
O64   O     O_2   0.779612 0.913680 0.337465 -0.240622
O65   O     O_3   0.715146 0.814940 0.392339 -0.475140
O66   O     O_2   0.814946 0.920115 0.656999 -0.283865
O67   O     O_2   0.822977 0.809461 0.606385 -0.257875
O68   O     O_R   0.914540 0.853840 0.719660 -0.482146
O69   O     O_3   0.696318 0.871085 0.618372 -0.431548
O70   O     O_2   0.599801 0.278533 0.858939 -0.257887
O71   O     O_2   0.566380 0.166060 0.815594 -0.153126
O72   O     O_3   0.679281 0.164009 0.875185 -0.485005
O73   O     O_2   0.539423 0.260036 0.295787 -0.284154
O74   O     O_2   0.536635 0.190150 0.216602 -0.201214
O75   O     O_3   0.574548 0.123951 0.302804 -0.421564
O76   O     O_2   0.455221 0.215953 0.753765 -0.202755
O77   O     O_2   0.428649 0.232445 0.845052 -0.184197
O78   O     O_3   0.398930 0.107112 0.803434 -0.398825
O79   O     O_R   0.585460 0.353840 0.780340 -0.485269
O80   O     O_2   0.317794 0.367612 0.138769 -0.253346
O81   O     O_2   0.403715 0.265098 0.135885 -0.202443
O82   O     O_3   0.273662 0.248057 0.097840 -0.435789
O83   O     O_2   0.105604 0.860745 0.097139 -0.170054
O84   O     O_2   0.178294 0.878072 0.020345 -0.152841
O85   O     O_3   0.179450 0.980227 0.085788 -0.446011
O86   O     O_2   0.130215 0.870036 0.915869 -0.138478
O87   O     O_2   0.067252 0.801304 0.983538 -0.177996
O88   O     O_3   0.993175 0.842293 0.903471 -0.457714
O89   O     O_2   0.907499 0.142358 0.097248 -0.212798
O90   O     O_R   0.585460 0.353840 0.219660 -0.514473
O91   O     O_2   0.833643 0.143245 0.018623 -0.197921
O92   O     O_3   0.823582 0.031861 0.078941 -0.426863
O93   O     O_2   0.862565 0.132516 0.915589 -0.223020
O94   O     O_2   0.944027 0.205288 0.970037 -0.189791
O95   O     O_3   0.994514 0.154397 0.885982 -0.528277
O96   O     O_2   0.570120 0.348640 0.604831 -0.220488
O97   O     O_2   0.646298 0.334929 0.529869 -0.131028
O98   O     O_3   0.670882 0.443976 0.587607 -0.414036
O99   O     O_2   0.626666 0.351575 0.426245 -0.156449
O100  O     O_2   0.531531 0.291627 0.476622 -0.188064
O101  O     O_R   0.414540 0.353840 0.780340 -0.476717
O102  O     O_3   0.496298 0.348071 0.388147 -0.507461
O103  O     O_2   0.414272 0.645997 0.595640 -0.193536
O104  O     O_2   0.338449 0.645549 0.517808 -0.180268
O105  O     O_3   0.324644 0.538947 0.581783 -0.440492
O106  O     O_2   0.375176 0.641138 0.414488 -0.191232
O107  O     O_2   0.455312 0.704584 0.475317 -0.193797
O108  O     O_3   0.510840 0.655029 0.392224 -0.502376
O109  O     O_3   0.000000 0.000010 0.750040 -0.532044
O110  O     O_R   0.414540 0.353840 0.219660 -0.455788
O111  O     O_R   0.853820 0.914550 0.219610 -0.456899
O112  O     O_R   0.853820 0.914550 0.780390 -0.475925
O113  O     O_R   0.146180 0.914550 0.219610 -0.475060
O114  O     O_R   0.146180 0.914550 0.780390 -0.452893
O115  O     O_R   0.353820 0.414550 0.719610 -0.458698
O116  O     O_R   0.353820 0.414550 0.280390 -0.462055
O117  O     O_R   0.646180 0.414550 0.719610 -0.447422
O118  O     O_R   0.646180 0.414550 0.280390 -0.468857
O119  O     O_R   0.146170 0.085440 0.219600 -0.475041
O120  O     O_3   0.500000 0.500010 0.749960 -0.548872
O121  O     O_R   0.146170 0.085440 0.780400 -0.469570
O122  O     O_R   0.853830 0.085440 0.219600 -0.453213
O123  O     O_R   0.853830 0.085440 0.780400 -0.479251
O124  O     O_R   0.646170 0.585440 0.719600 -0.460030
O125  O     O_R   0.646170 0.585440 0.280400 -0.460844
O126  O     O_R   0.353830 0.585440 0.719600 -0.457917
O127  O     O_R   0.353830 0.585440 0.280400 -0.471570
O128  O     O_R   0.939270 0.999980 0.134160 -0.452226
O129  O     O_R   0.939270 0.999980 0.865840 -0.476268
O130  O     O_R   0.060730 0.999980 0.134160 -0.465720
O131  O     O_3   0.500000 0.500010 0.250040 -0.538967
O132  O     O_R   0.060730 0.999980 0.865840 -0.490878
O133  O     O_R   0.439270 0.499980 0.634160 -0.466294
O134  O     O_R   0.439270 0.499980 0.365840 -0.473087
O135  O     O_R   0.560730 0.499980 0.634160 -0.450586
O136  O     O_R   0.560730 0.499980 0.365840 -0.455889
O137  O     O_R   0.000000 0.060760 0.365760 -0.487686
O138  O     O_R   0.000000 0.060760 0.634240 -0.467711
O139  O     O_R   0.500000 0.560760 0.865760 -0.513032
O140  O     O_R   0.500000 0.560760 0.134240 -0.483704
O141  O     O_R   0.000000 0.939310 0.365770 -0.526071
O142  O     O_R   0.914520 0.146190 0.280300 -0.469746
O143  O     O_R   0.000000 0.939310 0.634230 -0.530701
O144  O     O_R   0.500000 0.439310 0.865770 -0.493885
O145  O     O_R   0.500000 0.439310 0.134230 -0.519682
O146  O     O_2   0.867398 0.095586 0.593796 -0.213362
O147  O     O_2   0.837765 0.203240 0.539820 -0.177942
O148  O     O_3   0.831317 0.073766 0.500273 -0.464017
O149  O     O_2   0.870378 0.230725 0.444340 -0.185969
O150  O     O_2   0.948888 0.203668 0.373656 -0.145719
O151  O     O_3   0.863265 0.101218 0.404448 -0.473134
O152  O     O_2   0.984257 0.198403 0.619482 -0.145973
O153  O     O_R   0.914520 0.146190 0.719700 -0.462414
O154  O     O_2   0.095799 0.173803 0.576056 -0.185302
O155  O     O_3   0.016817 0.284912 0.544722 -0.416858
O156  O     O_2   0.065806 0.267958 0.449394 -0.134798
O157  O     O_2   0.135227 0.162716 0.483457 -0.254187
O158  O     O_3   0.096515 0.162840 0.388646 -0.421690
O159  O     O_2   0.330819 0.509667 0.108143 -0.201920
O160  O     O_2   0.250969 0.523572 0.033100 -0.149271
O161  O     O_3   0.355340 0.426219 0.032010 -0.491772
O162  O     O_2   0.347350 0.550300 0.869094 -0.252678
O163  O     O_2   0.331330 0.458230 0.936049 -0.239140
O164  O     O_R   0.085480 0.146190 0.280300 -0.465605
O165  O     O_3   0.245396 0.571940 0.933825 -0.396511
O166  O     O_2   0.377187 0.644598 0.118850 -0.224055
O167  O     O_2   0.437837 0.716022 0.053197 -0.181386
O168  O     O_3   0.297095 0.703041 0.047415 -0.385301
O169  O     O_2   0.408738 0.680045 0.881136 -0.195211
O170  O     O_2   0.345919 0.730349 0.953373 -0.104767
O171  O     O_3   0.486148 0.715474 0.959587 -0.440624
O172  O     O_2   0.312423 0.951987 0.292021 -0.161820
O173  O     O_2   0.202099 0.918594 0.336650 -0.363835
O174  O     O_3   0.322115 0.860894 0.369924 -0.451736
O175  O     O_R   0.085480 0.146190 0.719700 -0.478828
O176  O     O_2   0.208756 0.951090 0.684037 -0.342405
O177  O     O_2   0.314924 0.961064 0.740636 -0.153536
O178  O     O_3   0.331265 0.914206 0.647969 -0.446798
O179  O     O_2   0.811587 0.858864 0.118786 -0.191025
O180  O     O_2   0.910390 0.788140 0.159255 -0.254037
O181  O     O_3   0.816446 0.717656 0.105338 -0.452250
O182  O     O_2   0.919784 0.764986 0.827799 -0.227006
O183  O     O_2   0.833489 0.837524 0.876929 -0.233315
O184  O     O_3   0.828358 0.695052 0.884369 -0.449045
O185  O     O_2   0.785829 0.460110 0.701597 -0.164213
O186  O     O_R   0.414520 0.646190 0.780300 -0.440112
O187  O     O_2   0.768525 0.453240 0.794318 -0.333767
O188  O     O_3   0.893270 0.413107 0.759113 -0.441738
O189  O     O_2   0.804077 0.453971 0.282236 -0.206458
O190  O     O_2   0.735110 0.401498 0.353967 -0.174660
O191  O     O_3   0.867952 0.363164 0.346681 -0.407368
O192  O     O_2   0.227707 0.418887 0.647896 -0.157233
O193  O     O_2   0.333763 0.341825 0.630994 -0.254995
O194  O     O_3   0.207037 0.292484 0.606342 -0.413376
O195  O     O_2   0.342929 0.325392 0.369648 -0.262599
O196  O     O_2   0.246269 0.414842 0.350064 -0.181884
S1    S     S_3+6 0.874372 0.129545 0.541168 0.120002
S2    S     S_3+6 0.279138 0.915006 0.700304 0.080359
S3    S     S_3+6 0.831110 0.787565 0.145376 0.107343
S4    S     S_3+6 0.843268 0.768983 0.846612 0.090895
S5    S     S_3+6 0.802808 0.416133 0.749667 0.089920
S6    S     S_3+6 0.791334 0.386214 0.314313 0.149456
S7    S     S_3+6 0.256220 0.341776 0.648132 0.124603
S8    S     S_3+6 0.265619 0.334777 0.351537 0.115201
S9    S     S_3+6 0.856656 0.286414 0.670740 0.155402
S10   S     S_3+6 0.894478 0.303721 0.228662 0.107125
S11   S     S_3+6 0.103420 0.309755 0.712757 0.155770
S12   S     S_3+6 0.916139 0.171836 0.421482 0.147574
S13   S     S_3+6 0.110882 0.306430 0.280968 0.146559
S14   S     S_3+6 0.413642 0.790051 0.276671 0.125541
S15   S     S_3+6 0.410637 0.792145 0.704440 0.134200
S16   S     S_3+6 0.658634 0.731732 0.145403 0.133316
S17   S     S_3+6 0.667436 0.727185 0.852567 0.118928
S18   S     S_3+6 0.697358 0.086892 0.757603 0.141672
S19   S     S_3+6 0.699549 0.081220 0.223549 0.129873
S20   S     S_3+6 0.248540 0.146112 0.849550 0.121428
S21   S     S_3+6 0.278282 0.116462 0.173945 0.144384
S22   S     S_3+6 0.214551 0.593055 0.197336 0.139481
S23   S     S_3+6 0.018586 0.198515 0.567917 0.159380
S24   S     S_3+6 0.202354 0.584852 0.750847 0.105731
S25   S     S_3+6 0.740868 0.655188 0.350931 0.124157
S26   S     S_3+6 0.683088 0.692338 0.640115 0.119937
S27   S     S_3+6 0.090561 0.722548 0.196979 0.131522
S28   S     S_3+6 0.102494 0.717110 0.802196 0.137093
S29   S     S_3+6 0.783291 0.833759 0.352046 0.092866
S30   S     S_3+6 0.777836 0.849405 0.644604 0.075000
S31   S     S_3+6 0.628689 0.212692 0.832321 0.102689
S32   S     S_3+6 0.576952 0.201055 0.266533 0.108701
S33   S     S_3+6 0.402672 0.198656 0.795838 0.159521
S34   S     S_3+6 0.073576 0.186119 0.448390 0.131094
S35   S     S_3+6 0.325696 0.286030 0.143733 0.112238
S36   S     S_3+6 0.129269 0.915608 0.057310 0.126218
S37   S     S_3+6 0.060462 0.862900 0.944613 0.127231
S38   S     S_3+6 0.878991 0.095916 0.054396 0.104222
S39   S     S_3+6 0.938993 0.139978 0.935835 0.083416
S40   S     S_3+6 0.607128 0.389345 0.562033 0.137203
S41   S     S_3+6 0.548451 0.355238 0.441397 0.120433
S42   S     S_3+6 0.382521 0.598479 0.554570 0.113924
S43   S     S_3+6 0.449759 0.641983 0.438672 0.110902
S44   S     S_3+6 0.327967 0.509588 0.050521 0.143983
S45   S     S_3+6 0.329497 0.539044 0.924739 0.123834
S46   S     S_3+6 0.377234 0.663112 0.062533 0.156511
S47   S     S_3+6 0.406917 0.680551 0.938697 0.164632
S48   S     S_3+6 0.273530 0.890114 0.318180 0.056934
Zn1   Zn    Zn3+2 0.000000 0.913260 0.293350 1.071802
Zn2   Zn    Zn3+2 0.413230 0.500000 0.293420 1.147383
Zn3   Zn    Zn3+2 0.586770 0.500000 0.706580 1.141113
Zn4   Zn    Zn3+2 0.586770 0.500000 0.293420 1.141312
Zn5   Zn    Zn3+2 0.000000 0.086780 0.293330 1.111809
Zn6   Zn    Zn3+2 0.000000 0.086780 0.706670 1.143023
Zn7   Zn    Zn3+2 0.500000 0.586780 0.793330 1.120953
Zn8   Zn    Zn3+2 0.500000 0.586780 0.206670 1.143923
Zn9   Zn    Zn3+2 0.000000 0.913260 0.706650 1.074342
Zn10  Zn    Zn3+2 0.500000 0.413260 0.793350 1.103421
Zn11  Zn    Zn3+2 0.500000 0.413260 0.206650 1.079970
Zn12  Zn    Zn3+2 0.913230 1.000000 0.206580 1.164268
Zn13  Zn    Zn3+2 0.913230 1.000000 0.793420 1.128854
Zn14  Zn    Zn3+2 0.086770 1.000000 0.206580 1.118670
Zn15  Zn    Zn3+2 0.086770 1.000000 0.793420 1.135477
Zn16  Zn    Zn3+2 0.413230 0.500000 0.706580 1.153553

loop_
_geom_bond_atom_site_label_1
_geom_bond_atom_site_label_2
_ccdc_geom_bond_type
O89   S38   D    
O98   S40   S    
C92   O124  A    
H27   O188  S    
C82   C94   S    
H47   O52   S    
C101  C113  S    
C9    H45   S    
C19   C20   A    
H17   O158  S    
H37   O22   S    
O158  S34   S    
O150  S12   D    
C2    C123  A    
C23   C112  S    
C37   O123  A    
C59   O121  A    
C72   C79   A    
C52   C61   A    
C5    C6    A    
O40   S21   D    
C54   C63   A    
C83   O113  A    
O80   S35   D    
O172  S48   D    
C115  S12   S    
O16   S13   S    
C53   S28   S    
O58   S27   D    
O130  Zn14  S    
C104  C116  S    
O134  Zn2   S    
O168  S46   S    
O10   S11   D    
C68   C90   S    
O191  S6    S    
O110  Zn11  S    
C51   S26   S    
C71   C78   A    
C45   S20   S    
O124  Zn3   S    
O65   S29   S    
O161  S44   S    
C21   C22   A    
C63   C85   S    
H26   O184  S    
C100  C115  S    
O7    S10   D    
O194  S7    S    
C65   C87   S    
H39   O29   S    
C54   S29   S    
O109  Zn13  S    
O84   S36   D    
C84   O46   A    
O180  S3    D    
C13   C124  A    
C4    C5    A    
O102  S41   S    
H20   O168  S    
H41   O36   S    
H15   O151  S    
O184  S4    S    
H28   O191  S    
O159  S44   D    
O155  S23   S    
O62   S28   S    
C75   S41   S    
C91   O128  A    
H40   O32   S    
O37   S20   D    
C44   C57   A    
H60   O92   S    
O142  Zn5   S    
C65   C122  A    
O162  S45   D    
O91   S38   D    
C70   O126  A    
C62   C119  A    
C6    C7    A    
H31   O6    S    
H51   O65   S    
O64   S29   D    
C85   O111  A    
O79   Zn10  S    
C86   O112  A    
C99   O145  A    
O35   Zn1   S    
O83   S36   D    
O12   S11   S    
O170  S47   D    
O24   Zn8   S    
O44   S22   D    
O131  Zn8   S    
C39   C47   A    
H55   O78   S    
C42   C92   S    
C46   C60   A    
C61   C118  A    
C27   H10   S    
O144  Zn10  S    
O68   Zn9   S    
O139  Zn7   S    
O183  S4    D    
C72   C73   A    
C88   O90   A    
O25   S16   D    
C71   S37   S    
O163  S45   D    
C47   C52   A    
O196  S8    D    
C52   S27   S    
C77   S43   S    
C10   C16   A    
O8    S10   D    
C49   C53   A    
C51   C55   A    
C50   S25   S    
O94   S39   D    
O147  S1    D    
C44   S19   S    
O165  S45   S    
O106  S43   D    
C41   C103  S    
C58   C67   A    
C20   C21   A    
O14   S13   D    
O154  S23   D    
C103  O24   A    
C93   O129  A    
C113  C115  S    
O109  Zn15  S    
O56   S27   D    
O105  S42   S    
C85   O57   A    
C28   H11   S    
O153  Zn6   S    
C111  C112  A    
O126  Zn16  S    
C57   C66   A    
C7    C8    A    
O63   S29   D    
C115  S34   S    
C99   C108  S    
C96   O141  A    
C40   C70   S    
O121  Zn15  S    
C33   C42   A    
C23   C29   A    
O18   S14   D    
O34   S19   D    
O36   S19   S    
C66   C88   S    
O131  Zn11  S    
O109  Zn6   S    
O23   S16   D    
C40   C49   A    
C91   O130  A    
C92   O13   A    
C32   C41   A    
O50   S25   D    
C32   S16   S    
C47   S22   S    
O19   S14   S    
C79   C91   S    
C37   O153  A    
O42   S21   S    
O32   S18   S    
O96   S40   D    
O4    S9    D    
C1    O122  A    
O3    S8    S    
C3    C24   A    
O103  S42   D    
H32   O9    S    
C17   C111  S    
O128  Zn12  S    
C7    H23   S    
C13   S11   S    
C121  S4    S    
O13   Zn7   S    
C119  S2    S    
O152  S23   D    
O135  Zn3   S    
O188  S5    S    
O136  Zn4   S    
O81   S35   D    
C76   C82   A    
C3    S8    S    
C30   C118  A    
H48   O55   S    
C25   C26   A    
O71   S31   D    
O133  Zn16  S    
C49   S24   S    
O174  S48   S    
C17   C18   A    
C102  C107  A    
C80   C95   S    
O88   S37   S    
C56   S31   S    
C86   O68   A    
C102  C117  S    
O55   S26   S    
H30   O3    S    
O109  Zn9   S    
C69   C79   A    
O112  Zn13  S    
C14   H67   S    
H62   O98   S    
C101  C106  A    
H36   O19   S    
C62   C84   S    
O190  S6    D    
O74   S32   D    
O171  S47   S    
C107  C111  A    
C34   C43   A    
O176  S2    D    
O72   S31   S    
C59   O175  A    
C99   O140  A    
C73   S39   S    
C74   S40   S    
O22   S15   S    
O1    Zn1   S    
H19   O165  S    
O104  S42   D    
O51   S25   D    
O75   S32   S    
C117  S45   S    
C30   C39   A    
C30   S14   S    
C38   C46   A    
O131  Zn4   S    
C116  S44   S    
O156  S34   D    
C96   O137  A    
O70   S31   D    
C94   O135  A    
O143  Zn9   S    
C5    H1    S    
O127  Zn2   S    
C66   C123  A    
O26   S16   S    
O179  S3    D    
C4    C9    A    
C25   H8    S    
C72   S38   S    
C2    C35   A    
C96   C105  S    
H38   O26   S    
C87   O117  A    
C22   H7    S    
C34   C37   S    
H46   O49   S    
C3    C68   A    
O108  S43   S    
C20   H5    S    
C4    C109  S    
C36   C59   S    
C8    H34   S    
H65   O108  S    
H49   O59   S    
H24   O178  S    
C98   O144  A    
C26   C27   A    
C50   C54   A    
O85   S36   S    
C28   C29   A    
O192  S7    D    
O116  Zn2   S    
O117  Zn3   S    
O1    Zn5   S    
C64   C121  A    
C19   H4    S    
C31   C40   A    
C18   C19   A    
O47   S24   D    
O185  S5    D    
O111  Zn12  S    
C58   S33   S    
O145  Zn11  S    
C105  C109  A    
O195  S8    D    
O107  S43   D    
H50   O62   S    
C55   S30   S    
O125  Zn4   S    
O141  Zn1   S    
O140  Zn8   S    
O1    Zn12  S    
C120  S3    S    
H21   O171  S    
O101  Zn10  S    
C69   S36   S    
O100  S41   D    
C33   S17   S    
O45   S22   S    
C57   S32   S    
O11   S11   D    
O39   S20   S    
O169  S47   D    
O149  S12   D    
C64   C86   S    
O148  S1    S    
O120  Zn10  S    
C45   C58   A    
O54   S26   D    
H35   O16   S    
C61   C83   S    
O20   S15   D    
O76   S33   D    
C98   C107  S    
C108  C112  A    
C118  S48   S    
O73   S32   D    
O131  Zn2   S    
C116  S46   S    
O30   S18   D    
O114  Zn15  S    
C90   O110  A    
O41   S21   D    
O87   S37   D    
O120  Zn7   S    
C11   C12   A    
C94   O133  A    
O178  S2    S    
O52   S25   S    
O93   S39   D    
C123  S6    S    
C31   C119  A    
C97   C106  S    
O92   S38   S    
O120  Zn3   S    
C24   S13   S    
O122  Zn12  S    
O43   S22   D    
O181  S3    S    
C41   C50   A    
C104  C108  A    
O182  S4    D    
O17   S14   D    
O48   S24   D    
C77   C80   A    
O28   S17   D    
O29   S17   S    
C81   O127  A    
O137  Zn5   S    
O90   Zn11  S    
O2    Zn8   S    
O189  S6    D    
C29   H13   S    
O187  S5    D    
C17   C22   A    
O115  Zn16  S    
C31   S15   S    
O61   S28   D    
C113  S1    S    
C109  C110  A    
C97   O143  A    
C89   O101  A    
O95   S39   S    
C113  S23   S    
C10   C110  S    
O132  Zn15  S    
C48   O164  A    
C60   S35   S    
C117  S47   S    
H52   O69   S    
O119  Zn14  S    
C60   C68   A    
C1    O142  A    
C11   H56   S    
O97   S40   D    
C16   H2    S    
C74   C82   A    
H22   O174  S    
C95   O136  A    
H43   O42   S    
C84   O114  A    
C15   H68   S    
C103  O125  A    
C48   O119  A    
C70   O186  A    
C67   C124  A    
O66   S30   D    
H59   O88   S    
C83   O35   A    
O123  Zn13  S    
C100  C105  A    
C43   S18   S    
H29   O194  S    
H14   O148  S    
H53   O72   S    
O9    S10   S    
C89   O115  A    
C2    S10   S    
C90   O116  A    
O113  Zn14  S    
C78   C93   S    
C15   C16   A    
C98   O139  A    
C67   C89   S    
C116  C117  S    
O27   S17   D    
C69   C71   A    
C46   S21   S    
C100  C101  A    
C6    H12   S    
O46   Zn9   S    
O67   S30   D    
C87   O79   A    
C81   O2    A    
O120  Zn16  S    
C122  S5    S    
C8    C9    A    
O193  S7    D    
C24   C38   A    
C73   C78   A    
O151  S12   S    
C75   C80   A    
H16   O155  S    
C97   O138  A    
C76   S42   S    
O33   S19   D    
O31   S18   D    
C33   C121  A    
C32   C120  A    
H57   O82   S    
H58   O85   S    
O129  Zn13  S    
C74   C75   A    
O49   S24   S    
O99   S41   D    
C76   C77   A    
C39   C81   S    
C13   C36   A    
O57   Zn1   S    
O1    Zn14  S    
C10   C11   A    
H33   O12   S    
H54   O75   S    
O6    S9    S    
H25   O181  S    
O53   S26   D    
O21   S15   D    
O78   S33   S    
C18   H3    S    
C53   C62   A    
C124  S7    S    
O77   S33   D    
C55   C64   A    
C36   C45   A    
C93   O132  A    
C102  C104  A    
C35   C44   A    
H63   O102  S    
O59   S27   S    
C95   O134  A    
H64   O105  S    
O60   S28   D    
C12   C14   A    
O157  S34   D    
O177  S2    D    
O166  S46   D    
O118  Zn4   S    
C1    C35   S    
C106  C110  A    
O175  Zn6   S    
O160  S44   D    
C14   C15   A    
C38   C48   S    
O38   S20   D    
O82   S35   S    
H44   O45   S    
C56   C65   A    
C34   C114  A    
C12   H66   S    
C42   C51   A    
C88   O118  A    
O167  S46   D    
O69   S30   S    
O146  S1    D    
O164  Zn5   S    
H61   O95   S    
O15   S13   D    
C26   H9    S    
C63   C120  A    
O173  S48   D    
O186  Zn7   S    
C23   C25   A    
C21   H6    S    
O86   S37   D    
O5    S9    D    
C114  C122  A    
C114  S9    S    
C43   C56   A    
H18   O161  S    
C27   C28   A    
H42   O39   S    
O138  Zn6   S    
