data_mof_unit_58100.cif
_audit_creation_date              2013-03-05T16:00:28-0500
_audit_creation_method            fapswitch 2.2
_symmetry_space_group_name_H-M    P1
_symmetry_Int_Tables_number       1
_space_group_crystal_system       triclinic
_cell_length_a                    12.573896
_cell_length_b                    13.17475
_cell_length_c                    27.446215
_cell_angle_alpha                 89.860903
_cell_angle_beta                  100.923059
_cell_angle_gamma                 83.15729
_cell_volume                      4431.05134716

loop_
_atom_site_label
_atom_site_type_symbol
_atom_site_description
_atom_site_fract_x
_atom_site_fract_y
_atom_site_fract_z
_atom_type_partial_charge
O1    O     O_R   0.366730 0.627160 0.487740 -0.626204
O2    O     O_R   0.544830 0.662520 0.504140 -0.527777
C1    C     C_R   0.439082 0.690974 0.494235 0.853665
O3    O     O_R   0.410970 0.482310 0.563040 -0.629967
O4    O     O_R   0.589070 0.517670 0.579450 -0.583828
C2    C     C_R   0.499653 0.499481 0.593582 0.872447
Zn1   Zn    Zn3+2 0.381080 0.476390 0.489050 0.975842
Zn2   Zn    Zn3+2 0.618920 0.523610 0.510950 1.084221
O5    O     O_R   0.455170 0.337480 0.495860 -0.618493
O6    O     O_R   0.633270 0.372840 0.512260 -0.616357
O7    O     O_R   0.410930 0.482330 0.420550 -0.634562
O8    O     O_R   0.589030 0.517690 0.436960 -0.549688
C3    C     C_R   0.560368 0.309032 0.505859 0.948194
C4    C     C_R   0.500660 0.498585 0.406373 0.958767
C5    C     C_R   0.598494 0.444850 0.831195 0.542766
O9    O     O_2   0.688074 0.461638 0.813484 -0.535010
N1    N     N_R   0.503095 0.441676 0.798480 -0.356320
C6    C     C_R   0.408816 0.424785 0.812978 0.561235
C7    C     C_R   0.544818 0.377235 0.720289 -0.104897
C8    C     C_R   0.545696 0.391409 0.670157 -0.053297
C9    C     C_R   0.461086 0.567521 0.673642 -0.044146
C10   C     C_R   0.460828 0.551977 0.723874 -0.121917
C11   C     C_R   0.502079 0.456955 0.746916 0.267002
C12   C     C_R   0.504082 0.418894 0.898664 -0.092044
C13   C     C_R   0.602319 0.433234 0.882561 -0.102440
C14   C     C_R   0.700484 0.433550 0.918257 -0.156261
C15   C     C_R   0.406724 0.409476 0.863677 -0.137016
C16   C     C_R   0.502637 0.486610 0.646455 -0.091953
H1    H     H_    0.429387 0.613493 0.745364 0.153347
C17   C     C_R   0.498760 0.499980 0.353104 -0.141335
C18   C     C_R   0.580617 0.473432 0.031410 0.076577
C19   C     C_R   0.406618 0.401269 0.018996 0.025518
C20   C     C_R   0.488932 0.448954 0.049731 0.078357
C21   C     C_R   0.650381 0.537066 0.059304 -0.106439
C22   C     C_R   0.639232 0.563439 0.107199 -0.104308
C23   C     C_R   0.556914 0.527962 0.128079 -0.036763
C24   C     C_R   0.480384 0.471860 0.099086 -0.058236
C25   C     C_R   0.396568 0.437407 0.119662 -0.047465
C26   C     C_R   0.393808 0.455572 0.169665 0.541379
N2    N     N_R   0.472009 0.505848 0.197682 -0.350097
C27   C     C_R   0.550668 0.544738 0.177772 0.539166
C28   C     C_R   0.432167 0.585689 0.273047 -0.072723
C29   C     C_R   0.438875 0.583898 0.324117 -0.063629
C30   C     C_R   0.550174 0.415980 0.330432 0.319563
C31   C     C_R   0.540339 0.418609 0.278406 -0.123373
C32   C     C_R   0.481977 0.503836 0.250357 0.190459
O10   O     O_2   0.624585 0.596250 0.206527 -0.524400
C33   C     C_R   0.595379 0.439764 0.984147 -0.077939
C34   C     C_R   0.502369 0.418254 0.949981 0.049981
C35   C     C_R   0.406508 0.401008 0.967125 0.011008
C36   C     C_R   0.697783 0.429870 0.969196 0.353626
H2    H     H_    0.386616 0.649952 0.250487 0.166702
H3    H     H_    0.696511 0.610010 0.128047 0.203077
H4    H     H_    0.712913 0.568187 0.043924 0.192470
O11   O     O_2   0.317757 0.426345 0.777993 -0.458863
C37   C     C_R   0.311088 0.390322 0.881224 0.415592
H5    H     H_    0.577411 0.304376 0.738945 0.156673
C38   C     C_R   0.327999 0.359188 0.041664 -0.030526
C39   C     C_R   0.322607 0.379475 0.091121 -0.135517
O12   O     O_2   0.315952 0.420693 0.190673 -0.524556
C40   C     C_R   0.311804 0.391360 0.932029 -0.293078
H6    H     H_    0.262181 0.346973 0.107758 0.205771
H7    H     H_    0.234686 0.390856 0.943574 0.204048
C41   C     C_R   0.697394 0.063786 0.468310 0.494340
H8    H     H_    0.751856 0.210529 0.485753 0.211666
C42   C     C_R   0.594656 0.200338 0.504247 -0.110918
C43   C     C_R   0.310530 0.828873 0.518217 -0.146003
C44   C     C_R   0.287442 0.930103 0.530473 -0.092949
C45   C     C_R   0.356171 0.001137 0.522385 -0.142097
C46   C     C_R   0.445959 0.972668 0.498638 0.121740
C47   C     C_R   0.459338 0.873097 0.480672 0.015751
C48   C     C_R   0.524453 0.037997 0.492772 -0.001005
C49   C     C_R   0.607867 0.006019 0.465340 -0.119746
C50   C     C_R   0.594736 0.920538 0.434939 0.492842
C51   C     C_R   0.526801 0.851036 0.445861 -0.168585
C52   C     C_R   0.521258 0.135092 0.512623 -0.193733
C53   C     C_R   0.688124 0.162497 0.486679 -0.136343
C54   C     C_R   0.399448 0.799281 0.495283 -0.065451
H9    H     H_    0.458033 0.165479 0.531942 0.154019
H10   H     H_    0.261707 0.773092 0.528561 0.175999
H11   H     H_    0.335345 0.077310 0.534494 0.137051
H12   H     H_    0.219065 0.952657 0.548474 0.177886
H13   H     H_    0.519153 0.783109 0.424069 0.190646
C55   C     C_R   0.082208 0.378758 0.416298 -0.068396
H14   H     H_    0.252202 0.362711 0.411393 0.170423
H15   H     H_    0.866802 0.425660 0.383833 0.158796
N3    N     N_R   0.222180 0.444690 0.474320 -0.135899
C56   C     C_R   0.812378 0.590045 0.572040 0.539134
C57   C     C_R   0.916106 0.550868 0.598476 -0.173155
C58   C     C_R   0.989348 0.496537 0.573180 -0.256278
C59   C     C_R   0.962256 0.488469 0.521507 -0.027909
C60   C     C_R   0.851622 0.512501 0.498329 0.050231
C61   C     C_R   0.041143 0.458204 0.491904 -0.023907
C62   C     C_R   0.004883 0.420126 0.444180 0.053094
C63   C     C_R   0.893400 0.439008 0.422928 -0.237279
C64   C     C_R   0.824752 0.504867 0.446530 0.451249
C65   C     C_R   0.151405 0.477544 0.504365 0.068486
C66   C     C_R   0.191698 0.390673 0.433020 -0.026776
N4    N     N_R   0.776980 0.554780 0.525420 -0.166224
H16   H     H_    0.068815 0.464923 0.593580 0.178686
C67   C     C_1   0.420928 0.667324 0.651162 0.255805
N5    N     N_1   0.389056 0.747514 0.633327 -0.166149
S1    S     S_3+6 0.188112 0.361019 0.842915 0.097158
O13   O     O_2   0.129643 0.455890 0.814815 -0.186794
O14   O     O_2   0.212942 0.280246 0.806694 -0.238799
O15   O     O_3   0.104781 0.317588 0.877307 -0.521007
H17   H     H_    0.140048 0.248428 0.889239 0.365983
C68   C     C_1   0.262543 0.283013 0.018475 0.194558
N6    N     N_1   0.210211 0.221771 0.000151 -0.161178
S2    S     S_3+6 0.616965 0.305677 0.366648 0.024123
O16   O     O_2   0.685760 0.337444 0.413488 -0.376793
O17   O     O_2   0.531062 0.246725 0.380134 -0.261758
O18   O     O_3   0.698252 0.227873 0.337004 -0.457541
H18   H     H_    0.764628 0.262259 0.338331 0.358362
C69   C     C_1   0.586229 0.334145 0.252278 0.316592
N7    N     N_1   0.622336 0.267125 0.230842 -0.108631
S3    S     S_3+6 0.623758 0.919254 0.374040 0.133289
O19   O     O_2   0.539515 0.867273 0.340087 -0.288492
O20   O     O_2   0.619464 0.027138 0.355232 -0.192035
O21   O     O_3   0.747117 0.856095 0.372789 -0.397633
H19   H     H_    0.753862 0.857638 0.337429 0.398736
S4    S     S_3+6 0.827800 0.010958 0.458791 0.089982
O22   O     O_2   0.839797 0.034904 0.406700 -0.198610
O23   O     O_2   0.914087 0.057312 0.494325 -0.320663
O24   O     O_3   0.844983 0.883683 0.469326 -0.466582
H20   H     H_    0.919836 0.860557 0.464166 0.401455
C70   C     C_1   0.051278 0.329629 0.369601 0.204422
N8    N     N_1   0.026442 0.290266 0.332211 -0.132226
C71   C     C_1   0.185746 0.548048 0.542592 0.247857
N9    N     N_1   0.211788 0.605086 0.573291 -0.204668
S5    S     S_3+6 0.745165 0.703911 0.592555 0.066611
O25   O     O_2   0.691664 0.772156 0.548708 -0.258416
O26   O     O_2   0.661466 0.680265 0.621907 -0.308424
O27   O     O_3   0.836629 0.768072 0.628838 -0.549568
H21   H     H_    0.793827 0.831344 0.637379 0.396110
C72   C     C_1   0.804996 0.438457 0.903836 0.457418
N10   N     N_1   0.888562 0.442596 0.892547 -0.037810
C73   C     C_1   0.949605 0.566483 0.650910 0.356614
N11   N     N_1   0.976599 0.578750 0.692972 -0.076181
S6    S     S_3+6 0.772279 0.618747 0.412219 0.075125
O28   O     O_2   0.705343 0.688375 0.440931 -0.228080
O29   O     O_2   0.867631 0.670820 0.403853 -0.275759
O30   O     O_3   0.697339 0.595534 0.356824 -0.537549
H22   H     H_    0.750790 0.573681 0.335510 0.367277
C74   C     C_1   0.381254 0.668191 0.345879 0.245915
N12   N     N_1   0.334486 0.735488 0.363125 -0.167537
S7    S     S_3+6 0.821746 0.390893 0.012465 0.021816
O31   O     O_2   0.887156 0.479636 0.021891 -0.318667
O32   O     O_2   0.799184 0.352427 0.060663 -0.257395
O33   O     O_3   0.895424 0.295849 0.988198 -0.529096
H23   H     H_    0.967113 0.285965 0.011095 0.397419
C75   C     C_1   0.591570 0.307223 0.644007 0.176934
N13   N     N_1   0.628767 0.239455 0.623417 -0.190938

loop_
_geom_bond_atom_site_label_1
_geom_bond_atom_site_label_2
_geom_bond_distance
_ccdc_geom_bond_type
C61   C62   1.416552 A    
C37   C40   1.392818 A    
C10   H1    1.084149 S    
C22   H3    1.083228 S    
C49   C50   1.410133 A    
C63   C64   1.397748 A    
S6    O30   1.679589 S    
C19   C38   1.426065 A    
C48   C52   1.390776 A    
S5    O27   1.682422 S    
C74   N12   1.157253 T    
C31   C32   1.406172 A    
C7    H5    1.084379 S    
Zn1   O7    1.988811 S    
N1    C11   1.426446 S    
C23   C24   1.409833 A    
S7    O32   1.503478 D    
Zn2   N4    2.042642 S    
S6    O29   1.503476 D    
C71   N9    1.157151 T    
S3    O20   1.502384 D    
O4    C2    1.304214 A    
O7    C4    1.301448 A    
C5    C13   1.408846 A    
O15   H17   0.990631 S    
C5    O9    1.349173 S    
C60   C64   1.404342 A    
C68   N6    1.157576 T    
C5    N1    1.360439 A    
C21   C22   1.388830 A    
C28   C32   1.390378 A    
C40   H7    1.076429 S    
O5    C3    1.307377 A    
S2    O16   1.497858 D    
H14   C66   1.082715 S    
C33   C36   1.415563 A    
Zn1   N3    2.055085 S    
S7    O31   1.503417 D    
C44   C45   1.391515 A    
C41   C49   1.422232 A    
C18   C20   1.411869 A    
C70   N8    1.157284 T    
C46   C47   1.405100 A    
N3    C66   1.357380 A    
C9    C67   1.443725 S    
C55   C70   1.444973 S    
O21   H19   0.990448 S    
C9    C10   1.393979 A    
C17   C30   1.419565 A    
C23   C27   1.397548 A    
C45   C46   1.420996 A    
C43   C54   1.400808 A    
C4    C17   1.457751 S    
O3    Zn1   1.997440 S    
C58   H16   1.083076 S    
C3    C42   1.448772 S    
C2    C16   1.453508 S    
H8    C53   1.082485 S    
C50   C51   1.392871 A    
C43   H10   1.081705 S    
C43   C44   1.386738 A    
C57   C73   1.443314 S    
C67   N5    1.156986 T    
S7    O33   1.682650 S    
C45   H11   1.076180 S    
C12   C13   1.420866 A    
O3    C2    1.305408 A    
H15   C63   1.083079 S    
S3    O21   1.676971 S    
C59   C60   1.413787 A    
C15   C37   1.425799 A    
C48   C49   1.428260 A    
C8    C16   1.410745 A    
C38   C39   1.396747 A    
C20   C24   1.409598 A    
C8    C75   1.444411 S    
O1    C1    1.299137 A    
C22   C23   1.398927 A    
C7    C11   1.394284 A    
C24   C25   1.404990 A    
C29   C74   1.445847 S    
C59   C61   1.419775 A    
C31   C69   1.446789 S    
C36   S7    1.791191 S    
Zn2   O8    1.997440 S    
C12   C15   1.423845 A    
C42   C52   1.382740 A    
N1    C6    1.361740 A    
C27   O10   1.349880 S    
C18   C21   1.407942 A    
S1    O14   1.503913 D    
C55   C62   1.409163 A    
S6    O28   1.497232 D    
S2    O18   1.681352 S    
C19   C35   1.423415 A    
C6    O11   1.345735 S    
N2    C27   1.365129 A    
C9    C16   1.408891 A    
O8    C4    1.310307 A    
C21   H4    1.079944 S    
C18   C33   1.410102 A    
O24   H20   0.990524 S    
C17   C29   1.411588 A    
C28   C29   1.388149 A    
N2    C32   1.427188 S    
S4    O23   1.503669 D    
S5    O25   1.501012 D    
C61   C65   1.417370 A    
C26   N2    1.366762 A    
C30   C31   1.409703 A    
O18   H18   0.990856 S    
C12   C34   1.412713 A    
Zn1   O5    1.943753 S    
C42   C53   1.392324 A    
C33   C34   1.411393 A    
C39   H6    1.084996 S    
O1    Zn1   1.972626 S    
C50   S3    1.776806 S    
O2    Zn2   1.943756 S    
C6    C15   1.411176 A    
C37   S1    1.781483 S    
C72   N10   1.157580 T    
S5    O26   1.500613 D    
O6    C3    1.304281 A    
C64   S6    1.759244 S    
O4    Zn2   1.988805 S    
O27   H21   0.990618 S    
O33   H23   0.990647 S    
C55   C66   1.393923 A    
C19   C20   1.415674 A    
C7    C8    1.390402 A    
O2    C1    1.313846 A    
C13   C14   1.423502 A    
C44   H12   1.082786 S    
C14   C36   1.405773 A    
C47   C51   1.402368 A    
C51   H13   1.081284 S    
C58   C59   1.401775 A    
C25   C26   1.399852 A    
S4    O24   1.682160 S    
C41   S4    1.769922 S    
C26   O12   1.349751 S    
S1    O15   1.682676 S    
C38   C68   1.446052 S    
C62   C63   1.404783 A    
S2    O17   1.502313 D    
C56   N4    1.373884 A    
C14   C72   1.450858 S    
C73   N11   1.157382 T    
C65   C71   1.441765 S    
C25   C39   1.398909 A    
C35   C40   1.401424 A    
C52   H9    1.076260 S    
C56   C57   1.404660 A    
Zn2   O6    1.972626 S    
C34   C35   1.416190 A    
S1    O13   1.503001 D    
S4    O22   1.502388 D    
C41   C53   1.395834 A    
C10   C11   1.397616 A    
C46   C48   1.415203 A    
C75   N13   1.156870 T    
C56   S5    1.778787 S    
C69   N7    1.157634 T    
C57   C58   1.389303 A    
S3    O19   1.503769 D    
C1    C54   1.456521 S    
C47   C54   1.400270 A    
O30   H22   0.990214 S    
C60   N4    1.373290 A    
C28   H2    1.084326 S    
N3    C65   1.359174 A    
C30   S2    1.786323 S    
