data_mof_unit_14720.cif
_audit_creation_date              2013-03-05T15:51:23-0500
_audit_creation_method            fapswitch 2.2
_symmetry_space_group_name_H-M    P1
_symmetry_Int_Tables_number       1
_space_group_crystal_system       triclinic
_cell_length_a                    10.878984
_cell_length_b                    10.850369
_cell_length_c                    9.617157
_cell_angle_alpha                 88.757085
_cell_angle_beta                  91.875089
_cell_angle_gamma                 94.878558
_cell_volume                      1130.29659052

loop_
_atom_site_label
_atom_site_type_symbol
_atom_site_description
_atom_site_fract_x
_atom_site_fract_y
_atom_site_fract_z
_atom_type_partial_charge
O1    O     O_R   0.499990 0.319640 0.618810 -0.606598
O2    O     O_R   0.500000 0.319660 0.381240 -0.580462
C1    C     C_R   0.498578 0.261473 0.502624 0.829756
O3    O     O_R   0.317680 0.499970 0.618790 -0.547797
O4    O     O_R   0.317700 0.499990 0.381210 -0.612267
C2    C     C_R   0.260183 0.489424 0.498364 0.835704
Cu1   Cu    Cu3+1 0.499990 0.499990 0.640660 1.065735
Cu2   Cu    Cu3+1 0.500010 0.500010 0.359340 0.999051
O5    O     O_R   0.500000 0.680340 0.618760 -0.550548
O6    O     O_R   0.500010 0.680360 0.381190 -0.620837
O7    O     O_R   0.682300 0.500010 0.618790 -0.486222
O8    O     O_R   0.682320 0.500030 0.381210 -0.586030
C3    C     C_R   0.484474 0.735048 0.499063 0.857937
C4    C     C_R   0.738629 0.486631 0.501289 0.964047
C5    C     C_3   0.075018 0.440634 0.646316 0.635476
C6    C     C_3   0.932999 0.408140 0.634965 0.108421
H1    H     H_    0.925313 0.307451 0.615151 0.162687
H2    H     H_    0.131882 0.682620 0.509254 0.181035
C7    C     C_3   0.080571 0.606784 0.451914 -0.479797
C8    C     C_3   0.062707 0.384775 0.388256 -0.536176
C9    C     C_3   0.122167 0.479589 0.496683 -0.054465
H3    H     H_    0.106697 0.399696 0.285882 0.239133
H4    H     H_    0.085020 0.290726 0.423748 0.214329
C10   C     C_3   0.877046 0.474119 0.499389 -0.320885
C11   C     C_3   0.940948 0.608340 0.471566 0.242642
C12   C     C_3   0.917236 0.391444 0.372848 0.427662
H5    H     H_    0.103490 0.627429 0.341640 0.222607
H6    H     H_    0.900769 0.645660 0.373373 0.211822
H7    H     H_    0.505825 0.114500 0.285295 0.182977
C13   C     C_R   0.482814 0.105492 0.770705 -0.061815
H8    H     H_    0.533159 0.192513 0.792991 0.212798
C14   C     C_R   0.443423 0.038030 0.887805 -0.220752
H9    H     H_    0.454624 0.078794 0.989732 0.166197
C15   C     C_R   0.388316 0.919277 0.873982 -0.125226
H10   H     H_    0.351310 0.869927 0.964542 0.165347
C16   C     C_R   0.380803 0.863103 0.744809 0.411820
C17   C     C_R   0.435006 0.926212 0.626034 -0.009360
C18   C     C_R   0.469129 0.054826 0.635292 0.095165
C19   C     C_R   0.490550 0.125219 0.509293 -0.049927
C20   C     C_R   0.491655 0.063912 0.382604 -0.095220
H11   H     H_    0.491187 0.892581 0.280608 0.163633
C21   C     C_R   0.480749 0.936436 0.378994 -0.123857
C22   C     C_R   0.460688 0.866389 0.500602 -0.122193
H12   H     H_    0.384126 0.335653 0.127957 0.120184
C23   C     C_R   0.634917 0.687822 0.150795 -0.232177
H13   H     H_    0.663985 0.674973 0.255992 0.250766
C24   C     C_R   0.671056 0.801565 0.091185 0.134620
C25   C     C_R   0.667701 0.813128 0.946957 0.150493
C26   C     C_R   0.630438 0.706866 0.867031 0.200193
C27   C     C_R   0.562433 0.599870 0.927930 0.107353
C28   C     C_R   0.564585 0.595273 0.076837 0.155664
N1    N     N_R   0.501200 0.501210 0.147910 -0.174666
C29   C     C_R   0.436557 0.409709 0.073370 0.008373
H14   H     H_    0.384430 0.335709 0.870641 0.134219
C30   C     C_R   0.437029 0.409425 0.925733 -0.023355
N2    N     N_R   0.501250 0.501290 0.852040 -0.170374
O9    O     O_3   0.104180 0.540285 0.737535 -0.673354
H15   H     H_    0.167293 0.517591 0.808267 0.381635
N3    N     N_R   0.883918 0.445288 0.234785 0.142767
O10   O     O_R   0.957308 0.528472 0.172696 -0.349379
O11   O     O_R   0.787833 0.397653 0.164201 -0.230441
O12   O     O_3   0.311506 0.751345 0.738007 -0.691628
H16   H     H_    0.284560 0.739332 0.640271 0.310746
O13   O     O_3   0.132426 0.334338 0.693878 -0.774374
H17   H     H_    0.101959 0.311881 0.788062 0.352633
N4    N     N_R   0.721514 0.901876 0.177274 0.171380
O14   O     O_R   0.771126 0.879877 0.299351 -0.275950
O15   O     O_R   0.705465 0.015758 0.140809 -0.270760
N5    N     N_R   0.741857 0.915095 0.885174 0.214695
O16   O     O_R   0.856170 0.939236 0.927220 -0.224793
O17   O     O_R   0.700963 0.974872 0.777269 -0.283333
N6    N     N_R   0.714950 0.689970 0.762640 0.184515
O18   O     O_R   0.816887 0.647507 0.808047 -0.262847
O19   O     O_R   0.719251 0.764579 0.654836 -0.255834
N7    N     N_R   0.868267 0.412349 0.767138 0.194932
O20   O     O_R   0.927384 0.450117 0.880232 -0.211760
O21   O     O_R   0.769103 0.337901 0.782956 -0.297229
O22   O     O_3   0.916763 0.693451 0.571999 -0.592876
H18   H     H_    0.980338 0.694436 0.647857 0.419276
N8    N     N_R   0.859104 0.263029 0.378276 0.137849
O23   O     O_R   0.763443 0.232120 0.452977 -0.364074
O24   O     O_R   0.894902 0.181789 0.294023 -0.218632

loop_
_geom_bond_atom_site_label_1
_geom_bond_atom_site_label_2
_geom_bond_distance
_ccdc_geom_bond_type
N4    O15   1.301618 A    
C30   N2    1.366477 A    
C6    N7    1.476599 S    
H11   C21   1.081833 S    
C29   C30   1.420091 A    
C25   N5    1.441870 S    
Cu1   Cu2   2.705501 S    
C23   H13   1.059911 S    
C11   H6    1.110548 S    
Cu1   O7    2.001282 S    
C17   C18   1.417144 A    
C16   C17   1.436272 A    
C7    C9    1.537064 S    
C10   C12   1.620420 S    
H2    C7    1.101906 S    
C18   C19   1.433199 A    
O7    C4    1.319513 A    
C23   C28   1.401579 A    
C5    C6    1.556050 S    
C13   C18   1.422952 A    
C15   H10   1.083225 S    
C4    C10   1.524143 S    
N5    O17   1.298143 A    
O5    C3    1.296428 A    
H12   C29   1.081649 S    
C6    H1    1.108761 S    
C26   N6    1.408506 S    
C5    O13   1.417904 S    
C7    H5    1.111109 S    
C12   N3    1.485449 S    
Cu2   N1    2.033572 S    
C24   N4    1.441930 S    
C20   C21   1.379244 A    
N4    O14   1.301889 A    
C1    C19   1.473677 S    
N3    O10   1.301508 A    
C6    C10   1.601482 S    
C5    O9    1.415606 S    
Cu1   N2    2.032820 S    
O3    Cu1   1.987595 S    
C16   O12   1.373964 S    
C23   C24   1.381262 A    
N3    O11   1.302875 A    
C11   O22   1.397013 S    
C10   C11   1.580788 S    
N6    O19   1.301052 A    
C19   C20   1.401640 A    
O22   H18   0.988305 S    
N8    O23   1.300291 A    
C2    C9    1.495765 S    
C12   N8    1.480949 S    
C28   N1    1.365740 A    
O1    C1    1.294187 A    
C14   C15   1.381366 A    
C17   C22   1.428782 A    
N7    O20   1.301254 A    
O12   H16   0.983463 S    
C24   C25   1.389577 A    
C8    H4    1.112819 S    
C13   H8    1.072647 S    
Cu2   O8    1.987595 S    
C27   C28   1.431335 A    
N7    O21   1.302560 A    
O3    C2    1.300708 A    
C25   C26   1.422357 A    
C8    H3    1.111443 S    
C21   C22   1.393914 A    
C3    C22   1.470364 S    
N1    C29   1.368676 A    
Cu1   O5    1.963610 S    
H14   C30   1.081024 S    
O1    Cu1   1.972641 S    
O2    Cu2   1.963610 S    
O8    C4    1.300604 A    
N6    O18   1.295872 A    
O6    C3    1.313204 A    
O4    Cu2   2.001282 S    
O13   H17   0.992976 S    
O2    C1    1.314965 A    
C14   H9    1.083141 S    
C13   C14   1.389310 A    
O9    H15   0.992829 S    
O4    C2    1.304772 A    
C8    C12   1.592300 S    
H7    C20   1.083329 S    
N8    O24   1.302018 A    
C15   C16   1.392535 A    
N5    O16   1.301911 A    
C7    C11   1.538349 S    
C27   N2    1.414502 A    
C5    C9    1.580389 S    
C8    C9    1.566319 S    
Cu2   O6    1.972641 S    
C26   C27   1.446002 A    
