data_mof_unit_56820.cif
_audit_creation_date              2012-10-26T21:05:42-0400
_audit_creation_method            fapswitch 2.2
_symmetry_space_group_name_H-M    P1
_symmetry_Int_Tables_number       1
_space_group_crystal_system       triclinic
_cell_length_a                    13.098567
_cell_length_b                    9.078773
_cell_length_c                    7.862466
_cell_angle_alpha                 90.001373
_cell_angle_beta                  94.140336
_cell_angle_gamma                 90.018928
_cell_volume                      932.555734469

loop_
_atom_site_label
_atom_site_type_symbol
_atom_type_description
_atom_site_fract_x
_atom_site_fract_y
_atom_site_fract_z
_atom_type_partial_charge
Br1   Br    Br    0.002115 0.687324 0.086199 -0.546103
Br2   Br    Br    0.040731 0.261269 0.824606 -0.560818
C1    C     C_R   0.499742 0.220367 0.499969 0.537684
C2    C     C_R   0.863657 0.401433 0.663809 0.124139
C3    C     C_R   0.129525 0.515735 0.594416 0.129953
C4    C     C_R   0.867061 0.543137 0.398815 0.111871
C5    C     C_R   0.024218 0.487685 0.567403 -0.029847
C6    C     C_R   0.974670 0.532861 0.411381 0.016560
C7    C     C_1   0.499762 0.065482 0.499988 -0.058109
C8    C     C_1   0.499843 0.934535 0.500013 -0.053581
C9    C     C_3   0.793718 0.498495 0.110351 -0.224987
C10   C     C_3   0.214807 0.730498 0.731815 -0.238248
C11   C     C_3   0.785998 0.159806 0.665049 -0.246815
C12   C     C_R   0.499941 0.779641 0.500002 0.544037
C13   C     C_3   0.203907 0.276963 0.172262 -0.230308
C14   C     C_R   0.300606 0.500135 0.470691 0.559054
C15   C     C_R   0.699429 0.497469 0.527753 0.539709
C16   C     C_R   0.811510 0.487032 0.534685 -0.019610
C17   C     C_R   0.188383 0.502518 0.453419 0.021601
C18   C     C_R   0.036613 0.555018 0.273120 0.174924
C19   C     C_R   0.970310 0.406084 0.682590 0.192289
C20   C     C_R   0.137009 0.499833 0.290728 0.112040
Cu1   Cu    Cu3+1 0.500010 0.500000 0.669080 1.007219
Cu2   Cu    Cu3+1 0.499990 0.500000 0.330920 1.010713
H1    H     H_    0.759007 0.678301 0.265819 0.277137
H2    H     H_    0.752654 0.078976 0.751407 0.158333
H3    H     H_    0.855613 0.110367 0.615750 0.197883
H4    H     H_    0.729064 0.182676 0.556693 0.125945
H5    H     H_    0.143961 0.453130 0.037198 0.310282
H6    H     H_    0.241863 0.235454 0.059893 0.187406
H7    H     H_    0.131475 0.215116 0.183698 0.182601
H8    H     H_    0.255689 0.254590 0.287176 0.147370
H9    H     H_    0.864415 0.440747 0.077931 0.204915
H10   H     H_    0.761691 0.558651 0.995704 0.170025
H11   H     H_    0.738132 0.413509 0.144745 0.155083
H12   H     H_    0.113485 0.591823 0.834166 0.293060
H13   H     H_    0.169033 0.816125 0.793033 0.173506
H14   H     H_    0.220570 0.763965 0.596874 0.134657
H15   H     H_    0.292589 0.729645 0.797818 0.186892
H16   H     H_    0.753009 0.331950 0.825619 0.263241
N1    N     N_1   0.499980 0.500000 0.076820 -0.085307
N2    N     N_1   0.500020 0.500000 0.923180 -0.089057
N3    N     N_2   0.815893 0.602585 0.248145 -0.456142
N4    N     N_2   0.168030 0.586113 0.748000 -0.472603
N5    N     N_2   0.811787 0.293880 0.758058 -0.484100
N6    N     N_2   0.182760 0.433241 0.151309 -0.463492
O1    O     O_R   0.500000 0.288400 0.642760 -0.496309
O2    O     O_R   0.500000 0.711600 0.357240 -0.496273
O3    O     O_R   0.500000 0.288400 0.357240 -0.503676
O4    O     O_R   0.500000 0.711600 0.642760 -0.504998
O5    O     O_R   0.349000 0.500000 0.619590 -0.477535
O6    O     O_R   0.651000 0.500000 0.380410 -0.520141
O7    O     O_R   0.348990 0.500000 0.334020 -0.470657
O8    O     O_R   0.651010 0.500000 0.665980 -0.521412

loop_
_geom_bond_atom_site_label_1
_geom_bond_atom_site_label_2
_ccdc_geom_bond_type
Cu2   O6    S    
C4    C6    A    
Cu1   Cu2   S    
C11   H4    S    
C13   H7    S    
C2    C19   A    
N1    N2    T    
Cu1   O5    S    
C13   H6    S    
C14   O5    A    
H5    N6    S    
C2    N5    S    
C2    C16   A    
H1    N3    S    
Br2   C19   S    
C9    H11   S    
C15   C16   S    
C1    O3    A    
C5    C6    A    
C10   N4    S    
C12   O4    A    
C11   N5    S    
Cu2   N1    S    
C15   O8    A    
C6    C18   A    
Cu1   N2    S    
C10   H15   S    
C14   C17   S    
C3    C17   A    
Cu2   O3    S    
C15   O6    A    
C1    O1    A    
C1    C7    S    
C3    N4    S    
C18   C20   A    
C4    N3    S    
C10   H14   S    
H16   N5    S    
C4    C16   A    
C11   H2    S    
H12   N4    S    
Cu1   O1    S    
Cu2   O2    S    
C9    H9    S    
C17   C20   A    
Cu1   O8    S    
C7    C8    T    
C10   H13   S    
C3    C5    A    
C14   O7    A    
C11   H3    S    
Br1   C18   S    
C12   O2    A    
C13   N6    S    
C20   N6    S    
Cu2   O7    S    
C5    C19   A    
C9    N3    S    
C9    H10   S    
C8    C12   S    
Cu1   O4    S    
C13   H8    S    
