data_mof_unit_37867.cif
_audit_creation_date              2012-12-11T14:06:52-0500
_audit_creation_method            fapswitch 2.2
_symmetry_space_group_name_H-M    P1
_symmetry_Int_Tables_number       1
_space_group_crystal_system       triclinic
_cell_length_a                    6.915221
_cell_length_b                    17.366945
_cell_length_c                    24.107629
_cell_angle_alpha                 104.35467
_cell_angle_beta                  90.336789
_cell_angle_gamma                 89.967415
_cell_volume                      2804.79611215

loop_
_atom_site_label
_atom_site_type_symbol
_atom_type_description
_atom_site_fract_x
_atom_site_fract_y
_atom_site_fract_z
_atom_type_partial_charge
O1    O     O_R   0.494290 0.391990 0.999150 -0.524943
O2    O     O_R   0.827170 0.534410 0.082350 -0.549792
O3    O     O_R   0.994360 0.608010 0.000850 -0.536001
C1    C     C_R   0.658702 0.549579 0.106189 0.780944
O4    O     O_R   0.824210 0.388010 0.004470 -0.505405
O5    O     O_R   0.991370 0.460560 0.922410 -0.545205
C2    C     C_R   0.653891 0.354972 0.001075 0.797199
O6    O     O_R   0.497270 0.539440 0.077590 -0.512654
O7    O     O_3   0.659770 0.523970 0.973170 -0.376914
V1    V     V_3+5 0.935840 0.495550 0.004980 1.682284
O8    O     O_R   0.320910 0.465590 0.917650 -0.541484
C3    C     C_R   0.151921 0.450366 0.894247 0.758852
O9    O     O_R   0.323870 0.611990 0.995530 -0.515292
C4    C     C_R   0.153345 0.644516 0.997006 0.780972
V2    V     V_3+5 0.435470 0.504450 0.995020 1.691150
O10   O     O_3   0.161670 0.476030 0.026830 -0.335917
C5    C     C_2   0.134846 0.725139 0.986878 -0.271279
C6    C     C_2   0.977120 0.772394 0.006098 0.157431
C7    C     C_R   0.037829 0.246930 0.628853 0.690883
N1    N     N_R   0.072721 0.326918 0.649160 -0.512156
C8    C     C_R   0.015529 0.372104 0.612616 0.557898
C9    C     C_R   0.033953 0.342555 0.552435 -0.157096
C10   C     C_R   0.048618 0.259360 0.530660 0.029895
C11   C     C_R   0.050409 0.209824 0.569276 -0.113317
C12   C     C_R   0.030598 0.393124 0.514146 -0.103420
C13   C     C_R   0.033476 0.359305 0.454107 0.427567
C14   C     C_R   0.046191 0.275344 0.432143 -0.150847
C15   C     C_R   0.049189 0.225777 0.470766 -0.041661
C16   C     C_R   0.060123 0.142476 0.449160 -0.091062
C17   C     C_R   0.057804 0.091951 0.487564 -0.036910
C18   C     C_R   0.057572 0.125774 0.547687 -0.092504
C19   C     C_R   0.054531 0.238392 0.372399 0.626482
N2    N     N_R   0.028805 0.157708 0.352068 -0.537956
C20   C     C_R   0.079609 0.112283 0.389123 0.643740
O11   O     O_2   0.969735 0.205397 0.664976 -0.463875
O12   O     O_2   0.915036 0.439472 0.633184 -0.488316
O13   O     O_2   0.100903 0.281558 0.335040 -0.442724
O14   O     O_2   0.171742 0.042728 0.369346 -0.485446
C21   C     C_R   0.009316 0.043219 0.261684 0.023695
C22   C     C_R   0.040052 0.023829 0.201747 -0.205880
C23   C     C_R   0.970411 0.075941 0.169462 -0.210616
C24   C     C_R   0.875940 0.146698 0.198041 0.379742
C25   C     C_R   0.871581 0.169643 0.258888 -0.122183
C26   C     C_R   0.974245 0.123758 0.291050 0.177800
C27   C     C_R   0.148801 0.445405 0.734731 -0.084328
C28   C     C_R   0.143469 0.474985 0.795629 -0.163466
C29   C     C_R   0.144050 0.421053 0.830954 -0.272264
C30   C     C_R   0.180177 0.340387 0.806026 0.337449
C31   C     C_R   0.190340 0.312419 0.746181 0.414548
C32   C     C_R   0.131187 0.361588 0.709853 0.087444
C33   C     C_R   0.546813 0.871068 0.614160 0.804321
N3    N     N_R   0.505455 0.821227 0.648322 -0.547745
C34   C     C_R   0.478095 0.741810 0.625450 0.723907
C35   C     C_R   0.515871 0.707529 0.566720 -0.048107
C36   C     C_R   0.535556 0.759306 0.529980 -0.062148
C37   C     C_R   0.544157 0.842687 0.553656 -0.188956
C38   C     C_R   0.525960 0.623874 0.543679 -0.081874
C39   C     C_R   0.532193 0.592296 0.483547 -0.039367
C40   C     C_R   0.553366 0.644343 0.446604 -0.052427
C41   C     C_R   0.547820 0.727861 0.469832 -0.045845
C42   C     C_R   0.551923 0.779916 0.432749 -0.195432
C43   C     C_R   0.547725 0.863428 0.456673 0.377397
C44   C     C_R   0.548538 0.894407 0.516428 0.412151
C45   C     C_R   0.590267 0.615833 0.387069 0.632787
N4    N     N_R   0.589264 0.666383 0.351786 -0.546958
C46   C     C_R   0.559851 0.746050 0.372829 0.790202
O15   O     O_2   0.590446 0.947425 0.639207 -0.408737
O16   O     O_2   0.410195 0.696997 0.659455 -0.454373
O17   O     O_2   0.634003 0.538773 0.364520 -0.462475
O18   O     O_2   0.539696 0.791527 0.335291 -0.421109
C47   C     C_R   0.779385 0.655593 0.262688 0.447020
C48   C     C_R   0.794922 0.629402 0.202123 -0.184380
C49   C     C_R   0.649114 0.578659 0.170091 -0.260746
C50   C     C_R   0.493425 0.554801 0.200103 0.405795
C51   C     C_R   0.476943 0.584128 0.259205 -0.077786
H1    H     H_    0.353875 0.567046 0.281104 0.200508
C52   C     C_R   0.616488 0.634879 0.290791 0.197374
C53   C     C_R   0.632812 0.833186 0.746164 0.438044
C54   C     C_R   0.617659 0.861503 0.806233 -0.101778
C55   C     C_R   0.466892 0.915467 0.830192 -0.274676
C56   C     C_R   0.327261 0.936820 0.792909 -0.146206
C57   C     C_R   0.337233 0.903137 0.733158 0.431728
C58   C     C_R   0.491611 0.852863 0.709771 0.154074
C59   C     C_2   0.640425 0.268247 0.994052 0.141999
C60   C     C_2   0.475035 0.231687 0.005736 0.151031
O19   O     O_R   0.618210 0.960470 0.922400 -0.542241
O20   O     O_R   0.291310 0.111960 0.995450 -0.509961
O21   O     O_R   0.124210 0.039530 0.077580 -0.539150
C61   C     C_R   0.461620 0.144981 0.998779 0.795266
O22   O     O_R   0.288310 0.965490 0.917650 -0.554263
O23   O     O_R   0.121180 0.892010 0.999220 -0.576090
C62   C     C_R   0.456758 0.948967 0.893904 0.674965
O24   O     O_R   0.621230 0.107990 0.000760 -0.517680
O25   O     O_3   0.455770 0.976060 0.026840 -0.379497
V3    V     V_3+5 0.179680 0.004440 0.995020 1.596869
O26   O     O_R   0.791670 0.888040 0.004570 -0.517320
C63   C     C_R   0.961479 0.854861 0.000634 0.663522
O27   O     O_R   0.794680 0.034510 0.082370 -0.527739
C64   C     C_R   0.963521 0.050100 0.105845 0.779018
V4    V     V_3+5 0.680070 0.995560 0.005010 1.620699
O28   O     O_3   0.953840 0.023940 0.973160 -0.348143
C65   C     C_2   0.279538 0.747721 0.947782 0.415203
H2    H     H_    0.240476 0.787905 0.921550 0.069534
O29   O     O_2   0.442775 0.720156 0.943238 -0.491026
C66   C     C_2   0.739029 0.233703 0.289620 0.677411
H3    H     H_    0.682456 0.231447 0.331104 0.008745
O30   O     O_2   0.695723 0.290226 0.270477 -0.414764
C67   C     C_2   0.211673 0.498645 0.698572 0.687798
H4    H     H_    0.312752 0.476593 0.664010 -0.024046
O31   O     O_2   0.144611 0.565300 0.704845 -0.430149
C68   C     C_2   0.150752 0.561432 0.823969 0.564369
H5    H     H_    0.051486 0.586178 0.858512 -0.010504
O32   O     O_2   0.275207 0.604313 0.811940 -0.479608
Cl1   Cl    Cl    0.225811 0.274493 0.850101 -0.508850
Cl2   Cl    Cl    0.329356 0.225482 0.719098 -0.478633
C69   C     C_2   0.544860 0.568788 0.581893 0.673323
H6    H     H_    0.458613 0.515178 0.574559 -0.024651
O33   O     O_2   0.664565 0.581400 0.620547 -0.437623
C70   C     C_2   0.501183 0.505439 0.459100 0.484397
H7    H     H_    0.403081 0.485742 0.423150 0.138387
O34   O     O_2   0.587299 0.455467 0.477430 -0.507579
Cl3   Cl    Cl    0.543684 0.932862 0.413585 -0.422493
Cl4   Cl    Cl    0.540003 0.999475 0.542587 -0.481567
Cl5   Cl    Cl    0.959792 0.716104 0.304576 -0.518018
Cl6   Cl    Cl    0.788888 0.744127 0.046667 -0.627548
C71   C     C_2   0.956152 0.658675 0.172127 0.581983
H8    H     H_    0.931868 0.670272 0.130588 0.060915
O35   O     O_2   0.118560 0.668812 0.192710 -0.478158
Cl7   Cl    Cl    0.317105 0.485056 0.166382 -0.487420
Cl8   Cl    Cl    0.826209 0.770368 0.715155 -0.412771
C72   C     C_2   0.751962 0.830564 0.844087 0.550483
H9    H     H_    0.696642 0.814882 0.881878 0.030712
O36   O     O_2   0.925230 0.824447 0.834579 -0.497528
C73   C     C_2   0.178053 0.997936 0.815982 0.657645
H10   H     H_    0.216389 0.050235 0.849353 0.047028
O37   O     O_2   0.010632 0.989766 0.799207 -0.459876
Cl9   Cl    Cl    0.160033 0.925164 0.685981 -0.440783
Cl10  Cl    Cl    0.844075 0.214106 0.960967 -0.506395
Cl11  Cl    Cl    0.271268 0.285800 0.038747 -0.462778
C74   C     C_2   0.044491 0.481187 0.537451 0.560781
H11   H     H_    0.122776 0.505273 0.576949 0.045431
O38   O     O_2   0.966452 0.527933 0.514155 -0.471523
Cl12  Cl    Cl    0.011339 0.423160 0.407050 -0.452096
C75   C     C_2   0.039208 0.004196 0.464287 0.626798
H12   H     H_    0.948236 0.980990 0.427179 0.127171
O39   O     O_2   0.128478 0.957187 0.484779 -0.491617
C76   C     C_2   0.076757 0.073882 0.588104 0.726497
H13   H     H_    0.188403 0.086274 0.620929 0.131206
O40   O     O_2   0.964238 0.019314 0.586609 -0.435303
C77   C     C_2   0.932000 0.978144 0.285532 0.564110
H14   H     H_    0.979245 0.917223 0.269446 0.132337
O41   O     O_2   0.806021 0.991643 0.321941 -0.485833
C78   C     C_2   0.126654 0.945886 0.172386 0.440985
H15   H     H_    0.095349 0.918751 0.127690 0.036499
O42   O     O_2   0.239202 0.912112 0.197637 -0.481639
Cl13  Cl    Cl    0.762667 0.205322 0.156490 -0.499505

loop_
_geom_bond_atom_site_label_1
_geom_bond_atom_site_label_2
_ccdc_geom_bond_type
C36   C37   A    
C71   H8    S    
C23   C24   A    
C24   Cl13  S    
C68   H5    S    
C47   C52   A    
C1    O6    A    
C56   C57   A    
C56   C73   S    
C8    O12   S    
C34   C35   A    
C67   H4    S    
C66   O30   D    
C21   C77   S    
C40   C45   A    
C16   C17   A    
C8    C9    A    
C15   C16   A    
C76   O40   D    
C74   O38   D    
C57   Cl9   S    
C6    Cl6   S    
O5    C3    A    
C17   C18   A    
C5    C65   S    
V2    O10   S    
C17   C75   S    
C69   H6    S    
C33   C37   A    
C49   C50   A    
C7    O11   S    
C34   O16   S    
V4    O28   S    
N1    C32   S    
C35   C36   A    
O8    V2    S    
C42   C46   A    
C76   H13   S    
C67   O31   D    
C9    C12   A    
O20   V3    S    
C10   C11   A    
C23   C64   S    
O1    V2    S    
C6    C63   S    
O25   V4    S    
C78   O42   D    
O19   V4    S    
O7    V1    S    
C60   Cl11  S    
C42   C43   A    
C27   C67   S    
C18   C76   S    
C2    C59   S    
O21   V3    S    
C59   Cl10  S    
C40   C41   A    
O1    C2    A    
O9    C4    A    
C61   O24   A    
C4    C5    S    
O25   V3    S    
C3    C29   S    
C53   C58   A    
N2    C20   A    
C38   C69   S    
C70   O34   D    
C59   C60   D    
N4    C52   S    
C50   C51   A    
C33   N3    A    
C47   Cl5   S    
O22   V3    S    
C12   C74   S    
C74   H11   S    
C75   O39   D    
C21   C22   A    
O4    C2    A    
C60   C61   S    
C53   C54   A    
C55   C56   A    
C73   O37   D    
C12   C13   A    
C27   C28   A    
C16   C20   A    
C57   C58   A    
C48   C71   S    
C41   C42   A    
C55   C62   S    
N3    C58   S    
O2    C1    A    
C51   H1    S    
C43   C44   A    
O22   C62   A    
C29   C30   A    
C25   C66   S    
C70   H7    S    
C54   C72   S    
O26   C63   A    
C5    C6    D    
C13   C14   A    
C37   C44   A    
C68   O32   D    
C33   O15   S    
C19   O13   S    
O23   C63   A    
C65   O29   D    
C51   C52   A    
O24   V4    S    
C1    C49   S    
C21   C26   A    
O3    C4    A    
C30   C31   A    
C31   Cl2   S    
C31   C32   A    
O6    V2    S    
O27   V4    S    
O9    V2    S    
C25   C26   A    
C77   O41   D    
C22   C78   S    
C39   C40   A    
C10   C15   A    
C24   C25   A    
C13   Cl12  S    
O2    V1    S    
C43   Cl3   S    
N3    C34   A    
C30   Cl1   S    
C28   C29   A    
C22   C23   A    
C71   O35   D    
C14   C19   A    
C20   O14   S    
N2    C26   S    
C48   C49   A    
C72   O36   D    
O5    V1    S    
C44   Cl4   S    
O8    C3    A    
C73   H10   S    
C45   O17   S    
C66   H3    S    
C77   H14   S    
C75   H12   S    
C19   N2    A    
C7    N1    A    
O20   C61   A    
C7    C11   A    
C53   Cl8   S    
C11   C18   A    
C47   C48   A    
O3    V1    S    
O19   C62   A    
C45   N4    A    
C28   C68   S    
C38   C39   A    
C46   O18   S    
C27   C32   A    
O26   V4    S    
C39   C70   S    
C69   O33   D    
N4    C46   A    
O7    V2    S    
C65   H2    S    
O21   C64   A    
O23   V3    S    
C54   C55   A    
V3    O28   S    
O4    V1    S    
N1    C8    A    
O27   C64   A    
C50   Cl7   S    
C14   C15   A    
C9    C10   A    
V1    O10   S    
C78   H15   S    
C36   C41   A    
C72   H9    S    
C35   C38   A    
