data_mof_unit_28220.cif
_audit_creation_date              2012-12-10T18:58:14-0500
_audit_creation_method            fapswitch 2.2
_symmetry_space_group_name_H-M    P1
_symmetry_Int_Tables_number       1
_space_group_crystal_system       triclinic
_cell_length_a                    10.998637
_cell_length_b                    10.759201
_cell_length_c                    9.575179
_cell_angle_alpha                 90.297995
_cell_angle_beta                  102.336244
_cell_angle_gamma                 90.563031
_cell_volume                      1106.84682899

loop_
_atom_site_label
_atom_site_type_symbol
_atom_type_description
_atom_site_fract_x
_atom_site_fract_y
_atom_site_fract_z
_atom_type_partial_charge
C1    C     C_R   0.499492 0.262721 0.499498 0.826406
C2    C     C_R   0.499991 0.129638 0.496886 -0.105673
C3    C     C_R   0.603100 0.067219 0.468058 -0.187989
C4    C     C_R   0.606505 0.937534 0.472115 0.125920
C5    C     C_R   0.503657 0.870755 0.500412 -0.126845
C6    C     C_R   0.396729 0.934202 0.513564 0.078179
C7    C     C_3   0.324599 0.927640 0.629094 -0.441908
C8    C     C_3   0.323023 0.068828 0.627867 -0.446882
C9    C     C_R   0.560510 0.591955 0.088659 0.225692
C10   C     C_R   0.426778 0.418804 0.053659 0.239390
C11   C     C_R   0.428134 0.418938 0.905973 -0.092313
C12   C     C_R   0.262607 0.496503 0.442490 0.856371
C13   C     C_R   0.560831 0.591480 0.941826 0.241388
C14   C     C_3   0.695768 0.623678 0.968316 -0.477812
C15   C     C_3   0.695475 0.625691 0.126759 -0.449159
C16   C     C_R   0.501975 0.737363 0.500812 0.834682
C17   C     C_R   0.737050 0.494914 0.557392 0.892426
C18   C     C_2   0.127707 0.479537 0.412418 -0.294506
C19   C     C_2   0.069131 0.467545 0.520916 -0.185271
C20   C     C_2   0.872362 0.493789 0.587691 -0.355323
C21   C     C_2   0.935605 0.442997 0.496532 0.191705
C22   C     C_R   0.395197 0.062310 0.512668 0.128780
Cu1   Cu    Cu3+1 0.499990 0.499980 0.640670 0.957455
Cu2   Cu    Cu3+1 0.500010 0.500020 0.359330 1.007202
H1    H     H_    0.377079 0.111860 0.728229 0.211868
H2    H     H_    0.371664 0.352398 0.834555 0.156151
H3    H     H_    0.752856 0.547478 0.938080 0.229194
H4    H     H_    0.712618 0.716688 0.925649 0.208896
H5    H     H_    0.753946 0.552456 0.187371 0.244867
H6    H     H_    0.711202 0.720366 0.173733 0.228672
H7    H     H_    0.119388 0.480329 0.630986 0.172927
H8    H     H_    0.921363 0.544932 0.681538 0.140515
H9    H     H_    0.077139 0.472432 0.302023 0.189175
H10   H     H_    0.683503 0.119130 0.451287 0.190496
H11   H     H_    0.230968 0.884716 0.590799 0.213347
H12   H     H_    0.379480 0.888678 0.730235 0.212417
H13   H     H_    0.228553 0.107362 0.588675 0.217536
N1    N     N_R   0.500780 0.500930 0.148120 -0.200474
N2    N     N_R   0.500790 0.500890 0.852210 -0.200616
O1    O     O_R   0.500000 0.319640 0.618810 -0.588937
O2    O     O_R   0.500010 0.319680 0.381230 -0.542413
O3    O     O_R   0.320680 0.500000 0.575130 -0.589773
O4    O     O_R   0.320690 0.500040 0.337550 -0.557260
O5    O     O_R   0.499990 0.680320 0.618770 -0.582281
O6    O     O_R   0.500000 0.680360 0.381190 -0.566244
O7    O     O_R   0.679310 0.499960 0.662450 -0.581721
O8    O     O_R   0.679320 0.500000 0.424870 -0.550513
I1    I     I_    0.855400 0.314749 0.329171 -0.363043
I2    I     I_    0.302122 0.286390 0.111126 -0.338404
I3    I     I_    0.775742 0.850655 0.458153 -0.396295

loop_
_geom_bond_atom_site_label_1
_geom_bond_atom_site_label_2
_ccdc_geom_bond_type
C16   O6    A    
C2    C22   A    
C8    C22   S    
Cu1   Cu2   S    
C11   H2    S    
C6    C7    S    
C8    H1    S    
C14   H3    S    
C7    H12   S    
C16   O5    A    
Cu2   N1    S    
C1    O1    A    
C10   N1    A    
C21   I1    S    
C19   H7    S    
C2    C3    A    
C9    C15   S    
C7    C8    S    
Cu1   O7    S    
C13   C14   S    
C20   C21   D    
C11   N2    A    
Cu2   O2    S    
Cu2   O8    S    
Cu1   O3    S    
Cu1   N2    S    
Cu2   O6    S    
C1    O2    A    
C9    N1    A    
C19   C21   S    
C15   H5    S    
C12   O4    A    
C20   H8    S    
C5    C6    A    
C18   H9    S    
C13   N2    A    
C10   C11   A    
Cu1   O1    S    
C6    C22   A    
C17   C20   S    
C17   O7    A    
C3    C4    A    
C15   H6    S    
C1    C2    S    
C8    H13   S    
C12   C18   S    
Cu2   O4    S    
C9    C13   A    
C14   C15   S    
C18   C19   D    
C5    C16   S    
C12   O3    A    
C3    H10   S    
C14   H4    S    
C10   I2    S    
C7    H11   S    
Cu1   O5    S    
C17   O8    A    
C4    I3    S    
C4    C5    A    
