data_mof_unit_62005.cif
_audit_creation_date              2012-12-10T16:41:44-0500
_audit_creation_method            fapswitch 2.2
_symmetry_space_group_name_H-M    P1
_symmetry_Int_Tables_number       1
_space_group_crystal_system       triclinic
_cell_length_a                    26.194185
_cell_length_b                    26.188217
_cell_length_c                    18.474629
_cell_angle_alpha                 90.000483
_cell_angle_beta                  134.879315
_cell_angle_gamma                 89.99946
_cell_volume                      8980.16676267

loop_
_atom_site_label
_atom_site_type_symbol
_atom_type_description
_atom_site_fract_x
_atom_site_fract_y
_atom_site_fract_z
_atom_type_partial_charge
C1    C     C_R   0.610345 0.749006 0.497885 0.884379
C2    C     C_2   0.002685 0.279796 0.450399 0.623390
C3    C     C_2   0.502686 0.220204 0.450401 0.623302
C4    C     C_2   0.502715 0.779818 0.450461 0.623394
C5    C     C_2   0.046448 0.760172 0.478498 -0.169990
C6    C     C_2   0.046444 0.239815 0.478483 -0.170015
C7    C     C_2   0.546444 0.260184 0.478485 -0.169905
C8    C     C_2   0.546448 0.739828 0.478497 -0.170099
C9    C     C_2   0.941231 0.723639 0.438278 -0.241418
C10   C     C_2   0.941205 0.276333 0.438229 -0.241658
C11   C     C_2   0.441206 0.223666 0.438229 -0.241679
C12   C     C_R   0.610344 0.250996 0.497882 0.884056
C13   C     C_2   0.441230 0.776361 0.438278 -0.241393
C14   C     C_2   0.948422 0.746240 0.509808 -0.397017
C15   C     C_2   0.948412 0.253749 0.509785 -0.397152
C16   C     C_2   0.448412 0.246250 0.509785 -0.397065
C17   C     C_2   0.448422 0.753759 0.509808 -0.397104
C18   C     C_2   0.750681 0.471919 0.441622 -0.154129
C19   C     C_2   0.748205 0.528081 0.439161 -0.157754
C20   C     C_2   0.248206 0.971918 0.439162 -0.157758
C21   C     C_2   0.250682 0.028080 0.441623 -0.154125
C22   C     C_2   0.746797 0.443884 0.498362 -0.287390
C23   C     C_R   0.110344 0.249004 0.497881 0.884256
C24   C     C_2   0.752490 0.556104 0.504059 -0.284634
C25   C     C_2   0.252490 0.943896 0.504060 -0.284634
C26   C     C_2   0.246797 0.056116 0.498362 -0.287389
C27   C     C_2   0.808806 0.028083 0.557436 -0.166526
C28   C     C_2   0.808813 0.971918 0.559923 -0.164661
C29   C     C_2   0.308806 0.528083 0.557436 -0.166533
C30   C     C_2   0.308813 0.471918 0.559923 -0.164656
C31   C     C_2   0.748476 0.056118 0.501292 -0.275308
C32   C     C_2   0.748467 0.943882 0.495599 -0.275450
C33   C     C_2   0.248476 0.556118 0.501292 -0.275304
C34   C     C_R   0.110346 0.750994 0.497885 0.884178
C35   C     C_2   0.248467 0.443882 0.495599 -0.275454
C36   C     C_R   0.889176 0.749368 0.501331 0.897358
C37   C     C_R   0.889174 0.250630 0.501326 0.897300
C38   C     C_R   0.389174 0.249370 0.501326 0.897344
C39   C     C_R   0.389176 0.750632 0.501331 0.897315
C40   C     C_R   0.749967 0.888545 0.499638 0.854361
C41   C     C_R   0.749968 0.111455 0.500269 0.853796
C42   C     C_R   0.249967 0.388545 0.499638 0.854359
C43   C     C_R   0.249968 0.611455 0.500269 0.853798
C44   C     C_R   0.750212 0.611436 0.500255 0.852849
C45   C     C_2   0.948176 0.742289 0.886910 0.475398
C46   C     C_R   0.749595 0.388562 0.499638 0.854699
C47   C     C_R   0.249595 0.111438 0.499637 0.854705
C48   C     C_R   0.250212 0.888564 0.500255 0.852842
C49   C     C_R   0.612182 0.750297 0.222774 0.794655
C50   C     C_R   0.612182 0.249703 0.222774 0.794931
C51   C     C_R   0.112182 0.250297 0.222774 0.794725
C52   C     C_R   0.112182 0.749703 0.222774 0.794860
C53   C     C_R   0.889026 0.749218 0.777164 0.751734
C54   C     C_R   0.889026 0.250782 0.777164 0.751943
C55   C     C_R   0.389026 0.249218 0.777164 0.751865
C56   C     C_2   0.948175 0.257711 0.886911 0.475352
C57   C     C_R   0.389027 0.750782 0.777164 0.751811
C58   C     C_2   0.068054 0.765126 0.053877 0.156869
C59   C     C_2   0.068055 0.234875 0.053877 0.156895
C60   C     C_2   0.568054 0.265127 0.053877 0.156950
C61   C     C_2   0.568055 0.734875 0.053877 0.156814
C62   C     C_2   0.055743 0.752569 0.111730 -0.242760
C63   C     C_2   0.055743 0.247430 0.111730 -0.242586
C64   C     C_2   0.555742 0.252570 0.111730 -0.242615
C65   C     C_2   0.555743 0.747431 0.111730 -0.242733
C66   C     C_2   0.005508 0.773293 0.943417 -0.343929
C67   C     C_2   0.448175 0.242290 0.886910 0.475424
C68   C     C_2   0.005510 0.226709 0.943417 -0.343787
C69   C     C_2   0.505508 0.273293 0.943417 -0.343940
C70   C     C_2   0.505510 0.726709 0.943417 -0.343776
C71   C     C_3   0.144035 0.773063 0.100204 -0.352762
C72   C     C_3   0.149662 0.770305 0.022871 -0.378205
C73   C     C_3   0.228194 0.771738 0.076873 -0.846589
C74   C     C_3   0.144037 0.226940 0.100206 -0.352735
C75   C     C_3   0.149664 0.229698 0.022874 -0.378256
C76   C     C_3   0.228197 0.228268 0.076876 -0.846568
C77   C     C_3   0.644035 0.273064 0.100204 -0.352733
C78   C     C_2   0.448176 0.757711 0.886911 0.475327
C79   C     C_3   0.649661 0.270308 0.022871 -0.378231
C80   C     C_3   0.728194 0.271741 0.076873 -0.846576
C81   C     C_3   0.644037 0.726941 0.100205 -0.352764
C82   C     C_3   0.649664 0.729700 0.022874 -0.378231
C83   C     C_3   0.728197 0.728269 0.076876 -0.846580
C84   C     C_3   0.029266 0.815701 0.480342 -0.500892
C85   C     C_3   0.022789 0.849061 0.405636 -0.326145
C86   C     C_3   0.003422 0.904070 0.405514 -0.857934
C87   C     C_3   0.029298 0.184285 0.480391 -0.500845
C88   C     C_3   0.022877 0.150898 0.405761 -0.326141
C89   C     C_2   0.002716 0.720181 0.450461 0.623306
C90   C     C_3   0.003587 0.095881 0.405747 -0.858828
C91   C     C_3   0.529297 0.315715 0.480392 -0.500716
C92   C     C_3   0.522874 0.349101 0.405760 -0.326231
C93   C     C_3   0.503583 0.404117 0.405747 -0.858654
C94   C     C_3   0.529266 0.684298 0.480339 -0.501023
C95   C     C_3   0.522788 0.650940 0.405631 -0.326058
C96   C     C_3   0.503419 0.595931 0.405504 -0.858110
F1    F     F_    0.946371 0.700202 0.928412 -0.649315
F2    F     F_    0.946368 0.299797 0.928413 -0.649243
F3    F     F_    0.446371 0.200202 0.928413 -0.649178
F4    F     F_    0.446369 0.799798 0.928413 -0.649381
F5    F     F_    0.016636 0.672996 0.436758 -0.637460
F6    F     F_    0.016573 0.326979 0.436643 -0.637257
F7    F     F_    0.516576 0.173020 0.436646 -0.637526
F8    F     F_    0.516634 0.827004 0.436759 -0.637191
H1    H     H_    0.740252 0.460827 0.544762 0.154923
H2    H     H_    0.695764 0.960842 0.436438 0.162493
H3    H     H_    0.195797 0.539157 0.455213 0.164636
H4    H     H_    0.195764 0.460842 0.436438 0.162494
H5    H     H_    0.001292 0.746838 0.077055 0.190804
H6    H     H_    0.001292 0.253160 0.077056 0.190806
H7    H     H_    0.501292 0.246839 0.077056 0.190788
H8    H     H_    0.501292 0.753161 0.077055 0.190823
H9    H     H_    0.007780 0.804705 0.907402 0.143619
H10   H     H_    0.007783 0.195297 0.907402 0.143814
H11   H     H_    0.507779 0.304706 0.907402 0.143647
H12   H     H_    0.759011 0.539139 0.563516 0.158323
H13   H     H_    0.507783 0.695297 0.907402 0.143786
H14   H     H_    0.891894 0.703733 0.374595 0.196702
H15   H     H_    0.891859 0.296228 0.374536 0.196620
H16   H     H_    0.391861 0.203771 0.374536 0.196626
H17   H     H_    0.391894 0.796267 0.374597 0.196696
H18   H     H_    0.999410 0.763436 0.576510 0.161710
H19   H     H_    0.999406 0.236563 0.576495 0.161702
H20   H     H_    0.499406 0.263435 0.576496 0.161720
H21   H     H_    0.499410 0.736563 0.576510 0.161692
H22   H     H_    0.755129 0.453259 0.393743 0.180822
H23   H     H_    0.259010 0.960861 0.563516 0.158323
H24   H     H_    0.743676 0.546757 0.382318 0.179475
H25   H     H_    0.243678 0.953241 0.382320 0.179471
H26   H     H_    0.255131 0.046739 0.393744 0.180825
H27   H     H_    0.254505 0.807463 0.121986 0.268313
H28   H     H_    0.258068 0.738374 0.128642 0.257078
H29   H     H_    0.230636 0.770421 0.019291 0.259175
H30   H     H_    0.124615 0.734343 0.978044 0.242052
H31   H     H_    0.121246 0.803262 0.969596 0.226218
H32   H     H_    0.164443 0.810797 0.139018 0.216962
H33   H     H_    0.179558 0.742661 0.158009 0.206920
H34   H     H_    0.240251 0.039174 0.544759 0.154922
H35   H     H_    0.258069 0.261632 0.128644 0.257079
H36   H     H_    0.254509 0.192543 0.121991 0.268299
H37   H     H_    0.230640 0.229584 0.019295 0.259180
H38   H     H_    0.121250 0.196741 0.969598 0.226269
H39   H     H_    0.124616 0.265660 0.978045 0.242039
H40   H     H_    0.179558 0.257343 0.158010 0.206835
H41   H     H_    0.164447 0.189206 0.139020 0.217127
H42   H     H_    0.754504 0.307466 0.121987 0.268296
H43   H     H_    0.758068 0.238377 0.128641 0.257084
H44   H     H_    0.730636 0.270426 0.019291 0.259183
H45   H     H_    0.860880 0.046741 0.604939 0.177043
H46   H     H_    0.624615 0.234346 0.978043 0.242061
H47   H     H_    0.621245 0.303265 0.969596 0.226238
H48   H     H_    0.664443 0.310798 0.139019 0.217088
H49   H     H_    0.679557 0.242662 0.158008 0.206883
H50   H     H_    0.758071 0.761632 0.128647 0.257073
H51   H     H_    0.754508 0.692543 0.121987 0.268316
H52   H     H_    0.730640 0.729587 0.019295 0.259172
H53   H     H_    0.621250 0.696744 0.969596 0.226250
H54   H     H_    0.624617 0.765663 0.978048 0.242030
H55   H     H_    0.679558 0.757342 0.158012 0.206874
H56   H     H_    0.860907 0.953261 0.616421 0.176941
H57   H     H_    0.664446 0.689206 0.139017 0.217000
H58   H     H_    0.950632 0.905488 0.380960 0.260814
H59   H     H_    0.045539 0.920939 0.483054 0.267051
H60   H     H_    0.999651 0.927209 0.351515 0.246085
H61   H     H_    0.074431 0.849480 0.426934 0.225740
H62   H     H_    0.980276 0.833225 0.327121 0.217989
H63   H     H_    0.977665 0.819820 0.458053 0.226648
H64   H     H_    0.072718 0.830824 0.559235 0.235291
H65   H     H_    0.045728 0.079053 0.483321 0.266906
H66   H     H_    0.950798 0.094435 0.381194 0.260942
H67   H     H_    0.360880 0.546741 0.604939 0.177041
H68   H     H_    0.999852 0.072725 0.351797 0.246135
H69   H     H_    0.980347 0.166692 0.327213 0.218091
H70   H     H_    0.074522 0.150502 0.427066 0.225401
H71   H     H_    0.072748 0.169192 0.559309 0.235223
H72   H     H_    0.977686 0.180157 0.458073 0.226600
H73   H     H_    0.450795 0.405564 0.381195 0.261018
H74   H     H_    0.545724 0.420947 0.483320 0.266921
H75   H     H_    0.499846 0.427274 0.351795 0.246090
H76   H     H_    0.574518 0.349497 0.427064 0.225409
H77   H     H_    0.480343 0.333307 0.327213 0.218090
H78   H     H_    0.360907 0.453261 0.616421 0.176943
H79   H     H_    0.477686 0.319843 0.458076 0.226658
H80   H     H_    0.572747 0.330808 0.559310 0.235239
H81   H     H_    0.545537 0.579060 0.483042 0.267036
H82   H     H_    0.450631 0.594514 0.380952 0.260738
H83   H     H_    0.499646 0.572793 0.351500 0.246130
H84   H     H_    0.480276 0.666776 0.327117 0.217993
H85   H     H_    0.574430 0.650520 0.426929 0.225731
H86   H     H_    0.572719 0.669175 0.559230 0.235275
H87   H     H_    0.477665 0.680179 0.458051 0.226591
H88   H     H_    0.695797 0.039157 0.455212 0.164635
O1    O     O_3   0.750030 0.750030 0.500000 -0.500773
O2    O     O_R   0.750010 0.364550 0.560050 -0.638426
O3    O     O_R   0.250010 0.135450 0.560050 -0.638431
O4    O     O_R   0.250010 0.864550 0.560050 -0.638859
O5    O     O_R   0.605390 0.780070 0.439910 -0.584766
O6    O     O_R   0.605390 0.219930 0.439910 -0.585006
O7    O     O_R   0.105390 0.280070 0.439910 -0.584725
O8    O     O_R   0.105390 0.719930 0.439910 -0.585045
O9    O     O_R   0.834580 0.719970 0.439940 -0.639400
O10   O     O_R   0.834580 0.280030 0.439940 -0.639603
O11   O     O_R   0.334580 0.219970 0.439940 -0.639669
O12   O     O_3   0.750030 0.249970 0.500000 -0.500809
O13   O     O_R   0.334580 0.780030 0.439940 -0.639334
O14   O     O_R   0.665460 0.720000 0.560050 -0.658050
O15   O     O_R   0.665460 0.280000 0.560050 -0.658289
O16   O     O_R   0.165460 0.220000 0.560050 -0.658301
O17   O     O_R   0.165460 0.780000 0.560050 -0.658038
O18   O     O_R   0.894670 0.780060 0.560110 -0.645581
O19   O     O_R   0.894670 0.219940 0.560110 -0.645755
O20   O     O_R   0.394670 0.280060 0.560110 -0.645517
O21   O     O_R   0.394670 0.719940 0.560110 -0.645819
O22   O     O_R   0.689950 0.864610 0.439940 -0.621365
O23   O     O_3   0.250030 0.250030 0.500000 -0.500827
O24   O     O_R   0.689950 0.135390 0.439940 -0.621525
O25   O     O_R   0.189950 0.364610 0.439940 -0.621363
O26   O     O_R   0.189950 0.635390 0.439940 -0.621527
O27   O     O_R   0.750020 0.635440 0.439910 -0.642208
O28   O     O_R   0.750020 0.364560 0.439910 -0.642888
O29   O     O_R   0.250020 0.135440 0.439910 -0.642875
O30   O     O_R   0.250020 0.864560 0.439910 -0.642220
O31   O     O_R   0.605400 0.780060 0.270840 -0.618175
O32   O     O_R   0.605400 0.219940 0.270840 -0.617868
O33   O     O_R   0.105400 0.280060 0.270840 -0.618202
O34   O     O_3   0.250030 0.749970 0.500000 -0.500754
O35   O     O_R   0.105400 0.719940 0.270840 -0.617840
O36   O     O_R   0.834560 0.720000 0.729150 -0.584923
O37   O     O_R   0.834560 0.280000 0.729150 -0.584715
O38   O     O_R   0.334560 0.220000 0.729150 -0.584661
O39   O     O_R   0.334560 0.780000 0.729150 -0.584977
O40   O     O_R   0.665490 0.719970 0.270840 -0.661847
O41   O     O_R   0.665490 0.280030 0.270840 -0.661675
O42   O     O_R   0.165490 0.219970 0.270840 -0.661623
O43   O     O_R   0.165490 0.780030 0.270840 -0.661898
O44   O     O_R   0.894650 0.780070 0.729170 -0.679436
O45   O     O_R   0.810120 0.864610 0.560110 -0.647162
O46   O     O_R   0.894650 0.219930 0.729170 -0.679250
O47   O     O_R   0.394650 0.280070 0.729170 -0.679463
O48   O     O_R   0.394650 0.719930 0.729170 -0.679223
O49   O     O_R   0.810120 0.135390 0.560110 -0.646914
O50   O     O_R   0.310120 0.364610 0.560110 -0.647159
O51   O     O_R   0.310120 0.635390 0.560110 -0.646916
O52   O     O_R   0.750010 0.635450 0.560050 -0.638863
Zn1   Zn    Zn3+2 0.835880 0.792950 0.585850 0.960884
Zn2   Zn    Zn3+2 0.750030 0.292900 0.414160 0.953246
Zn3   Zn    Zn3+2 0.250030 0.207100 0.414160 0.953146
Zn4   Zn    Zn3+2 0.250030 0.792900 0.414160 0.953451
Zn5   Zn    Zn3+2 0.750010 0.707110 0.585820 0.997015
Zn6   Zn    Zn3+2 0.750010 0.292890 0.585820 0.997074
Zn7   Zn    Zn3+2 0.250010 0.207110 0.585820 0.997176
Zn8   Zn    Zn3+2 0.250010 0.792890 0.585820 0.996912
Zn9   Zn    Zn3+2 0.835880 0.207050 0.585850 0.961003
Zn10  Zn    Zn3+2 0.335880 0.292950 0.585850 0.960945
Zn11  Zn    Zn3+2 0.335880 0.707050 0.585850 0.960942
Zn12  Zn    Zn3+2 0.664180 0.792950 0.414160 1.020979
Zn13  Zn    Zn3+2 0.664180 0.207050 0.414160 1.020892
Zn14  Zn    Zn3+2 0.164180 0.292950 0.414160 1.020917
Zn15  Zn    Zn3+2 0.164180 0.707050 0.414160 1.020955
Zn16  Zn    Zn3+2 0.750030 0.707100 0.414160 0.953351

loop_
_geom_bond_atom_site_label_1
_geom_bond_atom_site_label_2
_ccdc_geom_bond_type
C61   C70   S    
C58   C62   D    
C87   C88   S    
C73   H27   S    
O23   Zn3   S    
C81   H55   S    
C66   H9    S    
C91   H79   S    
C23   O16   A    
C70   C78   D    
C1    C8    S    
C50   C64   S    
C74   H41   S    
C95   C96   S    
C55   O38   A    
C56   F2    S    
C20   H25   S    
C4    C8    D    
C42   O25   A    
C75   H39   S    
C81   C82   S    
C93   H75   S    
O51   Zn11  S    
C71   H33   S    
C83   H50   S    
C85   C86   S    
O34   Zn8   S    
C87   H72   S    
C62   H5    S    
C50   O32   A    
O1    Zn1   S    
C40   O45   A    
C15   H19   S    
C30   C35   D    
C51   O42   A    
C14   H18   S    
C85   H62   S    
O23   Zn14  S    
C47   O3    A    
C75   H38   S    
O33   Zn14  S    
C3    C7    D    
C92   H77   S    
C53   O36   A    
C14   C36   S    
C82   H54   S    
C58   C71   S    
C83   H51   S    
C20   C25   D    
C2    F6    S    
C70   H13   S    
C59   C74   S    
O44   Zn1   S    
C23   O7    A    
C19   H24   S    
C28   H56   S    
O1    Zn16  S    
C88   H70   S    
C18   C19   S    
C17   C39   S    
C4    C13   S    
O14   Zn5   S    
C35   C42   S    
C94   H87   S    
C15   C37   S    
O28   Zn2   S    
C10   H15   S    
C92   H76   S    
C77   H49   S    
O30   Zn4   S    
O31   Zn12  S    
C58   C66   S    
C80   H43   S    
C37   O19   A    
C29   C33   D    
O3    Zn7   S    
C51   O33   A    
C37   O10   A    
O2    Zn6   S    
C35   H4    S    
O1    Zn5   S    
C90   H68   S    
C54   O37   A    
O37   Zn6   S    
O35   Zn15  S    
O12   Zn6   S    
C76   H37   S    
O13   Zn4   S    
C80   H42   S    
C47   O29   A    
C73   H28   S    
C45   C53   S    
C27   H45   S    
C32   H2    S    
C91   H80   S    
C48   O4    A    
O23   Zn7   S    
C9    H14   S    
C30   H78   S    
C96   H83   S    
O4    Zn8   S    
C2    C6    D    
C44   O27   A    
O24   Zn13  S    
O19   Zn9   S    
O39   Zn8   S    
C57   C78   S    
C77   H48   S    
C21   C26   D    
C95   H84   S    
C46   O2    A    
C76   H36   S    
C7    C12   S    
O10   Zn2   S    
C54   C56   S    
C60   C77   S    
C46   O28   A    
O52   Zn5   S    
C39   O21   A    
O46   Zn9   S    
C27   C31   D    
C33   C43   S    
O1    Zn12  S    
C96   H82   S    
C28   C32   D    
C51   C63   S    
C84   C85   S    
O5    Zn12  S    
C33   H3    S    
C74   C75   S    
C9    C89   S    
C91   C92   S    
C5    C84   S    
C93   H73   S    
O45   Zn1   S    
C64   H7    S    
C83   H52   S    
O29   Zn3   S    
C43   O51   A    
C56   C68   D    
C86   H60   S    
O22   Zn12  S    
C31   H88   S    
C42   O50   A    
O23   Zn10  S    
C6    C87   S    
C41   O49   A    
C10   C15   D    
C67   C69   D    
O16   Zn7   S    
C61   C81   S    
C50   O41   A    
C75   C76   S    
C94   H86   S    
C65   H8    S    
C29   C30   S    
C84   H64   S    
C34   O17   A    
C61   C65   D    
O42   Zn3   S    
C13   H17   S    
C11   C16   D    
C52   O35   A    
C72   H30   S    
C25   C48   S    
C38   O20   A    
C7    C91   S    
C5    C34   S    
C90   H66   S    
O47   Zn10  S    
C77   C79   S    
C8    C94   S    
C29   H67   S    
C1    O14   A    
C53   O44   A    
C54   O46   A    
C49   C65   S    
C26   C47   S    
C79   H46   S    
C86   H58   S    
C49   O31   A    
O34   Zn11  S    
C22   C46   S    
C88   C90   S    
C24   H12   S    
C38   O11   A    
C78   F4    S    
O50   Zn10  S    
O21   Zn11  S    
C43   O26   A    
O49   Zn9   S    
C36   O9    A    
O26   Zn15  S    
O40   Zn16  S    
O38   Zn7   S    
C2    C10   S    
O43   Zn4   S    
C71   H32   S    
C44   O52   A    
O8    Zn15  S    
C79   H47   S    
O36   Zn5   S    
C76   H35   S    
C3    F7    S    
C41   O24   A    
C74   H40   S    
C69   H11   S    
O48   Zn11  S    
C11   H16   S    
C31   C41   S    
C89   F5    S    
C12   O15   A    
C18   C22   D    
C81   H57   S    
C96   H81   S    
C1    O5    A    
C26   H34   S    
C73   H29   S    
C72   C73   S    
O25   Zn14  S    
O34   Zn15  S    
C55   C67   S    
C93   H74   S    
O20   Zn10  S    
O34   Zn4   S    
C86   H59   S    
C67   F3    S    
C22   H1    S    
C87   H71   S    
C59   C63   D    
O18   Zn1   S    
C13   C17   D    
C60   C64   D    
C85   H61   S    
C63   H6    S    
C19   C24   D    
C16   H20   S    
O9    Zn16  S    
C71   C72   S    
C84   H63   S    
C52   C62   S    
C18   H22   S    
O7    Zn14  S    
O12   Zn9   S    
C88   H69   S    
C16   C38   S    
C17   H21   S    
C82   H53   S    
C72   H31   S    
C48   O30   A    
C60   C69   S    
C49   O40   A    
C24   C44   S    
C6    C23   S    
C4    F8    S    
C90   H65   S    
C92   C93   S    
C9    C14   D    
C32   C40   S    
C25   H23   S    
C94   C95   S    
O41   Zn2   S    
O15   Zn6   S    
O12   Zn2   S    
C21   H26   S    
C57   O48   A    
C3    C11   S    
C95   H85   S    
O17   Zn8   S    
C79   C80   S    
C34   O8    A    
C80   H44   S    
O11   Zn3   S    
C20   C21   S    
C82   C83   S    
C57   O39   A    
C40   O22   A    
C45   C66   D    
C12   O6    A    
C59   C68   S    
C45   F1    S    
O27   Zn16  S    
O12   Zn13  S    
C55   O47   A    
C39   O13   A    
O6    Zn13  S    
C5    C89   D    
C52   O43   A    
C68   H10   S    
O32   Zn13  S    
C27   C28   S    
C36   O18   A    
