data_mof_unit_22533.cif
_audit_creation_date              2012-12-10T17:18:34-0500
_audit_creation_method            fapswitch 2.2
_symmetry_space_group_name_H-M    P1
_symmetry_Int_Tables_number       1
_space_group_crystal_system       triclinic
_cell_length_a                    25.867989
_cell_length_b                    25.86793
_cell_length_c                    25.836701
_cell_angle_alpha                 91.10274
_cell_angle_beta                  91.103889
_cell_angle_gamma                 89.923524
_cell_volume                      17282.24472

loop_
_atom_site_label
_atom_site_type_symbol
_atom_type_description
_atom_site_fract_x
_atom_site_fract_y
_atom_site_fract_z
_atom_type_partial_charge
C1    C     C_R   0.750617 0.609170 0.747449 0.884624
C2    C     C_R   0.390830 0.749384 0.752549 0.884598
C3    C     C_R   0.159934 0.043088 0.701865 0.430363
C4    C     C_R   0.832000 0.312292 0.043915 0.466493
C5    C     C_R   0.187709 0.668005 0.956085 0.466490
C6    C     C_R   0.804996 0.040317 0.666829 0.481994
C7    C     C_R   0.191687 0.960027 0.331590 0.489595
C8    C     C_R   0.345898 0.044650 0.756558 0.465787
C9    C     C_R   0.649200 0.952224 0.257202 0.452646
C10   C     C_R   0.048574 0.754642 0.848545 0.453862
C11   C     C_R   0.950096 0.250147 0.151733 0.427307
C12   C     C_R   0.691677 0.960027 0.831583 0.489590
C13   C     C_R   0.609631 0.753193 0.251171 0.906733
C14   C     C_R   0.304995 0.040317 0.166827 0.481996
C15   C     C_R   0.956890 0.340124 0.798007 0.430206
C16   C     C_R   0.041120 0.674588 0.183005 0.464951
C17   C     C_R   0.659885 0.043103 0.201970 0.430239
C18   C     C_R   0.325381 0.958874 0.817035 0.464987
C19   C     C_R   0.955343 0.654103 0.243489 0.465757
C20   C     C_R   0.047772 0.350795 0.742781 0.452640
C21   C     C_R   0.245379 0.951429 0.151449 0.453878
C22   C     C_R   0.749848 0.049901 0.848265 0.427312
C23   C     C_R   0.039971 0.308317 0.168410 0.489584
C24   C     C_R   0.390343 0.246973 0.748902 0.900882
C25   C     C_R   0.959686 0.695023 0.833185 0.481994
C26   C     C_R   0.541120 0.174589 0.183003 0.464957
C27   C     C_R   0.456892 0.840114 0.798028 0.430233
C28   C     C_R   0.187727 0.167992 0.456085 0.466515
C29   C     C_R   0.832008 0.812285 0.543917 0.466469
C30   C     C_R   0.459686 0.195020 0.833183 0.481998
C31   C     C_R   0.539971 0.808320 0.168412 0.489583
C32   C     C_R   0.793195 0.160865 0.542276 0.450730
C33   C     C_R   0.205985 0.839496 0.457422 0.452447
C34   C     C_R   0.547771 0.850801 0.742799 0.452657
C35   C     C_R   0.609533 0.752003 0.746204 0.872269
C36   C     C_R   0.455344 0.154104 0.243487 0.465759
C37   C     C_R   0.160506 0.794014 0.542573 0.452463
C38   C     C_R   0.839136 0.206805 0.457725 0.450724
C39   C     C_R   0.450097 0.750149 0.151733 0.427310
C40   C     C_R   0.548574 0.254636 0.848548 0.453866
C41   C     C_R   0.851026 0.762754 0.449252 0.477864
C42   C     C_R   0.237276 0.148972 0.550742 0.477927
C43   C     C_R   0.249844 0.549899 0.848263 0.427312
C44   C     C_R   0.745379 0.451431 0.151449 0.453881
C45   C     C_R   0.149199 0.452223 0.257197 0.452648
C46   C     C_R   0.390830 0.249386 0.252548 0.884594
C47   C     C_R   0.845895 0.544652 0.756552 0.465782
C48   C     C_R   0.825384 0.458876 0.817030 0.465004
C49   C     C_R   0.159887 0.543102 0.201967 0.430245
C50   C     C_R   0.804995 0.540317 0.166828 0.481996
C51   C     C_R   0.191671 0.460027 0.831578 0.489583
C52   C     C_R   0.517268 0.626287 0.680064 -0.276251
C53   C     C_R   0.479932 0.388522 0.293017 -0.267427
C54   C     C_R   0.679232 0.621855 0.481947 -0.277164
C55   C     C_R   0.378137 0.320794 0.518051 -0.277185
C56   C     C_R   0.484386 0.697805 0.381671 -0.192682
C57   C     C_R   0.609631 0.253192 0.751168 0.906721
C58   C     C_R   0.514352 0.308021 0.620289 -0.194035
C59   C     C_R   0.336802 0.638315 0.519968 -0.223589
C60   C     C_R   0.662499 0.362090 0.479873 -0.228468
C61   C     C_R   0.523091 0.394281 0.262867 -0.159901
C62   C     C_R   0.477703 0.614715 0.713617 -0.195590
C63   C     C_R   0.637909 0.337499 0.520122 -0.228455
C64   C     C_R   0.361686 0.663198 0.480034 -0.223589
C65   C     C_R   0.472143 0.276045 0.611009 -0.212496
C66   C     C_R   0.525647 0.731047 0.390282 -0.137214
C67   C     C_R   0.389340 0.292790 0.473401 -0.163141
C68   C     C_R   0.390343 0.746972 0.248900 0.900898
C69   C     C_R   0.707248 0.610652 0.526592 -0.163097
C70   C     C_R   0.723929 0.527846 0.388984 -0.212493
C71   C     C_R   0.268942 0.474353 0.609714 -0.137218
C72   C     C_R   0.605721 0.476908 0.737044 -0.159944
C73   C     C_R   0.385294 0.522290 0.286346 -0.195620
C74   C     C_R   0.373730 0.482725 0.319904 -0.276244
C75   C     C_R   0.611499 0.520064 0.706892 -0.267428
C76   C     C_R   0.302184 0.515614 0.618324 -0.192676
C77   C     C_R   0.691951 0.485639 0.379694 -0.194029
C78   C     C_R   0.017258 0.126269 0.680100 -0.276230
C79   C     C_R   0.253933 0.754012 0.390489 0.867206
C80   C     C_R   0.979934 0.888518 0.293025 -0.267431
C81   C     C_R   0.679208 0.121868 0.981951 -0.277155
C82   C     C_R   0.378134 0.820794 0.018049 -0.277170
C83   C     C_R   0.984387 0.197804 0.381670 -0.192680
C84   C     C_R   0.014350 0.807999 0.620277 -0.194031
C85   C     C_R   0.336803 0.138318 0.019969 -0.223591
C86   C     C_R   0.662498 0.862091 0.979873 -0.228463
C87   C     C_R   0.023091 0.894280 0.262874 -0.159907
C88   C     C_R   0.977696 0.114705 0.713659 -0.195505
C89   C     C_R   0.637909 0.837502 0.020124 -0.228459
C90   C     C_R   0.745989 0.246068 0.609510 0.867209
C91   C     C_R   0.361686 0.163202 0.980035 -0.223584
C92   C     C_R   0.972139 0.776022 0.611002 -0.212511
C93   C     C_R   0.025647 0.231046 0.390282 -0.137216
C94   C     C_R   0.389338 0.792789 0.973399 -0.163122
C95   C     C_R   0.707214 0.110662 0.026601 -0.163118
C96   C     C_R   0.162497 0.362091 0.979873 -0.228463
C97   C     C_R   0.836802 0.638317 0.019969 -0.223590
C98   C     C_R   0.223935 0.027845 0.388985 -0.212500
C99   C     C_R   0.768953 0.974353 0.609718 -0.137211
C100  C     C_R   0.207213 0.610664 0.026598 -0.163118
C101  C     C_R   0.751423 0.747933 0.390359 0.953556
C102  C     C_R   0.889335 0.292798 0.973396 -0.163142
C103  C     C_R   0.105728 0.976895 0.736979 -0.159985
C104  C     C_R   0.885297 0.022291 0.286340 -0.195607
C105  C     C_R   0.861685 0.663202 0.980036 -0.223583
C106  C     C_R   0.137908 0.337501 0.020123 -0.228456
C107  C     C_R   0.873734 0.982726 0.319898 -0.276242
C108  C     C_R   0.111519 0.020041 0.706816 -0.267430
C109  C     C_R   0.878130 0.320800 0.018047 -0.277170
C110  C     C_R   0.179205 0.621872 0.981950 -0.277149
C111  C     C_R   0.802195 0.015614 0.618330 -0.192682
C112  C     C_R   0.247998 0.390467 0.253796 0.872245
C113  C     C_R   0.252067 0.248579 0.609641 0.953564
C114  C     C_R   0.191955 0.985638 0.379696 -0.194025
C115  C     C_R   0.385282 0.022282 0.786412 -0.195702
C116  C     C_R   0.605718 0.976911 0.237142 -0.159894
C117  C     C_R   0.025650 0.731086 0.890284 -0.137205
C118  C     C_R   0.972149 0.276077 0.111016 -0.212485
C119  C     C_R   0.691938 0.985640 0.879687 -0.194038
C120  C     C_R   0.302190 0.015615 0.118328 -0.192679
C121  C     C_R   0.979916 0.388535 0.792967 -0.267422
C122  C     C_R   0.017273 0.626270 0.180095 -0.276243
C123  C     C_R   0.611474 0.020070 0.206992 -0.267423
C124  C     C_R   0.753932 0.254012 0.390489 0.867206
C125  C     C_R   0.373701 0.982716 0.819963 -0.276251
C126  C     C_R   0.977709 0.614705 0.213653 -0.195621
C127  C     C_R   0.023080 0.394283 0.762822 -0.159868
C128  C     C_R   0.268946 0.974355 0.109717 -0.137211
C129  C     C_R   0.723915 0.027847 0.888980 -0.212483
C130  C     C_R   0.014358 0.308053 0.120305 -0.194032
C131  C     C_R   0.984391 0.697840 0.881683 -0.192659
C132  C     C_R   0.517272 0.126272 0.180093 -0.276247
C133  C     C_R   0.479918 0.888527 0.793000 -0.267426
C134  C     C_R   0.179246 0.121850 0.481943 -0.277166
C135  C     C_R   0.245989 0.746069 0.609510 0.867212
C136  C     C_R   0.878142 0.820782 0.518052 -0.277187
C137  C     C_R   0.484390 0.197833 0.881682 -0.192669
C138  C     C_R   0.514358 0.808056 0.120308 -0.194032
C139  C     C_R   0.836801 0.138314 0.519968 -0.223586
C140  C     C_R   0.162500 0.862090 0.479873 -0.228473
C141  C     C_R   0.523079 0.894284 0.762853 -0.159886
C142  C     C_R   0.477709 0.114707 0.213650 -0.195629
C143  C     C_R   0.137910 0.837498 0.520122 -0.228453
C144  C     C_R   0.861685 0.163197 0.480034 -0.223585
C145  C     C_R   0.472150 0.776080 0.111017 -0.212484
C146  C     C_R   0.251423 0.247933 0.390358 0.953553
C147  C     C_R   0.525650 0.231078 0.890285 -0.137209
C148  C     C_R   0.889343 0.792776 0.473402 -0.163149
C149  C     C_R   0.207267 0.110647 0.526585 -0.163076
C150  C     C_R   0.223908 0.527846 0.888976 -0.212478
C151  C     C_R   0.768945 0.474357 0.109717 -0.137210
C152  C     C_R   0.105719 0.476908 0.237133 -0.159902
C153  C     C_R   0.885281 0.522285 0.786404 -0.195712
C154  C     C_R   0.873703 0.482719 0.819956 -0.276253
C155  C     C_R   0.111478 0.520068 0.206984 -0.267430
C156  C     C_R   0.802190 0.515616 0.118328 -0.192681
C157  C     C_R   0.752067 0.748578 0.609641 0.953561
C158  C     C_R   0.191931 0.485639 0.879682 -0.194038
C159  C     C_R   0.475310 0.705053 0.741488 -0.093110
C160  C     C_R   0.526529 0.301067 0.250010 -0.079846
C161  C     C_R   0.740637 0.698274 0.527980 -0.089913
C162  C     C_R   0.301728 0.259375 0.472021 -0.089889
C163  C     C_R   0.526748 0.747971 0.298038 -0.105279
C164  C     C_R   0.472958 0.254028 0.702138 -0.084719
C165  C     C_R   0.291286 0.725382 0.475758 -0.075819
C166  C     C_R   0.708273 0.275179 0.524338 -0.075726
C167  C     C_R   0.475996 0.296485 0.269554 -0.077206
C168  C     C_R   0.250619 0.109170 0.747448 0.884633
C169  C     C_R   0.524384 0.711854 0.720086 -0.097568
C170  C     C_R   0.724823 0.291729 0.475660 -0.075715
C171  C     C_R   0.274622 0.708718 0.524242 -0.075817
C172  C     C_R   0.523309 0.274856 0.707992 -0.069763
C173  C     C_R   0.476609 0.726809 0.292370 -0.075168
C174  C     C_R   0.296700 0.273519 0.524625 -0.015555
C175  C     C_R   0.726490 0.703302 0.475377 -0.015560
C176  C     C_R   0.725133 0.476689 0.291999 -0.069755
C177  C     C_R   0.273185 0.523391 0.707626 -0.075162
C178  C     C_R   0.703525 0.524004 0.730418 -0.077216
C179  C     C_R   0.747998 0.890467 0.253796 0.872242
C180  C     C_R   0.288149 0.475617 0.279911 -0.097573
C181  C     C_R   0.294947 0.524691 0.258508 -0.093113
C182  C     C_R   0.698931 0.473472 0.749966 -0.079888
C183  C     C_R   0.252024 0.473251 0.701958 -0.105277
C184  C     C_R   0.745962 0.527039 0.297860 -0.084720
C185  C     C_R   0.975308 0.205049 0.741507 -0.093094
C186  C     C_R   0.026529 0.801066 0.250011 -0.079847
C187  C     C_R   0.740634 0.198272 0.027980 -0.089892
C188  C     C_R   0.301727 0.759370 0.972021 -0.089877
C189  C     C_R   0.026748 0.247970 0.298038 -0.105278
C190  C     C_R   0.753028 0.109657 0.751100 0.900897
C191  C     C_R   0.972956 0.754019 0.702135 -0.084718
C192  C     C_R   0.291283 0.225382 0.975759 -0.075823
C193  C     C_R   0.708270 0.775179 0.024339 -0.075718
C194  C     C_R   0.975996 0.796483 0.269556 -0.077214
C195  C     C_R   0.024382 0.211843 0.720104 -0.097571
C196  C     C_R   0.724820 0.791729 0.975660 -0.075714
C197  C     C_R   0.274619 0.208718 0.024242 -0.075817
C198  C     C_R   0.023308 0.774847 0.707985 -0.069766
C199  C     C_R   0.976609 0.226809 0.292369 -0.075169
C200  C     C_R   0.296700 0.773513 0.024625 -0.015558
C201  C     C_R   0.246807 0.890369 0.248829 0.906724
C202  C     C_R   0.726490 0.203302 0.975376 -0.015567
C203  C     C_R   0.208271 0.275180 0.024338 -0.075719
C204  C     C_R   0.791282 0.725382 0.975759 -0.075823
C205  C     C_R   0.225134 0.976689 0.291999 -0.069757
C206  C     C_R   0.773189 0.023391 0.707630 -0.075161
C207  C     C_R   0.226486 0.703305 0.975376 -0.015572
C208  C     C_R   0.796700 0.273513 0.024625 -0.015556
C209  C     C_R   0.203533 0.024002 0.730402 -0.077248
C210  C     C_R   0.788152 0.975617 0.279908 -0.097573
C211  C     C_R   0.774618 0.708717 0.024243 -0.075817
C212  C     C_R   0.750614 0.109170 0.247452 0.884599
C213  C     C_R   0.224821 0.291730 0.975660 -0.075713
C214  C     C_R   0.794948 0.024691 0.258505 -0.093110
C215  C     C_R   0.198934 0.973473 0.749954 -0.079918
C216  C     C_R   0.801729 0.259369 0.972021 -0.089873
C217  C     C_R   0.240632 0.698274 0.027979 -0.089895
C218  C     C_R   0.752028 0.973252 0.701961 -0.105278
C219  C     C_R   0.245964 0.027039 0.297860 -0.084719
C220  C     C_R   0.288133 0.975617 0.779937 -0.097539
C221  C     C_R   0.703514 0.024005 0.230448 -0.077206
C222  C     C_R   0.976609 0.726819 0.792374 -0.075191
C223  C     C_R   0.753028 0.609657 0.251100 0.900890
C224  C     C_R   0.247992 0.890467 0.753800 0.872237
C225  C     C_R   0.023310 0.274867 0.208001 -0.069755
C226  C     C_R   0.745958 0.027039 0.797859 -0.084720
C227  C     C_R   0.252027 0.973253 0.201961 -0.105279
C228  C     C_R   0.026528 0.301063 0.750005 -0.079836
C229  C     C_R   0.975309 0.705052 0.241493 -0.093109
C230  C     C_R   0.698934 0.973471 0.249992 -0.079846
C231  C     C_R   0.294946 0.024690 0.758532 -0.093150
C232  C     C_R   0.024383 0.711851 0.220089 -0.097575
C233  C     C_R   0.975993 0.296487 0.769547 -0.077184
C234  C     C_R   0.273189 0.023391 0.207629 -0.075169
C235  C     C_R   0.253028 0.109657 0.251100 0.900888
C236  C     C_R   0.725129 0.976689 0.791996 -0.069748
C237  C     C_R   0.972960 0.254039 0.202139 -0.084716
C238  C     C_R   0.026748 0.747982 0.798034 -0.105270
C239  C     C_R   0.475309 0.205053 0.241492 -0.093111
C240  C     C_R   0.526528 0.801067 0.750012 -0.079848
C241  C     C_R   0.240640 0.198275 0.527979 -0.089931
C242  C     C_R   0.801728 0.759371 0.472021 -0.089891
C243  C     C_R   0.526749 0.247981 0.798037 -0.105273
C244  C     C_R   0.472960 0.754040 0.202140 -0.084716
C245  C     C_R   0.791284 0.225381 0.475758 -0.075821
C246  C     C_R   0.746806 0.890369 0.748829 0.906724
C247  C     C_R   0.208274 0.775179 0.524338 -0.075729
C248  C     C_R   0.475995 0.796484 0.769556 -0.077182
C249  C     C_R   0.524383 0.211852 0.220088 -0.097577
C250  C     C_R   0.224824 0.791730 0.475660 -0.075715
C251  C     C_R   0.774620 0.208717 0.524242 -0.075817
C252  C     C_R   0.523310 0.774869 0.208002 -0.069755
C253  C     C_R   0.476610 0.226819 0.792374 -0.075181
C254  C     C_R   0.796701 0.773515 0.524624 -0.015559
C255  C     C_R   0.226493 0.203303 0.475377 -0.015569
C256  C     C_R   0.225125 0.476688 0.791993 -0.069753
C257  C     C_R   0.109533 0.252000 0.746206 0.872267
C258  C     C_R   0.773189 0.523391 0.207630 -0.075168
C259  C     C_R   0.203514 0.524004 0.230447 -0.077203
C260  C     C_R   0.788134 0.475617 0.779932 -0.097559
C261  C     C_R   0.794944 0.524690 0.758529 -0.093139
C262  C     C_R   0.198933 0.473470 0.249991 -0.079847
C263  C     C_R   0.752027 0.473253 0.201961 -0.105282
C264  C     C_R   0.245955 0.527038 0.797856 -0.084717
C265  C     C_R   0.448138 0.749106 0.759334 -0.048707
C266  C     C_R   0.553132 0.256280 0.235102 -0.055011
C267  C     C_R   0.762068 0.741956 0.553811 -0.099236
C268  C     C_R   0.890830 0.749386 0.252548 0.884596
C269  C     C_R   0.258048 0.237937 0.446190 -0.099242
C270  C     C_R   0.552841 0.762874 0.253616 -0.049414
C271  C     C_R   0.447136 0.237975 0.746464 -0.045835
C272  C     C_R   0.260362 0.760761 0.447962 -0.049789
C273  C     C_R   0.739241 0.239641 0.552037 -0.049791
C274  C     C_R   0.448138 0.249109 0.259333 -0.048699
C275  C     C_R   0.553133 0.756281 0.735105 -0.055013
C276  C     C_R   0.760361 0.260760 0.447963 -0.049792
C277  C     C_R   0.239243 0.739642 0.552036 -0.049790
C278  C     C_R   0.552841 0.262872 0.753610 -0.049390
C279  C     C_R   0.109631 0.253193 0.251171 0.906732
C280  C     C_R   0.447136 0.737975 0.246461 -0.045857
C281  C     C_R   0.262069 0.241958 0.553811 -0.099229
C282  C     C_R   0.758047 0.737935 0.446190 -0.099238
C283  C     C_R   0.737126 0.447158 0.246384 -0.049409
C284  C     C_R   0.262021 0.552863 0.753536 -0.045853
C285  C     C_R   0.750897 0.551862 0.740664 -0.048703
C286  C     C_R   0.243720 0.446867 0.264897 -0.055014
C287  C     C_R   0.250891 0.551862 0.240668 -0.048701
C288  C     C_R   0.743710 0.446868 0.764900 -0.055014
C289  C     C_R   0.237122 0.447157 0.746380 -0.049416
C290  C     C_R   0.890343 0.746973 0.748902 0.900881
C291  C     C_R   0.762025 0.552864 0.253539 -0.045853
C292  C     C_R   0.948137 0.249108 0.759337 -0.048694
C293  C     C_R   0.053132 0.756280 0.235103 -0.055012
C294  C     C_R   0.762069 0.241953 0.053811 -0.099230
C295  C     C_R   0.258046 0.737935 0.946189 -0.099232
C296  C     C_R   0.052841 0.262874 0.253615 -0.049413
C297  C     C_R   0.947135 0.737973 0.746463 -0.045832
C298  C     C_R   0.260359 0.260761 0.947963 -0.049792
C299  C     C_R   0.739239 0.739641 0.052037 -0.049793
C300  C     C_R   0.948138 0.749107 0.259334 -0.048699
C301  C     C_R   0.109533 0.752002 0.246204 0.872238
C302  C     C_R   0.053132 0.256274 0.735110 -0.055008
C303  C     C_R   0.760359 0.760760 0.947963 -0.049791
C304  C     C_R   0.239240 0.239641 0.052037 -0.049794
C305  C     C_R   0.052841 0.762869 0.753606 -0.049385
C306  C     C_R   0.947136 0.237974 0.246461 -0.045857
C307  C     C_R   0.262068 0.741954 0.053811 -0.099231
C308  C     C_R   0.758048 0.237933 0.946189 -0.099233
C309  C     C_R   0.237126 0.947158 0.246384 -0.049408
C310  C     C_R   0.762024 0.052864 0.753538 -0.045857
C311  C     C_R   0.250902 0.051861 0.740660 -0.048688
C312  C     C_R   0.890830 0.249386 0.752549 0.884583
C313  C     C_R   0.743721 0.946867 0.264896 -0.055012
C314  C     C_R   0.750891 0.051863 0.240667 -0.048698
C315  C     C_R   0.243709 0.946869 0.764900 -0.055001
C316  C     C_R   0.737125 0.947158 0.746382 -0.049410
C317  C     C_R   0.262025 0.052864 0.253538 -0.045852
C318  C     C_R   0.109630 0.753190 0.751167 0.906712
C319  C     C_R   0.246806 0.390369 0.748828 0.906733
C320  C     C_R   0.890343 0.246972 0.248900 0.900898
C321  C     C_R   0.253932 0.254012 0.890489 0.867210
C322  C     C_R   0.745988 0.746068 0.109511 0.867206
C323  C     C_R   0.251422 0.747934 0.890359 0.953542
C324  C     C_R   0.752067 0.248577 0.109642 0.953548
C325  C     C_R   0.753932 0.754011 0.890489 0.867211
C326  C     C_R   0.245988 0.246068 0.109510 0.867206
C327  C     C_R   0.751423 0.247933 0.890358 0.953547
C328  C     C_R   0.252067 0.748577 0.109642 0.953545
C329  C     C_R   0.541119 0.674602 0.682991 0.464909
C330  C     C_R   0.250614 0.609170 0.247452 0.884598
C331  C     C_R   0.456899 0.340112 0.298034 0.430246
C332  C     C_R   0.687720 0.667994 0.456086 0.466508
C333  C     C_R   0.332005 0.312293 0.543917 0.466476
C334  C     C_R   0.459684 0.695002 0.333171 0.481992
C335  C     C_R   0.539969 0.308296 0.668392 0.489605
C336  C     C_R   0.293195 0.660866 0.542276 0.450733
C337  C     C_R   0.705985 0.339496 0.457423 0.452445
C338  C     C_R   0.547776 0.350801 0.242803 0.452651
C339  C     C_R   0.455343 0.654103 0.743470 0.465747
C340  C     C_R   0.660505 0.294015 0.542574 0.452454
C341  C     C_R   0.747993 0.390467 0.753799 0.872251
C342  C     C_R   0.339137 0.706806 0.457725 0.450725
C343  C     C_R   0.450091 0.250125 0.651733 0.427299
C344  C     C_R   0.548572 0.754616 0.348551 0.453876
C345  C     C_R   0.351026 0.262763 0.449252 0.477865
C346  C     C_R   0.737265 0.648972 0.550745 0.477897
C347  C     C_R   0.749856 0.549901 0.348267 0.427312
C348  C     C_R   0.245377 0.451427 0.651446 0.453876
C349  C     C_R   0.649191 0.452227 0.757144 0.452681
C350  C     C_R   0.345896 0.544656 0.256511 0.465757
C351  C     C_R   0.325413 0.458878 0.316995 0.464953
C352  C     C_R   0.253027 0.609657 0.751099 0.900887
C353  C     C_R   0.659914 0.543099 0.701908 0.430305
C354  C     C_R   0.304989 0.540317 0.666822 0.482003
C355  C     C_R   0.691684 0.460027 0.331589 0.489593
C356  C     C_R   0.041114 0.174582 0.683016 0.464849
C357  C     C_R   0.956899 0.840108 0.298040 0.430258
C358  C     C_R   0.687712 0.168001 0.956085 0.466491
C359  C     C_R   0.332002 0.812290 0.043916 0.466500
C360  C     C_R   0.959684 0.195001 0.333171 0.481989
C361  C     C_R   0.039968 0.808280 0.668379 0.489613
C362  C     C_R   0.293195 0.160866 0.042276 0.450729
C363  C     C_R   0.746807 0.390369 0.248829 0.906724
C364  C     C_R   0.705982 0.839496 0.957422 0.452443
C365  C     C_R   0.047775 0.850800 0.242806 0.452652
C366  C     C_R   0.955339 0.154102 0.743503 0.465711
C367  C     C_R   0.660504 0.794017 0.042576 0.452441
C368  C     C_R   0.339135 0.206809 0.957727 0.450728
C369  C     C_R   0.950088 0.750110 0.651731 0.427290
C370  C     C_R   0.048572 0.254615 0.348550 0.453871
C371  C     C_R   0.351025 0.762760 0.949251 0.477859
C372  C     C_R   0.737243 0.148974 0.050750 0.477854
C373  C     C_R   0.205982 0.339496 0.957422 0.452439
C374  C     C_R   0.609533 0.252002 0.246204 0.872240
C375  C     C_R   0.793194 0.660866 0.042276 0.450728
C376  C     C_R   0.249860 0.049901 0.348267 0.427310
C377  C     C_R   0.745383 0.951429 0.651449 0.453875
C378  C     C_R   0.237242 0.648975 0.050748 0.477859
C379  C     C_R   0.851025 0.262765 0.949249 0.477844
C380  C     C_R   0.149191 0.952226 0.757113 0.452686
C381  C     C_R   0.845897 0.044657 0.256506 0.465751
C382  C     C_R   0.839135 0.706809 0.957727 0.450728
C383  C     C_R   0.160504 0.294017 0.042575 0.452443
C384  C     C_R   0.825417 0.958878 0.316991 0.464941
Cl1   Cl    Cl    0.580410 0.691112 0.630652 -0.488276
Cl2   Cl    Cl    0.407833 0.636638 0.787998 -0.456326
Cl3   Cl    Cl    0.623204 0.257499 0.584906 -0.588195
Cl4   Cl    Cl    0.376269 0.744095 0.416001 -0.595009
Cl5   Cl    Cl    0.398127 0.208122 0.636026 -0.511423
Cl6   Cl    Cl    0.600243 0.797236 0.362733 -0.481790
Cl7   Cl    Cl    0.369748 0.221336 0.397820 -0.469675
Cl8   Cl    Cl    0.778698 0.630259 0.602176 -0.469650
Cl9   Cl    Cl    0.791858 0.601863 0.363985 -0.511461
Cl10  Cl    Cl    0.202760 0.399754 0.637267 -0.481801
Cl11  Cl    Cl    0.638701 0.399690 0.797945 -0.498504
Cl12  Cl    Cl    0.418330 0.334999 0.353005 -0.536408
Cl13  Cl    Cl    0.363348 0.592170 0.211979 -0.456319
Cl14  Cl    Cl    0.308917 0.419594 0.369344 -0.488259
Cl15  Cl    Cl    0.665056 0.581678 0.646947 -0.536454
Cl16  Cl    Cl    0.358681 0.581105 0.676508 -0.559777
Cl17  Cl    Cl    0.638759 0.418440 0.319985 -0.561747
Cl18  Cl    Cl    0.080399 0.191078 0.630669 -0.488274
Cl19  Cl    Cl    0.918333 0.834992 0.353010 -0.536405
Cl20  Cl    Cl    0.638065 0.182672 0.911633 -0.566805
Cl21  Cl    Cl    0.317339 0.861933 0.088374 -0.566800
Cl22  Cl    Cl    0.918896 0.141309 0.323479 -0.559770
Cl23  Cl    Cl    0.638071 0.682657 0.411632 -0.566787
Cl24  Cl    Cl    0.081559 0.861207 0.679954 -0.561787
Cl25  Cl    Cl    0.255903 0.123732 0.083997 -0.595010
Cl26  Cl    Cl    0.742493 0.876798 0.915086 -0.588183
Cl27  Cl    Cl    0.100319 0.861268 0.202010 -0.498537
Cl28  Cl    Cl    0.907822 0.136651 0.788030 -0.456315
Cl29  Cl    Cl    0.623202 0.757507 0.084912 -0.588187
Cl30  Cl    Cl    0.376266 0.244103 0.916005 -0.595020
Cl31  Cl    Cl    0.898120 0.708109 0.636032 -0.511425
Cl32  Cl    Cl    0.100243 0.297235 0.362732 -0.481793
Cl33  Cl    Cl    0.369748 0.721337 0.897817 -0.469691
Cl34  Cl    Cl    0.317346 0.361934 0.588381 -0.566794
Cl35  Cl    Cl    0.778666 0.130251 0.102186 -0.469663
Cl36  Cl    Cl    0.242491 0.376799 0.915085 -0.588180
Cl37  Cl    Cl    0.755903 0.623732 0.083998 -0.595012
Cl38  Cl    Cl    0.291862 0.101863 0.363984 -0.511466
Cl39  Cl    Cl    0.702762 0.899759 0.637266 -0.481795
Cl40  Cl    Cl    0.278667 0.630251 0.102181 -0.469659
Cl41  Cl    Cl    0.869751 0.221346 0.897814 -0.469686
Cl42  Cl    Cl    0.138687 0.899699 0.797923 -0.498490
Cl43  Cl    Cl    0.863346 0.092172 0.211975 -0.456317
Cl44  Cl    Cl    0.876266 0.744103 0.916006 -0.595021
Cl45  Cl    Cl    0.418897 0.641309 0.323479 -0.559769
Cl46  Cl    Cl    0.123202 0.257506 0.084911 -0.588187
Cl47  Cl    Cl    0.808924 0.919595 0.369341 -0.488249
Cl48  Cl    Cl    0.165100 0.081676 0.646914 -0.536448
Cl49  Cl    Cl    0.817333 0.361935 0.088372 -0.566802
Cl50  Cl    Cl    0.138061 0.682677 0.911632 -0.566810
Cl51  Cl    Cl    0.858687 0.081106 0.676519 -0.559804
Cl52  Cl    Cl    0.138761 0.918441 0.319988 -0.561745
Cl53  Cl    Cl    0.363374 0.092154 0.712025 -0.456306
Cl54  Cl    Cl    0.638739 0.899678 0.297998 -0.498542
Cl55  Cl    Cl    0.100248 0.797263 0.862713 -0.481811
Cl56  Cl    Cl    0.581559 0.361221 0.679978 -0.561752
Cl57  Cl    Cl    0.898133 0.208146 0.136014 -0.511459
Cl58  Cl    Cl    0.638753 0.918440 0.819975 -0.561731
Cl59  Cl    Cl    0.358688 0.081104 0.176517 -0.559767
Cl60  Cl    Cl    0.918325 0.335031 0.852983 -0.536438
Cl61  Cl    Cl    0.080403 0.691085 0.130657 -0.488258
Cl62  Cl    Cl    0.664993 0.081673 0.146999 -0.536407
Cl63  Cl    Cl    0.308863 0.919582 0.869370 -0.488290
Cl64  Cl    Cl    0.907830 0.636650 0.288020 -0.456320
Cl65  Cl    Cl    0.100320 0.361248 0.701987 -0.498536
Cl66  Cl    Cl    0.202758 0.899759 0.137269 -0.481796
Cl67  Cl    Cl    0.255902 0.623734 0.583996 -0.595010
Cl68  Cl    Cl    0.791850 0.101861 0.863988 -0.511465
Cl69  Cl    Cl    0.081560 0.361241 0.180013 -0.561746
Cl70  Cl    Cl    0.918901 0.641326 0.823508 -0.559733
Cl71  Cl    Cl    0.580403 0.191088 0.130655 -0.488252
Cl72  Cl    Cl    0.418325 0.835008 0.853002 -0.536457
Cl73  Cl    Cl    0.138073 0.182655 0.411636 -0.566781
Cl74  Cl    Cl    0.817350 0.861931 0.588377 -0.566790
Cl75  Cl    Cl    0.418900 0.141324 0.823504 -0.559733
Cl76  Cl    Cl    0.581560 0.861244 0.180017 -0.561743
Cl77  Cl    Cl    0.755903 0.123732 0.583998 -0.595001
Cl78  Cl    Cl    0.742497 0.376798 0.415088 -0.588198
Cl79  Cl    Cl    0.242497 0.876798 0.415087 -0.588203
Cl80  Cl    Cl    0.600317 0.861264 0.702004 -0.498523
Cl81  Cl    Cl    0.407831 0.136650 0.288019 -0.456319
Cl82  Cl    Cl    0.123206 0.757495 0.584903 -0.588202
Cl83  Cl    Cl    0.876268 0.244095 0.416002 -0.595007
Cl84  Cl    Cl    0.398135 0.708148 0.136013 -0.511462
Cl85  Cl    Cl    0.600248 0.297256 0.862719 -0.481802
Cl86  Cl    Cl    0.869744 0.721328 0.397818 -0.469676
Cl87  Cl    Cl    0.278712 0.130265 0.602173 -0.469635
Cl88  Cl    Cl    0.291848 0.601858 0.863987 -0.511464
Cl89  Cl    Cl    0.600319 0.361266 0.202006 -0.498535
Cl90  Cl    Cl    0.702757 0.399761 0.137269 -0.481786
Cl91  Cl    Cl    0.138735 0.399678 0.297993 -0.498543
Cl92  Cl    Cl    0.863368 0.592158 0.712020 -0.456307
Cl93  Cl    Cl    0.808867 0.419586 0.869367 -0.488274
Cl94  Cl    Cl    0.164998 0.581671 0.146997 -0.536407
Cl95  Cl    Cl    0.858689 0.581103 0.176519 -0.559768
Cl96  Cl    Cl    0.138748 0.418440 0.819965 -0.561727
H1    H     H_    0.538970 0.932463 0.757423 0.218703
H2    H     H_    0.465733 0.921736 0.814237 0.188068
H3    H     H_    0.851917 0.102099 0.534089 0.191478
H4    H     H_    0.147253 0.898207 0.465624 0.188412
H5    H     H_    0.471394 0.174261 0.913039 0.195724
H6    H     H_    0.527244 0.832831 0.089842 0.185486
H7    H     H_    0.151070 0.094120 0.467042 0.196959
H8    H     H_    0.905867 0.848962 0.532952 0.196992
H9    H     H_    0.825767 0.528613 0.086976 0.195715
H10   H     H_    0.167153 0.472754 0.910145 0.185483
H11   H     H_    0.902086 0.470912 0.848642 0.204011
H12   H     H_    0.462807 0.075676 0.214504 0.224178
H13   H     H_    0.078274 0.534243 0.185734 0.188073
H14   H     H_    0.067541 0.461013 0.242555 0.218708
H15   H     H_    0.924314 0.537184 0.785564 0.224178
H16   H     H_    0.226968 0.544628 0.927517 0.190445
H17   H     H_    0.763949 0.458292 0.070943 0.228182
H18   H     H_    0.038971 0.432459 0.757382 0.218700
H19   H     H_    0.962808 0.575674 0.214507 0.224176
H20   H     H_    0.927275 0.295792 0.956795 0.219447
H21   H     H_    0.204226 0.572721 0.043195 0.219447
H22   H     H_    0.955365 0.273014 0.072475 0.190455
H23   H     H_    0.927286 0.795757 0.456805 0.219450
H24   H     H_    0.041718 0.736090 0.929056 0.228181
H25   H     H_    0.101791 0.352747 0.034372 0.188412
H26   H     H_    0.897901 0.648087 0.965916 0.191491
H27   H     H_    0.029072 0.597879 0.151415 0.203956
H28   H     H_    0.965730 0.421749 0.814194 0.188070
H29   H     H_    0.851919 0.602102 0.034090 0.191481
H30   H     H_    0.147252 0.398208 0.965624 0.188408
H31   H     H_    0.971396 0.674269 0.913042 0.195728
H32   H     H_    0.027243 0.332827 0.089839 0.185487
H33   H     H_    0.151019 0.594152 0.967052 0.196977
H34   H     H_    0.204306 0.072698 0.543172 0.219454
H35   H     H_    0.905849 0.348987 0.032946 0.196983
H36   H     H_    0.397901 0.148087 0.965915 0.191488
H37   H     H_    0.601792 0.852748 0.034372 0.188411
H38   H     H_    0.325768 0.028612 0.086976 0.195715
H39   H     H_    0.667162 0.972754 0.910152 0.185484
H40   H     H_    0.405855 0.848979 0.032947 0.196978
H41   H     H_    0.651022 0.094148 0.967053 0.196978
H42   H     H_    0.402083 0.970907 0.848648 0.203992
H43   H     H_    0.578268 0.034247 0.185746 0.188069
H44   H     H_    0.647253 0.898209 0.965624 0.188409
H45   H     H_    0.455367 0.773017 0.072476 0.190450
H46   H     H_    0.351920 0.102103 0.034089 0.191481
H47   H     H_    0.567540 0.961016 0.242567 0.218705
H48   H     H_    0.424315 0.037179 0.785572 0.224175
H49   H     H_    0.704226 0.072720 0.043200 0.219448
H50   H     H_    0.427280 0.795777 0.956800 0.219450
H51   H     H_    0.726976 0.044630 0.927521 0.190448
H52   H     H_    0.263951 0.958290 0.070943 0.228180
H53   H     H_    0.078341 0.034198 0.685507 0.188103
H54   H     H_    0.902127 0.970928 0.348577 0.203947
H55   H     H_    0.027233 0.832761 0.589799 0.185498
H56   H     H_    0.541718 0.236079 0.929058 0.228182
H57   H     H_    0.971390 0.174225 0.413022 0.195716
H58   H     H_    0.763961 0.958287 0.570944 0.228177
H59   H     H_    0.227004 0.044624 0.427527 0.190438
H60   H     H_    0.962788 0.075677 0.714507 0.224189
H61   H     H_    0.038985 0.932458 0.257454 0.218710
H62   H     H_    0.924327 0.037193 0.285483 0.224176
H63   H     H_    0.067543 0.960996 0.742358 0.218734
H64   H     H_    0.965759 0.921720 0.314278 0.188072
H65   H     H_    0.029043 0.097885 0.651411 0.203867
H66   H     H_    0.167183 0.972752 0.410164 0.185486
H67   H     H_    0.101791 0.852741 0.534369 0.188425
H68   H     H_    0.825774 0.028611 0.586979 0.195712
H69   H     H_    0.041714 0.236040 0.429055 0.228184
H70   H     H_    0.955352 0.772946 0.572463 0.190471
H71   H     H_    0.538985 0.432460 0.257445 0.218708
H72   H     H_    0.462798 0.575685 0.714457 0.224189
H73   H     H_    0.427282 0.295775 0.456803 0.219452
H74   H     H_    0.704278 0.572705 0.543182 0.219449
H75   H     H_    0.455357 0.272974 0.572469 0.190465
H76   H     H_    0.541713 0.736041 0.429056 0.228183
H77   H     H_    0.601791 0.352743 0.534370 0.188420
H78   H     H_    0.897899 0.148080 0.465914 0.191481
H79   H     H_    0.397900 0.648081 0.465913 0.191479
H80   H     H_    0.529065 0.597905 0.651375 0.203919
H81   H     H_    0.465757 0.421725 0.314267 0.188070
H82   H     H_    0.351917 0.602100 0.534089 0.191480
H83   H     H_    0.647254 0.398207 0.465624 0.188411
H84   H     H_    0.471390 0.674226 0.413022 0.195714
H85   H     H_    0.527236 0.332789 0.589816 0.185493
H86   H     H_    0.651052 0.594128 0.467047 0.196963
H87   H     H_    0.405860 0.348977 0.532950 0.196991
H88   H     H_    0.325760 0.528611 0.586971 0.195716
H89   H     H_    0.529070 0.097882 0.151412 0.203962
H90   H     H_    0.667177 0.472752 0.410161 0.185485
H91   H     H_    0.402122 0.470926 0.348583 0.203955
H92   H     H_    0.578307 0.534239 0.685617 0.188084
H93   H     H_    0.567537 0.461015 0.742444 0.218718
H94   H     H_    0.424325 0.537191 0.285491 0.224177
H95   H     H_    0.726995 0.544626 0.427526 0.190442
H96   H     H_    0.263948 0.458286 0.570941 0.228175
O1    O     O_3   0.750000 0.750000 0.750000 -0.541589
O2    O     O_R   0.280360 0.365810 0.280360 -0.607131
O3    O     O_R   0.780360 0.780360 0.634190 -0.572789
O4    O     O_R   0.219640 0.780360 0.365810 -0.613729
O5    O     O_R   0.780360 0.219640 0.634190 -0.614120
O6    O     O_R   0.780360 0.780360 0.365810 -0.575274
O7    O     O_R   0.219640 0.219640 0.634190 -0.575251
O8    O     O_R   0.719640 0.634190 0.280360 -0.621707
O9    O     O_R   0.280360 0.365810 0.719640 -0.602187
O10   O     O_R   0.280360 0.634190 0.280360 -0.604653
O11   O     O_R   0.719640 0.365810 0.719640 -0.598747
O12   O     O_R   0.280360 0.634190 0.719640 -0.560735
O13   O     O_R   0.719640 0.365810 0.280360 -0.565253
O14   O     O_R   0.634190 0.280360 0.280360 -0.598734
O15   O     O_R   0.365810 0.719640 0.719640 -0.604654
O16   O     O_R   0.634190 0.719640 0.280360 -0.602198
O17   O     O_3   0.250000 0.250000 0.250000 -0.541589
O18   O     O_R   0.365810 0.280360 0.719640 -0.621706
O19   O     O_R   0.634190 0.719640 0.719640 -0.607137
O20   O     O_R   0.365810 0.280360 0.280360 -0.584295
O21   O     O_R   0.634190 0.280360 0.719640 -0.565236
O22   O     O_R   0.365810 0.719640 0.280360 -0.560746
O23   O     O_R   0.280360 0.719640 0.365810 -0.614124
O24   O     O_R   0.719640 0.280360 0.634190 -0.613724
O25   O     O_R   0.719640 0.719640 0.365810 -0.572777
O26   O     O_R   0.280360 0.280360 0.634190 -0.572786
O27   O     O_R   0.719640 0.280360 0.365810 -0.613729
O28   O     O_3   0.750000 0.750000 0.250000 -0.541589
O29   O     O_R   0.280360 0.719640 0.634190 -0.614119
O30   O     O_R   0.280360 0.280360 0.365810 -0.575276
O31   O     O_R   0.719640 0.719640 0.634190 -0.575253
O32   O     O_R   0.219640 0.134190 0.719640 -0.584350
O33   O     O_R   0.780360 0.865810 0.280360 -0.607130
O34   O     O_R   0.719640 0.134190 0.780360 -0.621712
O35   O     O_R   0.280360 0.865810 0.219640 -0.602195
O36   O     O_R   0.780360 0.134190 0.280360 -0.604653
O37   O     O_R   0.219640 0.865810 0.719640 -0.598753
O38   O     O_R   0.280360 0.134190 0.219640 -0.560744
O39   O     O_3   0.250000 0.250000 0.750000 -0.541590
O40   O     O_R   0.719640 0.865810 0.780360 -0.565256
O41   O     O_R   0.219640 0.865810 0.280360 -0.565250
O42   O     O_R   0.780360 0.134190 0.719640 -0.560740
O43   O     O_R   0.719640 0.865810 0.219640 -0.598734
O44   O     O_R   0.280360 0.134190 0.780360 -0.604657
O45   O     O_R   0.780360 0.865810 0.719640 -0.602193
O46   O     O_R   0.219640 0.134190 0.280360 -0.621708
O47   O     O_R   0.280360 0.865810 0.780360 -0.607151
O48   O     O_R   0.719640 0.134190 0.219640 -0.584293
O49   O     O_R   0.134190 0.280360 0.780360 -0.598732
O50   O     O_3   0.250000 0.750000 0.250000 -0.541590
O51   O     O_R   0.865810 0.719640 0.219640 -0.604651
O52   O     O_R   0.134190 0.219640 0.280360 -0.602201
O53   O     O_R   0.865810 0.780360 0.719640 -0.621707
O54   O     O_R   0.134190 0.719640 0.219640 -0.607131
O55   O     O_R   0.865810 0.280360 0.780360 -0.584286
O56   O     O_R   0.134190 0.780360 0.719640 -0.565224
O57   O     O_R   0.865810 0.219640 0.280360 -0.560746
O58   O     O_R   0.865810 0.719640 0.780360 -0.560736
O59   O     O_R   0.134190 0.280360 0.219640 -0.565251
O60   O     O_R   0.865810 0.780360 0.280360 -0.584301
O61   O     O_3   0.750000 0.250000 0.750000 -0.541589
O62   O     O_R   0.134190 0.219640 0.719640 -0.607127
O63   O     O_R   0.865810 0.280360 0.219640 -0.621708
O64   O     O_R   0.134190 0.719640 0.780360 -0.602197
O65   O     O_R   0.865810 0.219640 0.719640 -0.604651
O66   O     O_R   0.134190 0.780360 0.280360 -0.598734
O67   O     O_R   0.280360 0.219640 0.865810 -0.614118
O68   O     O_R   0.719640 0.780360 0.134190 -0.613732
O69   O     O_R   0.219640 0.719640 0.865810 -0.572786
O70   O     O_R   0.780360 0.280360 0.134190 -0.572778
O71   O     O_R   0.719640 0.780360 0.865810 -0.613732
O72   O     O_3   0.250000 0.750000 0.750000 -0.541589
O73   O     O_R   0.280360 0.219640 0.134190 -0.614120
O74   O     O_R   0.780360 0.280360 0.865810 -0.575275
O75   O     O_R   0.219640 0.719640 0.134190 -0.575276
O76   O     O_R   0.719640 0.219640 0.134190 -0.575275
O77   O     O_R   0.280360 0.780360 0.865810 -0.575271
O78   O     O_R   0.780360 0.719640 0.134190 -0.614120
O79   O     O_R   0.219640 0.280360 0.865810 -0.613735
O80   O     O_R   0.280360 0.780360 0.134190 -0.572777
O81   O     O_R   0.719640 0.219640 0.865810 -0.572782
O82   O     O_R   0.219640 0.280360 0.134190 -0.613731
O83   O     O_3   0.750000 0.250000 0.250000 -0.541589
O84   O     O_R   0.780360 0.719640 0.865810 -0.614119
O85   O     O_R   0.219640 0.634190 0.219640 -0.584296
O86   O     O_R   0.780360 0.365810 0.780360 -0.607144
O87   O     O_R   0.219640 0.634190 0.780360 -0.621713
O88   O     O_R   0.780360 0.365810 0.219640 -0.602196
O89   O     O_R   0.780360 0.634190 0.780360 -0.604657
O90   O     O_R   0.219640 0.365810 0.219640 -0.598734
O91   O     O_R   0.780360 0.634190 0.219640 -0.560744
O92   O     O_R   0.219640 0.365810 0.780360 -0.565262
O93   O     O_R   0.634190 0.780360 0.780360 -0.598736
O94   O     O_R   0.719640 0.634190 0.719640 -0.584333
O95   O     O_R   0.365810 0.219640 0.219640 -0.604651
O96   O     O_R   0.634190 0.219640 0.780360 -0.602197
O97   O     O_R   0.365810 0.780360 0.219640 -0.621706
O98   O     O_R   0.634190 0.219640 0.219640 -0.607130
O99   O     O_R   0.365810 0.780360 0.780360 -0.584298
O100  O     O_R   0.634190 0.780360 0.219640 -0.565255
O101  O     O_R   0.365810 0.219640 0.780360 -0.560737
O102  O     O_R   0.780360 0.219640 0.365810 -0.614123
O103  O     O_R   0.219640 0.780360 0.634190 -0.613719
O104  O     O_R   0.219640 0.219640 0.365810 -0.572780
Zn1   Zn    Zn3+2 0.706630 0.793370 0.793370 1.100161
Zn2   Zn    Zn3+2 0.293370 0.793370 0.793370 1.135214
Zn3   Zn    Zn3+2 0.793370 0.206630 0.706630 1.103563
Zn4   Zn    Zn3+2 0.206630 0.793370 0.293370 1.100159
Zn5   Zn    Zn3+2 0.293370 0.206630 0.793370 1.103572
Zn6   Zn    Zn3+2 0.706630 0.793370 0.206630 1.100160
Zn7   Zn    Zn3+2 0.206630 0.206630 0.293370 1.122607
Zn8   Zn    Zn3+2 0.793370 0.793370 0.706630 1.122608
Zn9   Zn    Zn3+2 0.793370 0.706630 0.206630 1.103562
Zn10  Zn    Zn3+2 0.206630 0.293370 0.793370 1.100161
Zn11  Zn    Zn3+2 0.793370 0.293370 0.793370 1.135225
Zn12  Zn    Zn3+2 0.293370 0.206630 0.206630 1.103562
Zn13  Zn    Zn3+2 0.206630 0.706630 0.206630 1.135231
Zn14  Zn    Zn3+2 0.206630 0.293370 0.206630 1.100162
Zn15  Zn    Zn3+2 0.793370 0.706630 0.793370 1.103574
Zn16  Zn    Zn3+2 0.206630 0.706630 0.793370 1.122594
Zn17  Zn    Zn3+2 0.793370 0.293370 0.206630 1.122609
Zn18  Zn    Zn3+2 0.706630 0.293370 0.293370 1.100159
Zn19  Zn    Zn3+2 0.293370 0.706630 0.706630 1.103566
Zn20  Zn    Zn3+2 0.293370 0.293370 0.293370 1.135232
Zn21  Zn    Zn3+2 0.706630 0.706630 0.706630 1.135223
Zn22  Zn    Zn3+2 0.293370 0.293370 0.706630 1.122614
Zn23  Zn    Zn3+2 0.793370 0.793370 0.293370 1.135232
Zn24  Zn    Zn3+2 0.706630 0.706630 0.293370 1.122610
Zn25  Zn    Zn3+2 0.706630 0.293370 0.706630 1.100167
Zn26  Zn    Zn3+2 0.293370 0.706630 0.293370 1.103563
Zn27  Zn    Zn3+2 0.206630 0.206630 0.706630 1.135226
Zn28  Zn    Zn3+2 0.293370 0.793370 0.206630 1.122610
Zn29  Zn    Zn3+2 0.706630 0.206630 0.793370 1.122601
Zn30  Zn    Zn3+2 0.206630 0.793370 0.706630 1.100169
Zn31  Zn    Zn3+2 0.793370 0.206630 0.293370 1.103564
Zn32  Zn    Zn3+2 0.706630 0.206630 0.206630 1.135233

loop_
_geom_bond_atom_site_label_1
_geom_bond_atom_site_label_2
_ccdc_geom_bond_type
C85   H46   S    
C91   C368  A    
C174  C333  A    
O10   Zn26  S    
C97   C375  A    
C82   C94   A    
C200  C359  A    
C71   H96   S    
C239  C249  A    
C225  C237  A    
C343  Cl5   S    
O83   Zn31  S    
C268  O60   A    
C51   Cl96  S    
C197  C362  A    
C348  Cl10  S    
C179  C313  S    
O87   Zn16  S    
C161  C346  A    
C47   C261  A    
C103  H63   S    
C31   Cl76  S    
C46   C274  S    
C218  C316  A    
C101  C282  S    
C361  Cl24  S    
C83   H57   S    
C363  O88   A    
C246  O45   A    
C143  H67   S    
C176  C283  A    
C120  H38   S    
C69   H74   S    
C18   C125  A    
C78   C356  A    
C43   C264  A    
C81   C95   A    
C312  O55   A    
C98   C114  A    
O78   Zn9   S    
C151  H17   S    
C138  C145  A    
C108  H53   S    
C191  C369  A    
O98   Zn32  S    
C20   Cl65  S    
C201  C309  S    
C97   H29   S    
C16   C122  A    
C219  C376  A    
C353  Cl15  S    
C330  O10   A    
O93   Zn1   S    
C347  Cl9   S    
O41   Zn4   S    
O62   Zn27  S    
C236  C316  A    
C223  O8    A    
C249  C266  A    
C298  C321  S    
O56   Zn30  S    
C191  C198  A    
C198  C305  A    
O14   Zn18  S    
C37   C143  A    
C15   Cl60  S    
C201  O41   A    
C171  C277  A    
C97   C105  A    
C90   O24   A    
C244  C280  A    
C112  O90   A    
O85   Zn13  S    
C8    Cl53  S    
C290  C297  S    
O55   Zn11  S    
C185  C195  A    
C377  Cl39  S    
C51   C256  A    
C208  C294  A    
C23   C225  A    
C203  C213  A    
O6    Zn23  S    
C4    C208  A    
C261  C285  A    
C146  C269  S    
C178  C285  A    
O61   Zn11  S    
C21   C227  A    
C5    Cl50  S    
C207  C217  A    
C217  C378  A    
C163  C270  A    
C60   C337  A    
C155  H13   S    
C32   C139  A    
C211  C375  A    
C126  H19   S    
C246  C316  S    
C47   C153  A    
C38   C245  A    
C23   C130  A    
C292  C312  S    
C26   C249  A    
C123  H43   S    
C125  H42   S    
C5    C207  A    
C346  Cl8   S    
C52   H80   S    
C283  C363  S    
O3    Zn8   S    
O44   Zn5   S    
O72   Zn16  S    
C233  C292  A    
C159  C339  A    
O39   Zn22  S    
C30   Cl75  S    
C19   C229  A    
C178  C182  A    
C187  C294  A    
C20   C127  A    
C124  O102  A    
O1    Zn21  S    
C70   H95   S    
C256  C264  A    
C244  C252  A    
C321  O79   A    
C28   C134  A    
C363  O13   A    
C307  C328  S    
C165  C342  A    
C67   C345  A    
C45   C152  A    
C7    C114  A    
C247  C250  A    
C14   Cl59  S    
C176  C184  A    
C174  C281  A    
C48   C260  A    
C91   H36   S    
C42   C241  A    
C40   C147  A    
C9    C116  A    
C295  C323  S    
C49   C155  A    
C104  C381  A    
C185  C366  A    
O17   Zn12  S    
C61   H71   S    
C243  C253  A    
C154  H11   S    
C179  O33   A    
C62   H72   S    
C330  O85   A    
C63   H77   S    
O96   Zn29  S    
C68   C280  S    
O54   Zn13  S    
C75   H92   S    
C37   C247  A    
C284  C352  S    
C19   Cl64  S    
C268  O51   A    
C88   C366  A    
C168  C311  S    
C367  Cl29  S    
C325  O71   A    
C308  C327  S    
C210  C214  A    
O4    Zn4   S    
C257  O49   A    
C195  C356  A    
C56   C66   A    
C64   C342  A    
C8    C231  A    
O103  Zn30  S    
C16   C232  A    
C141  H1    S    
C33   C250  A    
C365  Cl27  S    
C230  C313  A    
C366  Cl28  S    
C359  Cl21  S    
C17   C221  A    
C380  Cl42  S    
C137  H5    S    
C52   C329  A    
C235  O38   A    
O46   Zn7   S    
C98   H59   S    
C102  C109  A    
C319  O9    A    
C166  C340  A    
C181  C350  A    
C157  O3    A    
C242  C282  A    
C104  C107  A    
C83   C93   A    
C165  C171  A    
C4    C109  A    
C54   H86   S    
C34   C141  A    
C160  C266  A    
C165  C272  A    
C306  C320  S    
C6    C111  A    
C140  C143  A    
C156  H9    S    
C12   Cl58  S    
C44   C263  A    
C79   O23   A    
O45   Zn8   S    
C137  C147  A    
C68   O97   A    
O83   Zn17  S    
O50   Zn4   S    
C26   Cl71  S    
O73   Zn12  S    
C187  C202  A    
C209  C215  A    
C368  Cl30  S    
C78   H65   S    
C266  C374  S    
C72   C349  A    
C73   C350  A    
O30   Zn20  S    
C214  C314  A    
O59   Zn14  S    
C223  O91   A    
C299  C322  S    
C45   Cl91  S    
C89   H37   S    
C5    C110  A    
C188  C200  A    
O101  Zn5   S    
C69   C346  A    
C323  O77   A    
C226  C236  A    
C335  Cl56  S    
O1    Zn15  S    
C144  H78   S    
C189  C370  A    
C186  C293  A    
C101  O6    A    
C36   C142  A    
C2    O15   A    
C358  Cl20  S    
C232  C293  A    
C11   Cl57  S    
C53   C61   A    
O57   Zn31  S    
C27   Cl72  S    
C87   H61   S    
C356  Cl18  S    
C221  C230  A    
C87   C365  A    
C196  C364  A    
C213  C298  A    
O28   Zn23  S    
C173  C280  A    
C57   C278  S    
C189  C199  A    
C36   C239  A    
C324  O70   A    
O61   Zn29  S    
O18   Zn22  S    
C70   C77   A    
C41   Cl86  S    
O70   Zn17  S    
C112  O2    A    
O17   Zn14  S    
C338  Cl89  S    
C72   C75   A    
O61   Zn3   S    
C237  C306  A    
C66   H76   S    
C256  C289  A    
C147  H56   S    
C100  C378  A    
C192  C298  A    
C149  H34   S    
C227  C309  A    
C140  H4    S    
C99   H58   S    
C72   H93   S    
C152  H14   S    
C183  C289  A    
C180  C351  A    
O94   Zn21  S    
C234  C317  A    
C182  C349  A    
C215  C315  A    
C248  C265  A    
C50   C258  A    
O28   Zn6   S    
C32   Cl77  S    
C134  C149  A    
O67   Zn5   S    
C59   H82   S    
C9    C230  A    
C130  H32   S    
C35   O93   A    
O81   Zn29  S    
C190  O42   A    
C79   C272  S    
C167  C331  A    
C334  Cl45  S    
C12   C119  A    
C58   C65   A    
C86   H44   S    
C362  Cl25  S    
C99   C111  A    
C25   C222  A    
O68   Zn6   S    
C21   C128  A    
C136  H8    S    
C194  C357  A    
C228  C233  A    
C136  C148  A    
C170  C337  A    
C105  C382  A    
C110  H33   S    
C241  C255  A    
O11   Zn25  S    
C106  H25   S    
O58   Zn15  S    
C262  C286  A    
C164  C271  A    
C107  C384  A    
C166  C170  A    
C61   C338  A    
O72   Zn19  S    
C55   C333  A    
C131  H31   S    
C164  C172  A    
C48   Cl93  S    
C293  C301  S    
C163  C173  A    
C84   H55   S    
C92   H70   S    
C34   C240  A    
C179  O43   A    
C47   Cl92  S    
C48   C154  A    
C205  C219  A    
C51   C158  A    
C100  H21   S    
C220  C231  A    
C354  Cl16  S    
C122  H27   S    
C76   H88   S    
C350  Cl13  S    
O24   Zn25  S    
C57   O96   A    
C204  C303  A    
O23   Zn26  S    
C304  C326  S    
O88   Zn17  S    
C121  H28   S    
O75   Zn13  S    
C2    O99   A    
C82   C359  A    
O80   Zn28  S    
C197  C304  A    
C38   Cl83  S    
C116  H47   S    
C340  Cl3   S    
C20   C228  A    
C240  C275  A    
O39   Zn10  S    
C207  C295  A    
C290  O53   A    
C142  H12   S    
C24   O101  A    
C268  C300  S    
C10   C117  A    
C52   C62   A    
C67   H73   S    
C64   H79   S    
C49   C259  A    
C210  C384  A    
C53   C331  A    
C127  H18   S    
C161  C267  A    
O84   Zn15  S    
C46   O95   A    
O90   Zn14  S    
C24   O18   A    
C119  C129  A    
C216  C308  A    
C81   C358  A    
O60   Zn23  S    
C355  Cl17  S    
C117  C131  A    
C218  C377  A    
C80   H64   S    
C83   C360  A    
O31   Zn21  S    
O36   Zn31  S    
O28   Zn24  S    
O33   Zn23  S    
C44   Cl90  S    
C257  O62   A    
C56   H84   S    
C113  C281  S    
C90   O5    A    
C115  H48   S    
C337  Cl78  S    
C35   C275  S    
C18   Cl63  S    
C84   C92   A    
C11   C118  A    
C76   C354  A    
O8    Zn24  S    
C53   H81   S    
C132  H89   S    
C109  H35   S    
O104  Zn7   S    
C318  O64   A    
C3    C209  A    
C162  C269  A    
C100  C110  A    
C305  C318  S    
O2    Zn20  S    
C68   O22   A    
C73   C74   A    
C222  C297  A    
C28   C255  A    
C75   C353  A    
C7    C205  A    
C320  O63   A    
C235  C317  S    
C1    C285  S    
C84   C361  A    
C162  C345  A    
C376  Cl38  S    
C193  C299  A    
C134  H7    S    
C318  O56   A    
C32   C251  A    
O50   Zn28  S    
C58   C335  A    
C245  C276  A    
C54   C332  A    
O17   Zn7   S    
C199  C306  A    
C145  H45   S    
C327  O81   A    
C121  C127  A    
C203  C383  A    
C331  Cl12  S    
C82   H40   S    
C71   C76   A    
C113  O7    A    
C224  O47   A    
C257  C302  S    
C102  H20   S    
C195  C302  A    
C169  C329  A    
C102  C379  A    
C229  C300  A    
O5    Zn3   S    
O79   Zn10  S    
C157  O31   A    
C42   C149  A    
O102  Zn31  S    
C303  C325  S    
C96   C106  A    
C226  C310  A    
O92   Zn10  S    
C74   C351  A    
C86   C364  A    
O66   Zn4   S    
C129  H51   S    
O64   Zn16  S    
C59   C336  A    
C7    Cl52  S    
C94   C371  A    
C118  H22   S    
C258  C291  A    
O100  Zn6   S    
C9    Cl54  S    
C175  C282  A    
C371  Cl33  S    
C204  C382  A    
C89   C367  A    
O17   Zn20  S    
O72   Zn30  S    
O34   Zn29  S    
C80   C357  A    
C221  C314  A    
O49   Zn10  S    
C245  C251  A    
C18   C220  A    
C373  Cl36  S    
C30   C137  A    
C160  C338  A    
O16   Zn24  S    
O83   Zn32  S    
O39   Zn27  S    
C146  O30   A    
C167  C274  A    
C186  C194  A    
C203  C304  A    
C93   C370  A    
C37   Cl82  S    
C254  C267  A    
C220  C315  A    
C192  C368  A    
C16   Cl61  S    
O82   Zn14  S    
C27   C133  A    
C3    Cl48  S    
C201  O35   A    
C260  C261  A    
C287  C330  S    
C332  Cl23  S    
C177  C183  A    
C107  H54   S    
O35   Zn28  S    
C184  C347  A    
O97   Zn28  S    
O1    Zn1   S    
C187  C372  A    
C301  O54   A    
C40   Cl85  S    
C116  C123  A    
C62   C339  A    
C349  Cl11  S    
C6    Cl51  S    
C190  C310  S    
O69   Zn16  S    
C55   C67   A    
C70   C347  A    
C152  C155  A    
O61   Zn25  S    
C4    Cl49  S    
C202  C358  A    
C124  O27   A    
C29   C254  A    
C369  Cl31  S    
C31   C138  A    
C259  C287  A    
C184  C291  A    
C370  Cl32  S    
O12   Zn19  S    
C339  Cl2   S    
C216  C379  A    
C22   C226  A    
C28   Cl73  S    
C194  C300  A    
O27   Zn18  S    
O26   Zn22  S    
C352  O12   A    
C14   C120  A    
O1    Zn8   S    
C228  C302  A    
C3    C108  A    
C11   C237  A    
C341  O11   A    
C320  O57   A    
C225  C296  A    
C180  C181  A    
C78   C88   A    
C333  Cl34  S    
C227  C234  A    
C55   H87   S    
C341  O86   A    
C128  H52   S    
C384  Cl47  S    
C42   Cl87  S    
C150  C158  A    
C279  O52   A    
C135  C277  S    
C38   C144  A    
O19   Zn21  S    
C328  O75   A    
C119  H39   S    
C246  O40   A    
C86   C89   A    
C224  C315  S    
C205  C309  A    
C120  C128  A    
C21   Cl66  S    
C229  C232  A    
O50   Zn13  S    
C163  C344  A    
C36   Cl81  S    
C19   C126  A    
C133  C141  A    
C312  O65   A    
C49   Cl94  S    
C99   C377  A    
O47   Zn2   S    
O76   Zn32  S    
C344  Cl6   S    
C301  O66   A    
C27   C248  A    
C193  C196  A    
C252  C270  A    
C212  O48   A    
C54   C69   A    
C253  C271  A    
C58   H85   S    
C161  C175  A    
C43   Cl88  S    
C204  C211  A    
O77   Zn2   S    
O63   Zn17  S    
C31   C252  A    
C65   C343  A    
C327  O74   A    
O71   Zn1   S    
C26   C132  A    
C180  C286  A    
C381  Cl43  S    
C181  C287  A    
C40   C243  A    
C324  O76   A    
C153  H15   S    
C182  C288  A    
C138  H6    S    
C29   C136  A    
C364  Cl26  S    
C260  C288  A    
C351  Cl14  S    
C290  O58   A    
C22   C129  A    
C240  C248  A    
C176  C355  A    
C135  O103  A    
C106  C383  A    
O48   Zn32  S    
C148  H23   S    
C172  C278  A    
O91   Zn9   S    
C43   C150  A    
O86   Zn11  S    
C206  C310  A    
C171  C336  A    
C213  C373  A    
C247  C277  A    
C345  Cl7   S    
C223  C291  S    
O38   Zn12  S    
O42   Zn3   S    
C372  Cl35  S    
C212  C314  S    
C258  C263  A    
C169  C275  A    
C250  C272  A    
O95   Zn12  S    
C168  O44   A    
C259  C262  A    
C170  C276  A    
C85   C91   A    
C93   H69   S    
C224  O37   A    
C206  C218  A    
C41   C148  A    
C59   C64   A    
O15   Zn19  S    
C168  O32   A    
C60   C63   A    
C118  C130  A    
C1    O94   A    
C80   C87   A    
C135  O29   A    
C175  C332  A    
C191  C297  A    
C103  C380  A    
C33   C140  A    
C360  Cl22  S    
C279  C296  S    
C212  O36   A    
O39   Zn5   S    
C263  C283  A    
O72   Zn2   S    
C117  H24   S    
C328  O80   A    
O99   Zn2   S    
C23   Cl69  S    
C33   Cl79  S    
C188  C371  A    
C29   Cl74  S    
C177  C284  A    
C8    C115  A    
C321  O67   A    
C17   C123  A    
C382  Cl44  S    
C374  O98   A    
O89   Zn15  S    
C50   C156  A    
C199  C360  A    
C98   C376  A    
C103  C108  A    
C322  O78   A    
C17   Cl62  S    
C186  C365  A    
C85   C362  A    
C375  Cl37  S    
C101  O25   A    
O9    Zn22  S    
C63   C340  A    
C189  C296  A    
C383  Cl46  S    
C13   O16   A    
C96   H30   S    
C208  C216  A    
C158  H10   S    
O13   Zn18  S    
C159  C169  A    
C39   C145  A    
C185  C292  A    
C112  C286  S    
C65   H75   S    
O74   Zn11  S    
C243  C278  A    
C374  O14   A    
C196  C303  A    
C77   C355  A    
O32   Zn27  S    
O83   Zn18  S    
C132  C142  A    
C215  C380  A    
C157  C267  S    
C235  O46   A    
C329  Cl1   S    
C30   C253  A    
C44   C151  A    
C378  Cl40  S    
C79   O4    A    
C24   C271  S    
O65   Zn3   S    
C113  O26   A    
C202  C308  A    
O28   Zn9   S    
C325  O84   A    
C35   O19   A    
O37   Zn30  S    
C193  C367  A    
C6    C206  A    
C238  C305  A    
C177  C354  A    
C192  C197  A    
C2    C265  S    
C222  C238  A    
C150  H16   S    
C104  H62   S    
C214  C381  A    
C95   H49   S    
C122  C126  A    
C166  C273  A    
C173  C334  A    
O29   Zn19  S    
C219  C317  A    
C139  C144  A    
O7    Zn27  S    
C73   H94   S    
C74   H91   S    
C289  C319  S    
C342  Cl4   S    
C15   C233  A    
C326  O73   A    
O51   Zn9   S    
C1    O89   A    
C77   H90   S    
O50   Zn26  S    
C160  C167  A    
O53   Zn8   S    
C323  O69   A    
C294  C324  S    
C105  H26   S    
C10   C238  A    
C39   Cl84  S    
C95   C372  A    
C66   C344  A    
C94   H50   S    
C242  C254  A    
C231  C311  A    
C209  C311  A    
C25   C131  A    
C14   C234  A    
C56   C334  A    
C13   O100  A    
C139  H3    S    
C39   C244  A    
C255  C269  A    
C12   C236  A    
C336  Cl67  S    
C146  O104  A    
C357  Cl19  S    
C25   Cl70  S    
C15   C121  A    
O52   Zn7   S    
C71   C348  A    
C251  C273  A    
C241  C281  A    
C211  C299  A    
C319  O92   A    
C279  O59   A    
C183  C348  A    
C326  O82   A    
O43   Zn6   S    
C159  C265  A    
C92   C369  A    
C115  C125  A    
C41   C242  A    
C164  C343  A    
C190  O34   A    
C13   C270  S    
O22   Zn26  S    
C114  H66   S    
C81   H41   S    
C10   Cl55  S    
C124  C276  S    
O21   Zn25  S    
C45   C262  A    
C264  C284  A    
C288  C341  S    
C88   H60   S    
O25   Zn24  S    
C57   O21   A    
C90   C273  S    
C322  O68   A    
C217  C307  A    
C50   Cl95  S    
C188  C295  A    
O20   Zn20  S    
C210  C313  A    
C151  C156  A    
C96   C373  A    
C133  H2    S    
C379  Cl41  S    
C239  C274  A    
C22   Cl68  S    
C162  C174  A    
C178  C353  A    
C200  C307  A    
C34   Cl80  S    
C153  C154  A    
C46   O20   A    
C352  O87   A    
C172  C335  A    
C111  H68   S    
O40   Zn1   S    
C60   H83   S    
C198  C361  A    
