data_mof_unit_36388.cif
_audit_creation_date              2012-12-10T16:48:04-0500
_audit_creation_method            fapswitch 2.2
_symmetry_space_group_name_H-M    P1
_symmetry_Int_Tables_number       1
_space_group_crystal_system       triclinic
_cell_length_a                    15.842605
_cell_length_b                    8.750065
_cell_length_c                    7.447812
_cell_angle_alpha                 102.979253
_cell_angle_beta                  94.306545
_cell_angle_gamma                 92.436146
_cell_volume                      1001.35173885

loop_
_atom_site_label
_atom_site_type_symbol
_atom_type_description
_atom_site_fract_x
_atom_site_fract_y
_atom_site_fract_z
_atom_type_partial_charge
C1    C     C_R   0.493159 0.200105 0.453828 0.803355
C2    C     C_3   0.978207 0.620325 0.637216 -0.298753
C3    C     C_1   0.250620 0.501063 0.505858 -0.189537
C4    C     C_1   0.749508 0.500353 0.494472 -0.163788
C5    C     C_3   0.031970 0.482290 0.662126 0.595655
C6    C     C_3   0.968332 0.520900 0.339048 0.595217
C7    C     C_3   0.083493 0.501601 0.502434 0.040454
C8    C     C_3   0.916774 0.501549 0.498703 0.037846
C9    C     C_1   0.175118 0.501533 0.505273 -0.034955
C10   C     C_1   0.825077 0.500863 0.495454 -0.022889
C11   C     C_3   0.894330 0.415200 0.056119 -0.260525
C12   C     C_R   0.498782 0.799356 0.546507 0.800200
C13   C     C_3   0.106446 0.588068 0.944558 -0.288370
C14   C     C_3   0.377582 0.915386 0.209716 -0.289855
C15   C     C_3   0.409456 0.054940 0.807666 -0.254517
C16   C     C_R   0.340002 0.500041 0.502063 0.775624
C17   C     C_R   0.660030 0.500250 0.497993 0.823826
C18   C     C_2   0.482458 0.032455 0.427374 0.179023
C19   C     C_2   0.490789 0.965638 0.573926 0.175608
C20   C     C_3   0.969492 0.362777 0.526855 -0.281981
C21   C     C_3   0.030811 0.640401 0.474337 -0.282684
C22   C     C_3   0.022066 0.382850 0.363973 -0.302311
Cu1   Cu    Cu3+1 0.509330 0.517380 0.684380 0.991631
Cu2   Cu    Cu3+1 0.490670 0.482620 0.315620 0.978925
H1    H     H_    0.041271 0.286497 0.253099 0.158671
H2    H     H_    0.059517 0.675593 0.993031 0.187461
H3    H     H_    0.156114 0.640468 0.874878 0.144396
H4    H     H_    0.138022 0.557496 0.068803 0.192643
H5    H     H_    0.345788 0.026437 0.210217 0.127916
H6    H     H_    0.349698 0.854348 0.309527 0.136362
H7    H     H_    0.364294 0.836788 0.070329 0.191154
H8    H     H_    0.380105 0.934349 0.792485 0.137302
H9    H     H_    0.369198 0.121402 0.726795 0.113068
H10   H     H_    0.411065 0.115410 0.955452 0.213377
H11   H     H_    0.959031 0.716663 0.748141 0.161892
H12   H     H_    0.943619 0.250217 0.551892 0.157375
H13   H     H_    0.056731 0.752937 0.449315 0.151483
H14   H     H_    0.430858 0.385185 0.949695 0.223587
H15   H     H_    0.567841 0.618159 0.050716 0.245335
H16   H     H_    0.844694 0.362256 0.125362 0.154742
H17   H     H_    0.941488 0.328118 0.007736 0.183905
H18   H     H_    0.862810 0.445835 0.931860 0.195263
N1    N     N_2   0.476600 0.456420 0.038510 -0.201196
N2    N     N_2   0.523400 0.543580 0.961490 -0.189172
O1    O     O_R   0.506070 0.286130 0.619780 -0.556164
O2    O     O_3   0.066162 0.450218 0.829474 -0.582031
O3    O     O_3   0.466291 0.944287 0.247294 -0.544505
O4    O     O_3   0.493185 0.052498 0.754732 -0.539893
O5    O     O_R   0.493930 0.713870 0.380220 -0.561615
O6    O     O_R   0.490300 0.256770 0.308360 -0.556760
O7    O     O_R   0.509700 0.743230 0.691640 -0.546623
O8    O     O_R   0.386960 0.514660 0.655680 -0.598232
O9    O     O_R   0.613040 0.485340 0.344320 -0.578215
O10   O     O_R   0.371190 0.485310 0.344260 -0.592027
O11   O     O_R   0.628810 0.514690 0.655740 -0.573712
O12   O     O_3   0.934245 0.553130 0.171719 -0.582985

loop_
_geom_bond_atom_site_label_1
_geom_bond_atom_site_label_2
_ccdc_geom_bond_type
C2    H11   S    
N1    N2    D    
C13   H4    S    
Cu1   O11   S    
H15   N2    S    
Cu1   O1    S    
C7    C22   S    
C5    O2    S    
C17   O11   A    
C15   H10   S    
Cu1   O7    S    
C14   H7    S    
Cu1   Cu2   S    
C18   O3    S    
C2    C21   S    
C12   O5    A    
C1    C18   S    
C15   H8    S    
C5    C20   S    
C6    C21   S    
C1    O1    A    
Cu1   O8    S    
C8    C20   S    
C15   O4    S    
C14   H6    S    
C3    C9    T    
C4    C17   S    
C12   C19   S    
C20   C22   S    
C11   H17   S    
C7    C9    S    
Cu2   O6    S    
C13   O2    S    
C16   O10   A    
C13   H2    S    
C2    C5    S    
C11   O12   S    
C14   H5    S    
C4    C10   T    
C11   H16   S    
C6    C22   S    
C17   O9    A    
H14   N1    S    
C12   O7    A    
C21   H13   S    
C11   H18   S    
C8    C10   S    
C18   C19   D    
C1    O6    A    
Cu2   O5    S    
C5    C7    S    
Cu2   N1    S    
C19   O4    S    
C13   H3    S    
C6    C8    S    
Cu2   O9    S    
C7    C21   S    
C14   O3    S    
Cu2   O10   S    
C15   H9    S    
C2    C8    S    
C3    C16   S    
C16   O8    A    
C6    O12   S    
Cu1   N2    S    
C22   H1    S    
C20   H12   S    
