data_mof_unit_29828.cif
_audit_creation_date              2012-12-10T18:05:14-0500
_audit_creation_method            fapswitch 2.2
_symmetry_space_group_name_H-M    P1
_symmetry_Int_Tables_number       1
_space_group_crystal_system       triclinic
_cell_length_a                    9.74292
_cell_length_b                    10.849575
_cell_length_c                    16.951995
_cell_angle_alpha                 86.243326
_cell_angle_beta                  93.984461
_cell_angle_gamma                 89.895984
_cell_volume                      1783.72799379

loop_
_atom_site_label
_atom_site_type_symbol
_atom_type_description
_atom_site_fract_x
_atom_site_fract_y
_atom_site_fract_z
_atom_type_partial_charge
C1    C     C_R   0.499709 0.262883 0.498370 0.766257
C2    C     C_R   0.499991 0.737109 0.501640 0.765949
C3    C     C_R   0.375001 0.936527 0.500439 -0.188957
C4    C     C_R   0.622952 0.063299 0.499391 -0.190023
C5    C     C_R   0.499433 0.871208 0.503497 -0.003099
C6    C     C_R   0.498990 0.128762 0.496607 -0.003647
C7    C     C_R   0.081091 0.440652 0.560665 0.026454
C8    C     C_R   0.918849 0.562466 0.440584 0.028668
C9    C     C_R   0.933489 0.437906 0.559555 0.026811
C10   C     C_R   0.066110 0.558919 0.439223 0.025402
C11   C     C_R   0.517318 0.500758 0.650036 0.799224
C12   C     C_R   0.482673 0.499260 0.349971 0.798831
C13   C     C_R   0.526477 0.513721 0.734833 -0.042830
C14   C     C_R   0.473406 0.487070 0.265108 -0.041800
C15   C     C_R   0.534018 0.407613 0.786059 -0.261787
C16   C     C_R   0.471968 0.593605 0.214383 -0.260742
C17   C     C_R   0.531784 0.417167 0.867317 -0.196605
C18   C     C_R   0.473284 0.584476 0.133066 -0.198419
C19   C     C_R   0.520654 0.534210 0.898137 0.320444
C20   C     C_R   0.477397 0.467338 0.101628 0.321909
C21   C     C_R   0.517948 0.640413 0.846699 -0.175693
C22   C     C_R   0.474084 0.360895 0.152598 -0.176237
C23   C     C_R   0.519869 0.631320 0.765097 0.103143
C24   C     C_R   0.472768 0.369575 0.234283 0.102321
C25   C     C_R   0.374599 0.064377 0.494708 -0.190364
C26   C     C_R   0.623404 0.935708 0.505861 -0.190031
Cu1   Cu    Cu3+1 0.640660 0.500020 0.500000 0.944543
Cu2   Cu    Cu3+1 0.359340 0.499980 0.500000 0.943291
H1    H     H_    0.472346 0.684009 0.238024 0.165716
H2    H     H_    0.538231 0.317092 0.762845 0.165816
H3    H     H_    0.473427 0.668942 0.095361 0.157218
H4    H     H_    0.536376 0.333065 0.905489 0.157091
H5    H     H_    0.510935 0.730565 0.870175 0.148386
H6    H     H_    0.475824 0.270728 0.128696 0.148340
H7    H     H_    0.276989 0.112059 0.487907 0.135350
H8    H     H_    0.720762 0.888190 0.513446 0.138450
H9    H     H_    0.278105 0.889597 0.503257 0.135966
H10   H     H_    0.719507 0.110043 0.495955 0.139912
N1    N     N_2   0.510763 0.549465 0.979941 -0.262710
N2    N     N_2   0.486853 0.452146 0.019748 -0.262825
N3    N     N_R   0.852070 0.500030 0.499980 -0.200887
N4    N     N_R   0.147930 0.499970 0.500020 -0.200899
O1    O     O_R   0.618740 0.319660 0.500000 -0.583076
O2    O     O_R   0.381260 0.680340 0.500000 -0.588656
O3    O     O_R   0.381170 0.319630 0.500010 -0.588314
O4    O     O_R   0.618830 0.680370 0.499990 -0.582497
O5    O     O_R   0.631780 0.498870 0.613920 -0.579257
O6    O     O_R   0.368220 0.501130 0.386080 -0.572992
O7    O     O_R   0.394210 0.498840 0.613930 -0.572576
O8    O     O_R   0.605790 0.501160 0.386070 -0.578517
N5    N     N_3   0.512774 0.742184 0.714134 -0.605164
H11   H     H_    0.598903 0.744816 0.680561 0.212737
H12   H     H_    0.424745 0.738546 0.675431 0.217569
N6    N     N_3   0.473417 0.258327 0.284767 -0.604878
H13   H     H_    0.387291 0.259577 0.318232 0.215629
H14   H     H_    0.561607 0.257670 0.323626 0.214270
C27   C     C_R   0.158763 0.375275 0.629224 0.185908
C28   C     C_R   0.173106 0.430755 0.702059 -0.133333
C29   C     C_R   0.217631 0.360994 0.771352 -0.122796
C30   C     C_R   0.251390 0.236232 0.768339 -0.127149
C31   C     C_R   0.237936 0.180555 0.696239 -0.152948
C32   C     C_R   0.189039 0.249286 0.627397 -0.113676
H15   H     H_    0.144883 0.526785 0.705404 0.110469
H16   H     H_    0.226130 0.403759 0.827380 0.142540
H17   H     H_    0.286824 0.182564 0.821971 0.126701
H18   H     H_    0.260692 0.083187 0.694164 0.138290
H19   H     H_    0.165763 0.203182 0.573808 0.103686
C33   C     C_R   0.842126 0.643325 0.378707 0.187364
C34   C     C_R   0.814314 0.603099 0.302047 -0.114700
C35   C     C_R   0.772460 0.687532 0.239107 -0.143609
C36   C     C_R   0.754441 0.812049 0.252349 -0.129164
C37   C     C_R   0.784077 0.853175 0.327955 -0.140388
C38   C     C_R   0.831501 0.769596 0.390141 -0.136004
H20   H     H_    0.829969 0.507188 0.290665 0.117081
H21   H     H_    0.754414 0.656379 0.179964 0.145200
H22   H     H_    0.720786 0.877042 0.203667 0.127898
H23   H     H_    0.775687 0.950430 0.337672 0.134198
H24   H     H_    0.869474 0.803578 0.445917 0.096482
C39   C     C_R   0.871997 0.359475 0.622585 0.189011
C40   C     C_R   0.861034 0.403456 0.698156 -0.116175
C41   C     C_R   0.833394 0.322011 0.762372 -0.147681
C42   C     C_R   0.814174 0.196514 0.751598 -0.128480
C43   C     C_R   0.828065 0.151589 0.677226 -0.138420
C44   C     C_R   0.860650 0.232391 0.613737 -0.137460
H25   H     H_    0.878226 0.500139 0.707647 0.115263
H26   H     H_    0.827052 0.356269 0.820552 0.142273
H27   H     H_    0.791727 0.133757 0.801257 0.127217
H28   H     H_    0.818983 0.053630 0.669502 0.132008
H29   H     H_    0.887275 0.195742 0.559095 0.094434
C45   C     C_R   0.126656 0.621626 0.369699 0.185982
C46   C     C_R   0.155117 0.748147 0.368983 -0.113679
C47   C     C_R   0.187400 0.813762 0.299073 -0.151547
C48   C     C_R   0.186226 0.754197 0.228444 -0.127952
C49   C     C_R   0.154271 0.628719 0.227933 -0.126600
C50   C     C_R   0.125315 0.562369 0.298239 -0.135402
H30   H     H_    0.142647 0.796948 0.421294 0.101000
H31   H     H_    0.208723 0.911621 0.299153 0.136233
H32   H     H_    0.209150 0.805356 0.174019 0.126841
H33   H     H_    0.151978 0.582840 0.173061 0.138750
H34   H     H_    0.097736 0.465835 0.296798 0.110116

loop_
_geom_bond_atom_site_label_1
_geom_bond_atom_site_label_2
_ccdc_geom_bond_type
C48   C49   A    
C10   N4    A    
C11   O5    A    
C12   O6    A    
C1    O3    A    
C41   C42   A    
C45   C46   A    
C27   C32   A    
C2    O4    A    
C29   H16   S    
C37   H23   S    
C32   H19   S    
C19   C21   A    
C36   H22   S    
C20   N2    S    
C6    C25   A    
C21   H5    S    
C24   N6    S    
C42   H27   S    
C13   C23   A    
C15   C17   A    
C9    C39   S    
C7    N4    A    
C14   C24   A    
C46   H30   S    
C31   H18   S    
C1    O1    A    
C2    O2    A    
C33   C34   A    
C38   H24   S    
C35   C36   A    
C14   C16   A    
C41   H26   S    
Cu1   O8    S    
C43   H28   S    
C29   C30   A    
C34   C35   A    
C47   H31   S    
C4    C26   A    
C22   H6    S    
N6    H14   S    
Cu2   O3    S    
N5    H11   S    
C3    C25   A    
C8    N3    A    
C4    C6    A    
C46   C47   A    
C50   H34   S    
C40   C41   A    
C33   C38   A    
Cu2   O2    S    
C1    C6    S    
C30   C31   A    
N5    H12   S    
C40   H25   S    
C11   O7    A    
Cu2   O7    S    
Cu1   N3    S    
C23   N5    S    
C43   C44   A    
C34   H20   S    
C16   C18   A    
C10   C45   S    
C19   N1    S    
C25   H7    S    
Cu1   O4    S    
C26   H8    S    
C20   C22   A    
C30   H17   S    
C8    C33   S    
C49   C50   A    
C21   C23   A    
C22   C24   A    
C39   C40   A    
C2    C5    S    
C44   H29   S    
N1    N2    D    
C15   H2    S    
Cu1   O5    S    
C28   H15   S    
C7    C9    A    
N6    H13   S    
Cu2   O6    S    
C12   C14   S    
C37   C38   A    
C3    C5    A    
C45   C50   A    
C12   O8    A    
C9    N3    A    
C13   C15   A    
C28   C29   A    
C36   C37   A    
C11   C13   S    
C16   H1    S    
C27   C28   A    
C39   C44   A    
C49   H33   S    
Cu2   N4    S    
C47   C48   A    
C17   C19   A    
C18   C20   A    
C31   C32   A    
C5    C26   A    
Cu1   O1    S    
C3    H9    S    
C8    C10   A    
C42   C43   A    
Cu1   Cu2   S    
C17   H4    S    
C35   H21   S    
C18   H3    S    
C4    H10   S    
C48   H32   S    
C7    C27   S    
