data_mof_unit_65883.cif
_audit_creation_date              2012-12-10T18:45:30-0500
_audit_creation_method            fapswitch 2.2
_symmetry_space_group_name_H-M    P1
_symmetry_Int_Tables_number       1
_space_group_crystal_system       triclinic
_cell_length_a                    44.983446
_cell_length_b                    45.06615
_cell_length_c                    35.727904
_cell_angle_alpha                 90.078509
_cell_angle_beta                  128.849411
_cell_angle_gamma                 89.998263
_cell_volume                      56407.1948803

loop_
_atom_site_label
_atom_site_type_symbol
_atom_type_description
_atom_site_fract_x
_atom_site_fract_y
_atom_site_fract_z
_atom_type_partial_charge
Br1   Br    Br    0.660400 0.669433 0.591315 -0.453817
Br2   Br    Br    0.181860 0.815122 0.358152 -0.384858
Br3   Br    Br    0.318478 0.315181 0.642041 -0.387689
Br4   Br    Br    0.681746 0.315116 0.358146 -0.386509
Br5   Br    Br    0.325290 0.660321 0.397888 -0.456122
Br6   Br    Br    0.179151 0.157549 0.604833 -0.457361
Br7   Br    Br    0.822246 0.158214 0.396047 -0.457029
Br8   Br    Br    0.875966 0.811512 0.761924 -0.384768
Br9   Br    Br    0.124284 0.811281 0.238225 -0.384509
Br10  Br    Br    0.376010 0.311460 0.761971 -0.385510
Br11  Br    Br    0.624161 0.311272 0.238213 -0.385153
Br12  Br    Br    0.818412 0.815199 0.641995 -0.386333
C1    C     C_R   0.709293 0.709328 0.499984 0.903378
C2    C     C_R   0.051647 0.746004 0.101749 -0.040227
C3    C     C_3   0.853331 0.138207 0.457629 0.272548
C4    C     C_3   0.596613 0.637393 0.496615 -0.209934
C5    C     C_3   0.398660 0.637252 0.494169 -0.208789
C6    C     C_3   0.103135 0.137053 0.508987 -0.209850
C7    C     C_3   0.897478 0.137100 0.492094 -0.209556
C8    C     C_1   0.668377 0.668300 0.499943 0.017526
C9    C     C_1   0.331698 0.668299 0.500215 0.016908
C10   C     C_1   0.168334 0.168301 0.499854 0.017650
C11   C     C_1   0.831706 0.168299 0.500232 0.016704
C12   C     C_1   0.581827 0.581338 0.500030 0.099808
C13   C     C_R   0.448169 0.246092 0.898229 -0.040252
C14   C     C_1   0.418297 0.581324 0.500248 0.100058
C15   C     C_1   0.081793 0.081327 0.499938 0.099871
C16   C     C_1   0.918301 0.081321 0.500264 0.099716
C17   C     C_R   0.540781 0.751060 0.025586 0.059776
C18   C     C_R   0.513947 0.755138 0.975146 0.059853
C19   C     C_R   0.040817 0.250747 0.025603 0.059785
C20   C     C_R   0.014024 0.254838 0.975162 0.059819
C21   C     C_R   0.528361 0.740213 0.050838 0.076231
C22   C     C_R   0.476414 0.744035 0.949569 0.075585
C23   C     C_R   0.028294 0.240130 0.050852 0.076224
C24   C     C_R   0.551646 0.245961 0.101750 -0.040223
C25   C     C_R   0.976389 0.243964 0.949581 0.075579
C26   C     C_R   0.490078 0.730547 0.025538 0.045947
C27   C     C_R   0.464679 0.730751 0.974476 0.046143
C28   C     C_R   0.989923 0.230699 0.025548 0.045921
C29   C     C_R   0.964530 0.230901 0.974486 0.046101
C30   C     C_R   0.580017 0.756692 0.051403 -0.285492
C31   C     C_R   0.523109 0.771291 0.949824 -0.283113
C32   C     C_R   0.080103 0.256139 0.051427 -0.285558
C33   C     C_R   0.023338 0.270789 0.949842 -0.283272
C34   C     C_R   0.606163 0.754470 0.101365 -0.004589
C35   C     C_R   0.962256 0.743566 0.872459 -0.024169
C36   C     C_R   0.497102 0.774891 0.900077 -0.007911
C37   C     C_R   0.106224 0.253911 0.101390 -0.004630
C38   C     C_R   0.997366 0.274403 0.900095 -0.007709
C39   C     C_R   0.703322 0.750351 0.405763 0.835073
C40   C     C_R   0.296582 0.750492 0.594166 0.832881
C41   C     C_R   0.203320 0.250348 0.405764 0.835059
C42   C     C_R   0.796581 0.250495 0.594170 0.833376
C43   C     C_R   0.592846 0.748119 0.127450 -0.046044
C44   C     C_R   0.461166 0.760462 0.873485 -0.046167
C45   C     C_R   0.092845 0.247805 0.127469 -0.046142
C46   C     C_R   0.037542 0.743656 0.127495 -0.024198
C47   C     C_R   0.961294 0.260189 0.873498 -0.046195
C48   C     C_R   0.554259 0.739530 0.101846 -0.068057
C49   C     C_R   0.450441 0.746097 0.898656 -0.067065
C50   C     C_R   0.054181 0.239447 0.101861 -0.068056
C51   C     C_R   0.950437 0.246032 0.898667 -0.067092
C52   C     C_R   0.541324 0.730650 0.127275 -0.019769
C53   C     C_R   0.413645 0.733665 0.872880 -0.018947
C54   C     C_R   0.041163 0.230799 0.127287 -0.019735
C55   C     C_R   0.913528 0.233820 0.872888 -0.019095
C56   C     C_R   0.503559 0.721463 0.102188 -0.121219
C57   C     C_R   0.462233 0.243532 0.872452 -0.024065
C58   C     C_R   0.402785 0.719732 0.897530 -0.122917
C59   C     C_R   0.003315 0.221841 0.102195 -0.121263
C60   C     C_R   0.902539 0.220097 0.897536 -0.122800
C61   C     C_R   0.478396 0.721382 0.052360 -0.202636
C62   C     C_R   0.427753 0.718208 0.947283 -0.203530
C63   C     C_R   0.978156 0.221762 0.052366 -0.202617
C64   C     C_R   0.927491 0.218572 0.947289 -0.203492
C65   C     C_R   0.616011 0.750842 0.177977 0.542809
C66   C     C_R   0.435704 0.759116 0.822713 0.539656
C67   C     C_R   0.116027 0.250554 0.177995 0.542929
C68   C     C_R   0.537550 0.243583 0.127503 -0.024083
C69   C     C_R   0.935814 0.258855 0.822724 0.539565
C70   C     C_R   0.566308 0.731779 0.177511 0.517901
C71   C     C_R   0.388367 0.735284 0.822693 0.515704
C72   C     C_R   0.066154 0.231931 0.177523 0.517791
C73   C     C_R   0.888267 0.235441 0.822701 0.515795
C74   C     C_R   0.643036 0.719275 0.281002 -0.084882
C75   C     C_R   0.360357 0.722305 0.720570 -0.085973
C76   C     C_R   0.142922 0.219231 0.281026 -0.084892
C77   C     C_R   0.860197 0.222281 0.720570 -0.086086
C78   C     C_R   0.667871 0.721663 0.330758 -0.191359
C79   C     C_R   0.001361 0.740222 0.897111 -0.120437
C80   C     C_R   0.334788 0.723379 0.670670 -0.196083
C81   C     C_R   0.167777 0.221633 0.330781 -0.191494
C82   C     C_R   0.834629 0.223370 0.670671 -0.195878
C83   C     C_R   0.676924 0.749560 0.353086 -0.121748
C84   C     C_R   0.322456 0.750752 0.646754 -0.117485
C85   C     C_R   0.176907 0.249542 0.353089 -0.121776
C86   C     C_R   0.822462 0.250750 0.646765 -0.117727
C87   C     C_R   0.960010 0.746820 0.975147 0.005389
C88   C     C_R   0.039840 0.746489 0.024838 0.005448
C89   C     C_R   0.459997 0.246714 0.975153 0.005487
C90   C     C_R   0.998389 0.740621 0.102811 -0.120095
C91   C     C_R   0.539827 0.246466 0.024832 0.005498
C92   C     C_R   0.660835 0.775596 0.324691 -0.059169
C93   C     C_R   0.335357 0.777555 0.673472 -0.064579
C94   C     C_R   0.160881 0.275576 0.324677 -0.058896
C95   C     C_R   0.835535 0.277549 0.673504 -0.064246
C96   C     C_R   0.635504 0.772699 0.274444 -0.061706
C97   C     C_R   0.361224 0.776035 0.723801 -0.051401
C98   C     C_R   0.135538 0.272667 0.274432 -0.062056
C99   C     C_R   0.861411 0.276012 0.723832 -0.051492
C100  C     C_R   0.626909 0.744737 0.252797 0.258267
C101  C     C_R   0.501342 0.240224 0.897098 -0.120178
C102  C     C_R   0.373694 0.748600 0.747264 0.246510
C103  C     C_R   0.126861 0.244692 0.252807 0.258479
C104  C     C_R   0.873708 0.248568 0.747278 0.246693
C105  C     C_3   0.911024 0.874606 0.542738 -0.225485
C106  C     C_3   0.089184 0.874982 0.456674 -0.224994
C107  C     C_3   0.411424 0.373817 0.541948 -0.225965
C108  C     C_3   0.588114 0.372805 0.458912 -0.226104
C109  C     C_3   0.873838 0.880104 0.535928 -0.156948
C110  C     C_3   0.126876 0.880414 0.464670 -0.156509
C111  C     C_3   0.375085 0.379426 0.537059 -0.156787
C112  C     C_R   0.290705 0.709329 0.500012 0.903390
C113  C     C_R   0.498402 0.240505 0.102827 -0.120127
C114  C     C_3   0.623409 0.378503 0.461541 -0.155765
C115  C     C_1   0.813032 0.812883 0.500078 -0.119215
C116  C     C_1   0.186963 0.812883 0.499908 -0.119282
C117  C     C_1   0.313029 0.312882 0.500069 -0.119236
C118  C     C_1   0.686973 0.312882 0.499929 -0.119244
C119  C     C_1   0.937135 0.937075 0.500059 -0.157955
C120  C     C_1   0.062786 0.937076 0.499781 -0.157797
C121  C     C_1   0.437135 0.437073 0.500053 -0.158109
C122  C     C_1   0.562788 0.437076 0.499784 -0.158141
C123  C     C_3   0.891554 0.848549 0.506893 0.024525
C124  C     C_R   0.026769 0.740358 0.946878 -0.202053
C125  C     C_3   0.107891 0.848614 0.491814 0.024801
C126  C     C_3   0.390699 0.348434 0.504949 0.024424
C127  C     C_3   0.610314 0.348350 0.497230 0.024789
C128  C     C_3   0.854947 0.854052 0.500251 0.167189
C129  C     C_3   0.144997 0.854053 0.499628 0.166955
C130  C     C_3   0.354931 0.354045 0.500203 0.167204
C131  C     C_3   0.645049 0.354048 0.499745 0.166872
C132  C     C_3   0.877142 0.869410 0.464441 -0.227514
C133  C     C_3   0.121993 0.869103 0.534643 -0.229206
C134  C     C_3   0.375865 0.370077 0.463224 -0.227236
C135  C     C_R   0.972985 0.740834 0.053046 -0.201987
C136  C     C_3   0.625549 0.371009 0.537959 -0.228634
C137  C     C_R   0.974097 0.745681 0.949237 0.086362
C138  C     C_R   0.025736 0.745597 0.050739 0.086404
C139  C     C_R   0.474081 0.245611 0.949236 0.086442
C140  C     C_R   0.525730 0.245542 0.050739 0.086427
C141  C     C_3   0.895909 0.895394 0.500185 0.176953
C142  C     C_3   0.103998 0.895396 0.499621 0.176881
C143  C     C_3   0.395898 0.395389 0.500152 0.177071
C144  C     C_3   0.604025 0.395394 0.499680 0.177137
C145  C     C_3   0.840028 0.874920 0.457795 -0.168829
C146  C     C_R   0.526754 0.240363 0.946865 -0.201901
C147  C     C_3   0.159612 0.874549 0.542475 -0.168998
C148  C     C_3   0.339602 0.375695 0.458500 -0.168858
C149  C     C_3   0.660763 0.376713 0.540423 -0.169267
C150  C     C_3   0.859209 0.901325 0.493461 -0.130121
C151  C     C_3   0.141203 0.901262 0.507530 -0.128898
C152  C     C_3   0.360047 0.401429 0.495348 -0.130101
C153  C     C_3   0.638830 0.401522 0.502225 -0.128854
C154  C     C_1   0.831939 0.831533 0.500153 0.022624
C155  C     C_1   0.168036 0.831534 0.499791 0.022944
C156  C     C_1   0.331931 0.331529 0.500129 0.022588
C157  C     C_R   0.472995 0.240707 0.053062 -0.201861
C158  C     C_1   0.668062 0.331531 0.499848 0.022953
C159  C     C_1   0.918468 0.918245 0.500115 -0.042666
C160  C     C_1   0.081435 0.918247 0.499685 -0.042439
C161  C     C_1   0.418464 0.418241 0.500098 -0.042801
C162  C     C_1   0.581444 0.418246 0.499706 -0.042717
C163  C     C_R   0.040653 0.959363 0.499939 0.898174
C164  C     C_R   0.959320 0.959363 0.500009 0.898086
C165  C     C_R   0.540654 0.459363 0.499939 0.898055
C166  C     C_R   0.459320 0.459363 0.500008 0.898073
C167  C     C_R   0.540628 0.540601 0.500000 0.887629
C168  C     C_R   0.883856 0.747873 0.822176 0.547134
C169  C     C_R   0.459398 0.540600 0.500054 0.887607
C170  C     C_R   0.040628 0.040600 0.499999 0.887581
C171  C     C_R   0.959398 0.040600 0.500054 0.887504
C172  C     C_R   0.014000 0.744188 0.973970 0.055270
C173  C     C_R   0.985813 0.744432 0.025991 0.055197
C174  C     C_R   0.513985 0.244158 0.973964 0.055253
C175  C     C_R   0.485810 0.244335 0.025999 0.055218
C176  C     C_R   0.920651 0.751577 0.949601 -0.179293
C177  C     C_R   0.079270 0.750917 0.050431 -0.179290
C178  C     C_R   0.420631 0.251427 0.949610 -0.179151
C179  C     C_R   0.115999 0.747373 0.177824 0.547525
C180  C     C_R   0.579250 0.250932 0.050417 -0.179215
C181  C     C_R   0.894968 0.753516 0.899465 -0.008296
C182  C     C_R   0.104981 0.752782 0.100584 -0.008228
C183  C     C_R   0.394941 0.253364 0.899474 -0.007987
C184  C     C_R   0.604962 0.252807 0.100569 -0.008093
C185  C     C_2   0.595818 0.586998 0.420519 0.424043
C186  C     C_2   0.416902 0.594919 0.589434 0.424487
C187  C     C_2   0.079358 0.097343 0.408450 0.425614
C188  C     C_2   0.919578 0.096754 0.591092 0.424015
C189  C     C_2   0.673260 0.592558 0.586995 0.469419
C190  C     C_R   0.383829 0.247772 0.822177 0.548081
C191  C     C_2   0.324683 0.584881 0.424002 0.467563
C192  C     C_2   0.175524 0.082891 0.571996 0.468374
C193  C     C_2   0.824578 0.083361 0.426889 0.467714
C194  C     C_2   0.647040 0.757127 0.123432 0.527663
C195  C     C_2   0.508347 0.795868 0.878969 0.530655
C196  C     C_2   0.147127 0.256292 0.123466 0.527628
C197  C     C_2   0.008812 0.295174 0.878992 0.530198
C198  C     C_2   0.855145 0.762406 0.876954 0.513620
C199  C     C_2   0.144939 0.761323 0.123171 0.513938
C200  C     C_2   0.355104 0.262206 0.876970 0.513744
C201  C     C_R   0.616000 0.247382 0.177819 0.547796
C202  C     C_2   0.644907 0.261388 0.123145 0.513834
C203  C     C_2   0.671696 0.805780 0.346308 0.436166
C204  C     C_2   0.320827 0.807001 0.649871 0.437043
C205  C     C_2   0.171815 0.305763 0.346281 0.435576
C206  C     C_2   0.821169 0.307018 0.649935 0.437303
C207  C     C_2   0.910530 0.819371 0.514490 0.409108
C208  C     C_2   0.088366 0.819509 0.482920 0.408006
C209  C     C_2   0.408721 0.319133 0.510383 0.408986
C210  C     C_2   0.593503 0.318949 0.494404 0.407124
C211  C     C_R   0.936815 0.744340 0.822285 0.557087
C212  C     C_R   0.209294 0.209328 0.499986 0.904274
C213  C     C_R   0.062989 0.744381 0.177676 0.557459
C214  C     C_R   0.436788 0.244307 0.822277 0.557343
C215  C     C_R   0.563000 0.244319 0.177684 0.557468
C216  C     C_R   0.859613 0.775822 0.723957 0.283125
C217  C     C_R   0.140412 0.775649 0.276102 0.282678
C218  C     C_R   0.359620 0.275781 0.723976 0.283058
C219  C     C_R   0.640365 0.275638 0.276098 0.282694
C220  C     C_R   0.834774 0.777083 0.673509 0.210675
C221  C     C_R   0.165278 0.776968 0.326553 0.210828
C222  C     C_R   0.334789 0.277057 0.673529 0.210320
C223  C     C_R   0.790705 0.209328 0.500012 0.903576
C224  C     C_R   0.665231 0.276961 0.326549 0.210321
C225  C     C_R   0.823765 0.750470 0.646804 -0.156268
C226  C     C_R   0.176151 0.750393 0.353191 -0.157387
C227  C     C_R   0.323748 0.250450 0.646804 -0.157558
C228  C     C_R   0.676159 0.250384 0.353192 -0.157640
C229  C     C_R   0.797452 0.750426 0.594217 0.935520
C230  C     C_R   0.202524 0.750403 0.405783 0.936525
C231  C     C_R   0.297448 0.250422 0.594217 0.936633
C232  C     C_R   0.702526 0.250400 0.405784 0.936185
C233  C     C_R   0.838221 0.723218 0.670636 -0.237886
C234  C     C_R   0.908406 0.749316 0.872984 -0.112867
C235  C     C_R   0.161508 0.723129 0.329281 -0.235487
C236  C     C_R   0.338157 0.223188 0.670615 -0.234736
C237  C     C_R   0.661578 0.223112 0.329291 -0.235192
C238  C     C_R   0.862706 0.722108 0.720476 -0.124736
C239  C     C_R   0.136984 0.721964 0.279436 -0.123022
C240  C     C_R   0.362634 0.222063 0.720455 -0.122404
C241  C     C_R   0.637055 0.221943 0.279446 -0.122701
C242  C     C_R   0.873264 0.748219 0.747151 0.205464
C243  C     C_R   0.126579 0.748033 0.252834 0.204799
C244  C     C_R   0.373232 0.248169 0.747149 0.204394
C245  C     C_R   0.091478 0.748842 0.127026 -0.112853
C246  C     C_R   0.626589 0.248015 0.252837 0.204636
C247  C     C_3   0.611244 0.606719 0.462884 0.032628
C248  C     C_3   0.394782 0.610413 0.541950 0.031876
C249  C     C_3   0.103498 0.111548 0.457126 0.031080
C250  C     C_3   0.896040 0.111269 0.542745 0.031991
C251  C     C_3   0.603087 0.640325 0.458832 -0.246927
C252  C     C_3   0.398109 0.643950 0.536440 -0.247153
C253  C     C_3   0.101874 0.144897 0.465637 -0.246909
C254  C     C_3   0.898183 0.144669 0.535124 -0.248012
C255  C     C_1   0.687054 0.687115 0.499949 -0.151799
C256  C     C_R   0.408380 0.249206 0.872987 -0.113047
C257  C     C_1   0.312982 0.687116 0.500124 -0.152512
C258  C     C_1   0.187034 0.187116 0.499910 -0.151952
C259  C     C_1   0.812985 0.187115 0.500131 -0.152679
C260  C     C_1   0.562932 0.562726 0.499991 -0.104155
C261  C     C_1   0.437148 0.562718 0.500186 -0.104003
C262  C     C_1   0.062930 0.062719 0.499973 -0.104120
C263  C     C_1   0.937147 0.062715 0.500189 -0.104276
C264  C     C_3   0.654322 0.612023 0.503542 -0.346734
C265  C     C_3   0.350717 0.612137 0.506363 -0.347398
C266  C     C_3   0.147598 0.112343 0.490719 -0.346510
C267  C     C_R   0.591471 0.248840 0.127020 -0.112912
C268  C     C_3   0.851935 0.112284 0.508519 -0.347209
C269  C     C_3   0.645864 0.645454 0.500013 0.116214
C270  C     C_3   0.354256 0.645445 0.500250 0.116294
C271  C     C_3   0.145792 0.145448 0.499853 0.116316
C272  C     C_3   0.854269 0.145444 0.500281 0.116603
C273  C     C_3   0.647480 0.609313 0.540776 -0.050598
C274  C     C_3   0.351639 0.605709 0.464553 -0.048966
C275  C     C_3   0.148491 0.104780 0.533641 -0.048962
C276  C     C_3   0.851599 0.104994 0.465927 -0.048681
C277  C     C_R   0.790715 0.790683 0.500012 0.901730
C278  C     C_R   0.948191 0.746164 0.898231 -0.040325
C279  C     C_R   0.209293 0.790683 0.500002 0.897667
C280  C     C_R   0.290715 0.290683 0.500013 0.901850
C281  C     C_R   0.709291 0.290683 0.499999 0.897687
C282  C     C_3   0.604817 0.603854 0.500124 0.114072
C283  C     C_3   0.395360 0.603836 0.500270 0.113844
C284  C     C_3   0.104708 0.103840 0.499875 0.114050
C285  C     C_3   0.895378 0.103833 0.500313 0.114155
C286  C     C_3   0.639683 0.642812 0.537456 0.272250
C287  C     C_3   0.354564 0.639071 0.458353 0.272248
C288  C     C_3   0.147283 0.137938 0.542823 0.272263
H1    H     H_    0.909458 0.755981 0.968327 0.179698
H2    H     H_    0.330937 0.602082 0.511445 0.166330
H3    H     H_    0.568637 0.318150 0.492815 0.062853
H4    H     H_    0.165951 0.102456 0.483150 0.166799
H5    H     H_    0.833138 0.102354 0.515330 0.166356
H6    H     H_    0.591457 0.761108 0.032922 0.138415
H7    H     H_    0.549752 0.783250 0.968666 0.138370
H8    H     H_    0.091589 0.260363 0.032951 0.138363
H9    H     H_    0.050092 0.282585 0.968685 0.138317
H10   H     H_    0.492999 0.714662 0.121024 0.195039
H11   H     H_    0.374829 0.709694 0.878386 0.194679
H12   H     H_    0.992691 0.215222 0.121028 0.195018
H13   H     H_    0.090534 0.755123 0.031750 0.179584
H14   H     H_    0.874492 0.210228 0.878389 0.194774
H15   H     H_    0.449534 0.714948 0.036021 0.149080
H16   H     H_    0.417441 0.706347 0.963253 0.148626
H17   H     H_    0.949235 0.215516 0.036024 0.149107
H18   H     H_    0.917067 0.206879 0.963256 0.148697
H19   H     H_    0.636520 0.697639 0.264265 0.151532
H20   H     H_    0.369988 0.701030 0.738568 0.153536
H21   H     H_    0.136340 0.197585 0.264302 0.151470
H22   H     H_    0.869691 0.200998 0.738558 0.153453
H23   H     H_    0.679953 0.701582 0.351987 0.163501
H24   H     H_    0.409433 0.255800 0.968338 0.179567
H25   H     H_    0.325061 0.702762 0.650574 0.159844
H26   H     H_    0.179812 0.201554 0.352026 0.163477
H27   H     H_    0.824773 0.202754 0.650567 0.160075
H28   H     H_    0.623013 0.792162 0.251712 0.181524
H29   H     H_    0.371358 0.796132 0.745219 0.192172
H30   H     H_    0.123097 0.292126 0.251685 0.181309
H31   H     H_    0.871677 0.296106 0.745265 0.191971
H32   H     H_    0.872112 0.884187 0.565167 0.168003
H33   H     H_    0.129248 0.884748 0.436052 0.168270
H34   H     H_    0.374397 0.382957 0.567265 0.168023
H35   H     H_    0.590504 0.255160 0.031730 0.179540
H36   H     H_    0.622904 0.381276 0.430277 0.168426
H37   H     H_    0.940479 0.874704 0.577470 0.156449
H38   H     H_    0.059959 0.875386 0.421585 0.156765
H39   H     H_    0.441212 0.373276 0.576059 0.156182
H40   H     H_    0.557994 0.371435 0.425604 0.156055
H41   H     H_    0.846259 0.923492 0.487921 0.155440
H42   H     H_    0.154551 0.923376 0.514012 0.156066
H43   H     H_    0.347795 0.423685 0.491385 0.155157
H44   H     H_    0.650199 0.423852 0.504282 0.155359
H45   H     H_    0.810605 0.874757 0.423023 0.159848
H46   H     H_    0.572917 0.647589 0.494028 0.178104
H47   H     H_    0.188805 0.874079 0.577600 0.160455
H48   H     H_    0.309842 0.376172 0.424343 0.159880
H49   H     H_    0.690859 0.378020 0.573783 0.160748
H50   H     H_    0.878950 0.865268 0.435279 0.153483
H51   H     H_    0.119539 0.864709 0.563181 0.152802
H52   H     H_    0.376633 0.366485 0.433090 0.153693
H53   H     H_    0.625977 0.368172 0.569159 0.153379
H54   H     H_    0.012626 0.737443 0.877977 0.198018
H55   H     H_    0.987082 0.738033 0.121917 0.198186
H56   H     H_    0.512607 0.237473 0.877961 0.198065
H57   H     H_    0.418340 0.647319 0.488938 0.178463
H58   H     H_    0.487104 0.237894 0.121940 0.198144
H59   H     H_    0.056307 0.736607 0.963188 0.159294
H60   H     H_    0.943391 0.737331 0.036696 0.159405
H61   H     H_    0.556296 0.236642 0.963172 0.159357
H62   H     H_    0.443407 0.237170 0.036720 0.159448
H63   H     H_    0.830086 0.702677 0.650562 0.180496
H64   H     H_    0.169532 0.702617 0.349297 0.181567
H65   H     H_    0.329993 0.202651 0.650524 0.182021
H66   H     H_    0.669647 0.202599 0.349314 0.181867
H67   H     H_    0.873471 0.700913 0.738533 0.165879
H68   H     H_    0.084886 0.146949 0.516703 0.177913
H69   H     H_    0.126079 0.700760 0.261320 0.166503
H70   H     H_    0.373367 0.200861 0.738494 0.167030
H71   H     H_    0.626196 0.200733 0.261336 0.166789
H72   H     H_    0.585147 0.653270 0.424964 0.166827
H73   H     H_    0.416945 0.659887 0.566217 0.166694
H74   H     H_    0.082964 0.161610 0.437443 0.167185
H75   H     H_    0.917074 0.161200 0.563805 0.166320
H76   H     H_    0.602581 0.591688 0.396845 0.066734
H77   H     H_    0.413831 0.601966 0.615885 0.064843
H78   H     H_    0.081303 0.105108 0.381333 0.067492
H79   H     H_    0.916171 0.147040 0.485135 0.177823
H80   H     H_    0.917294 0.104348 0.618014 0.065000
H81   H     H_    0.703056 0.598863 0.612749 0.083677
H82   H     H_    0.294207 0.588923 0.401351 0.083059
H83   H     H_    0.206041 0.086337 0.593415 0.083307
H84   H     H_    0.794064 0.086955 0.405073 0.083040
H85   H     H_    0.655802 0.773208 0.109442 0.038537
H86   H     H_    0.537673 0.796307 0.892326 0.040035
H87   H     H_    0.156039 0.272217 0.109465 0.038419
H88   H     H_    0.038137 0.295388 0.892334 0.039787
H89   H     H_    0.839160 0.776560 0.845513 0.130879
H90   H     H_    0.678105 0.601854 0.506280 0.166661
H91   H     H_    0.161134 0.775454 0.154714 0.130651
H92   H     H_    0.339096 0.276365 0.845535 0.130357
H93   H     H_    0.661083 0.275528 0.154678 0.130467
H94   H     H_    0.695955 0.809076 0.383815 0.077376
H95   H     H_    0.296649 0.808720 0.611989 0.070738
H96   H     H_    0.196054 0.309047 0.383801 0.077501
H97   H     H_    0.796939 0.308781 0.612083 0.071223
H98   H     H_    0.936575 0.818693 0.518679 0.062485
H99   H     H_    0.061995 0.818873 0.477967 0.062855
H100  H     H_    0.434242 0.318390 0.513388 0.062517
N1    N     N_R   0.898601 0.746640 0.798469 -0.331194
N2    N     N_R   0.101233 0.746405 0.201512 -0.331275
N3    N     N_R   0.398571 0.246577 0.798467 -0.331214
N4    N     N_R   0.601240 0.246382 0.201515 -0.331239
N5    N     N_R   0.602524 0.742274 0.201553 -0.359809
N6    N     N_R   0.399865 0.747580 0.798754 -0.358150
N7    N     N_R   0.102460 0.242212 0.201565 -0.359848
N8    N     N_R   0.899874 0.247533 0.798765 -0.358187
O1    O     O_R   0.736590 0.701810 0.500000 -0.624539
O2    O     O_2   0.446913 0.767985 0.797254 -0.502589
O3    O     O_2   0.151297 0.262400 0.203485 -0.506587
O4    O     O_2   0.947094 0.267523 0.797262 -0.502923
O5    O     O_2   0.554298 0.723137 0.202226 -0.546679
O6    O     O_2   0.352519 0.724618 0.797889 -0.549479
O7    O     O_2   0.054068 0.223502 0.202237 -0.546962
O8    O     O_2   0.852326 0.224981 0.797893 -0.549025
O9    O     O_R   0.010740 0.969180 0.459790 -0.612320
O10   O     O_R   0.989260 0.969180 0.540210 -0.612224
O11   O     O_R   0.510740 0.469180 0.459790 -0.611404
O12   O     O_R   0.263410 0.701810 0.500000 -0.623277
O13   O     O_R   0.489260 0.469180 0.540210 -0.612096
O14   O     O_R   0.050950 0.969170 0.540230 -0.610722
O15   O     O_R   0.949050 0.969170 0.459770 -0.610878
O16   O     O_R   0.550950 0.469170 0.540230 -0.611657
O17   O     O_R   0.449050 0.469170 0.459770 -0.610999
O18   O     O_R   0.510720 0.530790 0.459790 -0.604296
O19   O     O_R   0.489280 0.530790 0.540210 -0.600759
O20   O     O_R   0.010720 0.030790 0.459790 -0.600479
O21   O     O_R   0.989280 0.030790 0.540210 -0.601012
O22   O     O_R   0.550930 0.530780 0.540230 -0.599435
O23   O     O_R   0.236590 0.201810 0.500000 -0.622792
O24   O     O_R   0.449070 0.530780 0.459770 -0.602883
O25   O     O_R   0.050930 0.030780 0.540230 -0.603155
O26   O     O_R   0.949070 0.030780 0.459770 -0.602688
O27   O     O_R   0.701790 0.736580 0.500000 -0.597314
O28   O     O_R   0.298210 0.736580 0.500000 -0.599159
O29   O     O_R   0.201790 0.236580 0.500000 -0.600434
O30   O     O_R   0.798210 0.236580 0.500000 -0.599896
O31   O     O_R   0.803010 0.732600 0.571250 -0.622537
O32   O     O_R   0.196990 0.732600 0.428750 -0.622322
O33   O     O_R   0.303010 0.232600 0.571250 -0.622347
O34   O     O_R   0.763410 0.201810 0.500000 -0.622851
O35   O     O_R   0.696990 0.232600 0.428750 -0.622737
O36   O     O_R   0.768220 0.767380 0.571250 -0.573480
O37   O     O_R   0.231780 0.767380 0.428750 -0.573481
O38   O     O_R   0.268220 0.267380 0.571250 -0.573808
O39   O     O_R   0.731780 0.267380 0.428750 -0.573453
O40   O     O_R   0.798210 0.763420 0.500010 -0.594424
O41   O     O_R   0.201790 0.763420 0.499990 -0.595556
O42   O     O_R   0.298210 0.263420 0.500010 -0.594212
O43   O     O_R   0.701790 0.263420 0.499990 -0.595047
O44   O     O_R   0.763410 0.798190 0.500010 -0.610377
O45   O     O_2   0.950055 0.742853 0.797298 -0.537117
O46   O     O_R   0.236590 0.798190 0.499990 -0.609735
O47   O     O_R   0.263410 0.298190 0.500010 -0.610429
O48   O     O_R   0.736590 0.298190 0.499990 -0.609935
O49   O     O_R   0.731780 0.732620 0.428760 -0.609583
O50   O     O_R   0.268220 0.732620 0.571240 -0.609938
O51   O     O_R   0.231780 0.232620 0.428760 -0.609201
O52   O     O_R   0.768220 0.232620 0.571240 -0.609310
O53   O     O_R   0.696990 0.767400 0.428760 -0.629853
O54   O     O_R   0.303010 0.767400 0.571240 -0.625371
O55   O     O_R   0.196990 0.267400 0.428760 -0.630291
O56   O     O_2   0.049725 0.743134 0.202647 -0.536729
O57   O     O_R   0.803010 0.267400 0.571240 -0.625888
O58   O     O_2   0.845650 0.746956 0.796305 -0.549879
O59   O     O_2   0.154192 0.746183 0.203699 -0.549078
O60   O     O_2   0.345624 0.246827 0.796308 -0.548711
O61   O     O_2   0.654195 0.246233 0.203690 -0.548926
O62   O     O_2   0.575757 0.565725 0.412388 -0.547530
O63   O     O_2   0.438309 0.574468 0.598647 -0.545343
O64   O     O_2   0.057562 0.077141 0.399007 -0.544867
O65   O     O_2   0.941266 0.076493 0.600486 -0.545354
O66   O     O_2   0.661084 0.571915 0.595943 -0.543646
O67   O     O_2   0.450026 0.242855 0.797286 -0.537113
O68   O     O_2   0.336655 0.563443 0.416212 -0.546466
O69   O     O_2   0.163567 0.061253 0.579370 -0.546535
O70   O     O_2   0.836540 0.061766 0.419398 -0.546696
O71   O     O_2   0.670742 0.739983 0.154736 -0.499640
O72   O     O_2   0.485907 0.814293 0.849336 -0.494539
O73   O     O_2   0.170670 0.239085 0.154791 -0.499517
O74   O     O_2   0.986556 0.313684 0.849383 -0.494882
O75   O     O_2   0.840090 0.754685 0.894315 -0.544877
O76   O     O_2   0.159881 0.753337 0.105763 -0.544843
O77   O     O_2   0.340065 0.254440 0.894332 -0.544805
O78   O     O_2   0.549744 0.243043 0.202662 -0.537132
O79   O     O_2   0.659857 0.253425 0.105738 -0.544805
O80   O     O_2   0.653861 0.827612 0.322092 -0.544309
O81   O     O_2   0.335483 0.829922 0.672760 -0.534772
O82   O     O_2   0.154063 0.327610 0.322042 -0.544791
O83   O     O_2   0.836020 0.329911 0.672821 -0.535319
O84   O     O_2   0.897001 0.796383 0.516012 -0.535336
O85   O     O_2   0.101811 0.796534 0.481192 -0.535990
O86   O     O_2   0.395000 0.296119 0.511467 -0.535373
O87   O     O_2   0.607482 0.295914 0.493873 -0.536650
O88   O     O_2   0.651181 0.762877 0.203465 -0.506843
Zn1   Zn    Zn3+2 0.773230 0.726780 0.500010 1.017622
Zn2   Zn    Zn3+2 0.026820 0.999980 0.553700 1.033381
Zn3   Zn    Zn3+2 0.473180 0.499980 0.446300 1.031372
Zn4   Zn    Zn3+2 0.526820 0.499980 0.553700 1.035353
Zn5   Zn    Zn3+2 0.226770 0.726780 0.499990 1.017222
Zn6   Zn    Zn3+2 0.273230 0.226780 0.500010 1.019325
Zn7   Zn    Zn3+2 0.726770 0.226780 0.499990 1.018043
Zn8   Zn    Zn3+2 0.726770 0.773220 0.500000 1.054454
Zn9   Zn    Zn3+2 0.273230 0.773220 0.500000 1.056649
Zn10  Zn    Zn3+2 0.226770 0.273220 0.500000 1.051173
Zn11  Zn    Zn3+2 0.773230 0.273220 0.500000 1.055378
Zn12  Zn    Zn3+2 0.973180 0.999980 0.446300 1.033820

loop_
_geom_bond_atom_site_label_1
_geom_bond_atom_site_label_2
_ccdc_geom_bond_type
C233  C238  A    
C237  C241  A    
C189  C273  S    
C17   C30   A    
C20   C33   A    
C178  H24   S    
C248  C252  S    
C138  C173  A    
C105  H37   S    
C78   C83   A    
C115  C277  S    
C11   C272  S    
C87   C137  A    
C119  C159  T    
C38   C47   A    
C109  C128  S    
C61   H15   S    
C62   H16   S    
O29   Zn10  S    
C232  O35   A    
C223  C259  S    
C17   C21   A    
C114  C131  S    
C228  C232  S    
O49   Zn1   S    
C165  O16   A    
O37   Zn9   S    
C27   C62   A    
C77   C82   A    
C197  H88   S    
C5    H57   S    
O21   Zn2   S    
O23   Zn6   S    
C249  C266  S    
C38   C197  S    
C75   H20   S    
C250  C285  S    
C226  C235  A    
C58   C62   A    
C88   C172  A    
C204  H95   S    
C219  C224  A    
C113  C157  A    
C185  C247  S    
Br7   C3    S    
O25   Zn2   S    
C73   N8    A    
C228  C237  A    
C200  O77   D    
C31   H7    S    
C140  C175  A    
C8    C255  T    
C177  H13   S    
O34   Zn7   S    
C25   C51   A    
C264  C273  S    
C55   C73   A    
C70   N5    A    
C275  C288  S    
Br1   C286  S    
C157  C175  A    
C74   C78   A    
C18   C22   A    
C200  H92   S    
C88   C138  A    
C167  C260  S    
C89   C139  A    
C22   C49   A    
C39   O49   A    
C114  H36   S    
C227  C236  A    
C120  C163  S    
C3    C7    S    
C24   C267  A    
C6    C253  S    
O47   Zn10  S    
C248  C283  S    
C144  C162  S    
O53   Zn8   S    
C225  C233  A    
C247  C264  S    
C183  C256  A    
C164  O15   A    
C91   C140  A    
C7    C254  S    
C40   O54   A    
C90   H55   S    
C189  O66   D    
C105  C141  S    
O14   Zn2   S    
C18   C31   A    
C165  O11   A    
C13   C57   A    
C8    C269  S    
C169  O19   A    
C243  N2    S    
C105  C123  S    
C180  C184  A    
C58   H11   S    
C87   C173  A    
C253  C271  S    
C265  H2    S    
C254  C272  S    
C35   C211  A    
Br11  C219  S    
C122  C162  T    
C2    C245  A    
C269  C286  S    
C12   C282  S    
C168  N1    A    
C107  C111  S    
C135  H60   S    
C236  H65   S    
C47   C51   A    
C21   C26   A    
C126  C209  S    
C91   C174  A    
C48   C52   A    
C23   C28   A    
C195  O72   D    
C29   C64   A    
C176  H1    S    
C223  O34   A    
C33   C38   A    
C218  C222  A    
C146  H61   S    
C231  O33   A    
C180  H35   S    
C279  O41   A    
C130  C156  S    
C187  O64   D    
C49   C53   A    
C94   C205  S    
O26   Zn12  S    
C247  C251  S    
C171  O21   A    
C227  C231  S    
C120  C160  T    
C190  C256  A    
C76   H21   S    
C131  C149  S    
C149  C153  S    
C236  C240  A    
C39   C83   S    
C198  O75   D    
C139  C174  A    
C265  C270  S    
C28   C29   A    
C248  C265  S    
C196  O73   D    
C179  N2    A    
C132  H50   S    
O38   Zn10  S    
C194  O71   D    
C114  C153  S    
C57   C214  A    
C169  C261  S    
Br8   C216  S    
C186  C248  S    
C1    O1    A    
C148  H48   S    
C12   C260  T    
C277  O40   A    
C52   C56   A    
C26   C27   A    
C133  C147  S    
C121  C166  S    
C134  C148  S    
C223  O30   A    
C246  N4    S    
C53   C58   A    
C4    C286  S    
C119  C164  S    
Br10  C218  S    
C37   C45   A    
C66   N6    A    
C55   C60   A    
C106  C110  S    
C99   H31   S    
O54   Zn9   S    
C195  H86   S    
C127  C131  S    
C129  C147  S    
C79   C124  A    
C247  C282  S    
C190  O60   S    
C96   H28   S    
C137  C172  A    
C181  C234  A    
C241  H71   S    
C201  O61   S    
C153  H44   S    
C209  O86   D    
C179  C245  A    
C122  C165  S    
O44   Zn8   S    
Br4   C224  S    
C3    C272  S    
C71   O6    S    
C217  C221  A    
C42   O52   A    
C241  C246  A    
C41   O55   A    
C232  O39   A    
C36   C195  S    
C270  C287  S    
C116  C279  S    
C80   C84   A    
C171  O26   A    
C127  C136  S    
C50   C54   A    
C193  C276  S    
C22   C27   A    
C235  H64   S    
C111  H34   S    
C192  O69   D    
C24   C140  A    
C16   C263  T    
O43   Zn7   S    
O20   Zn12  S    
C4    C282  S    
C112  O12   A    
C34   C43   A    
O30   Zn11  S    
C17   C18   A    
C90   C135  A    
C184  C202  S    
O28   Zn9   S    
C19   C20   A    
C37   C196  S    
C198  H89   S    
O13   Zn4   S    
C20   C25   A    
C110  H33   S    
C178  C183  A    
O57   Zn11  S    
O24   Zn3   S    
C133  C142  S    
C97   C102  A    
C176  C181  A    
C266  C271  S    
C220  C225  A    
C274  C287  S    
C163  O9    A    
C81   C85   A    
C191  C274  S    
C113  H58   S    
C5    C283  S    
C268  H5    S    
C34   C194  S    
O50   Zn5   S    
C6    C284  S    
C234  C278  A    
O40   Zn1   S    
C117  C156  T    
C107  C126  S    
C95   C99   A    
C169  O24   A    
C150  H41   S    
C108  H40   S    
C14   C261  T    
C215  N4    A    
C187  C249  S    
C212  O23   A    
C235  C239  A    
C201  N4    A    
C225  C229  S    
C212  O29   A    
C13   C139  A    
C182  C245  A    
C76   C103  A    
C183  C200  S    
C184  C267  A    
C204  O81   D    
C60   H14   S    
C181  C198  S    
O16   Zn4   S    
O51   Zn6   S    
C121  C161  T    
C126  C134  S    
C202  O79   D    
C145  C150  S    
C194  H85   S    
C106  C142  S    
C147  H47   S    
C25   C29   A    
C80   H25   S    
C82   H27   S    
O42   Zn6   S    
C70   O5    S    
C110  C129  S    
C264  H90   S    
C132  C145  S    
C43   C48   A    
C231  O38   A    
C59   H12   S    
C78   H23   S    
C279  O46   A    
C238  C242  A    
C84   C93   A    
C5    C287  S    
O1    Zn1   S    
C252  C270  S    
C193  O70   D    
C185  H76   S    
C199  H91   S    
C106  H38   S    
C81   H26   S    
C9    C257  T    
C221  C226  A    
C168  O58   S    
C11   C259  T    
C189  H81   S    
C77   H22   S    
C281  O43   A    
C125  C133  S    
C218  C244  A    
O19   Zn4   S    
C205  O82   D    
C108  C114  S    
C197  O74   D    
C82   C86   A    
C237  H66   S    
C170  O20   A    
C108  C144  S    
C67   N7    A    
C30   C34   A    
O35   Zn7   S    
C217  C243  A    
C4    C251  S    
C207  O84   D    
C134  C143  S    
C117  C280  S    
C273  C286  S    
C273  C282  S    
C116  C155  T    
C276  C285  S    
C99   C104  A    
C46   C90   A    
C69   N8    A    
C98   H30   S    
C170  C262  S    
C205  H96   S    
C191  H82   S    
C166  O13   A    
C1    O27   A    
C93   C204  S    
C75   C80   A    
C56   H10   S    
C123  C128  S    
C146  C174  A    
C97   H29   S    
C87   C176  A    
C128  C154  S    
C68   C215  A    
C2    C46   A    
C112  O28   A    
C129  C155  S    
C203  H94   S    
C211  O45   S    
C215  O78   S    
C131  C158  S    
C89   C178  A    
C266  C275  S    
C196  H87   S    
C100  N5    S    
C214  O67   S    
C185  O62   D    
C96   C100  A    
C179  O59   S    
C251  H72   S    
C9    C270  S    
C268  C276  S    
C244  N3    S    
C249  C253  S    
C133  H51   S    
O9    Zn12  S    
O18   Zn3   S    
C239  C243  A    
C54   C59   A    
C186  H77   S    
C250  C268  S    
C2    C138  A    
C177  C182  A    
C3    C276  S    
C219  C246  A    
C7    H79   S    
C41   O51   A    
C46   C213  A    
C230  O32   A    
C85   C94   A    
C21   C48   A    
C213  O56   S    
C126  C130  S    
C19   C23   A    
C157  H62   S    
C210  O87   D    
C92   C96   A    
C13   C256  A    
C213  N2    A    
C125  C129  S    
C101  H56   S    
C35   C79   A    
C42   O57   A    
C47   C69   A    
C92   C203  S    
C211  N1    A    
C65   O88   S    
C73   O8    S    
C136  H53   S    
C28   C63   A    
C141  C150  S    
C32   H8    S    
Br5   C287  S    
C33   H9    S    
Br3   C222  S    
Br6   C288  S    
C111  C152  S    
O46   Zn9   S    
C193  H84   S    
C93   C97   A    
C144  C153  S    
C118  C158  T    
C115  C154  T    
C109  C150  S    
C111  C130  S    
C274  C283  S    
C167  O18   A    
C208  O85   D    
O55   Zn10  S    
C280  O42   A    
O52   Zn7   S    
C164  O10   A    
O15   Zn12  S    
C203  O80   D    
C104  N8    S    
C7    C285  S    
C57   C101  A    
C68   C113  A    
C233  H63   S    
C44   C49   A    
C136  C144  S    
C35   C278  A    
C98   C103  A    
C109  H32   S    
O33   Zn6   S    
C149  H49   S    
C32   C37   A    
C266  H4    S    
C201  C267  A    
C192  C275  S    
C199  O76   D    
O32   Zn5   S    
C45   C67   A    
C88   C177  A    
C280  O47   A    
C239  H69   S    
C15   C284  S    
C60   C64   A    
C207  H98   S    
O27   Zn8   S    
C44   C66   A    
C45   C50   A    
C230  O37   A    
C135  C173  A    
C118  C281  S    
C30   H6    S    
C136  C149  S    
C242  N1    S    
C10   C271  S    
O48   Zn11  S    
C43   C65   A    
C124  H59   S    
C53   C71   A    
C64   H18   S    
C264  C269  S    
C102  N6    S    
C240  H70   S    
C148  C152  S    
C190  N3    A    
C275  C284  S    
C216  C220  A    
Br9   C217  S    
C281  O48   A    
C132  C141  S    
C163  O14   A    
C105  C109  S    
C75   C102  A    
C254  H75   S    
Br2   C221  S    
C6    C288  S    
C188  C250  S    
C271  C288  S    
C72   O7    S    
C277  O44   A    
C167  O22   A    
O39   Zn11  S    
C39   O53   A    
O36   Zn8   S    
C101  C146  A    
O10   Zn2   S    
C106  C125  S    
C134  H52   S    
C31   C36   A    
C187  H78   S    
O22   Zn4   S    
C240  C244  A    
C143  C161  S    
C145  H45   S    
C182  C199  S    
C77   C104  A    
C24   C68   A    
C253  H74   S    
C229  O36   A    
C124  C172  A    
C209  H100  S    
O17   Zn3   S    
C1    C255  S    
C252  H73   S    
Br12  C220  S    
C40   O50   A    
C79   H54   S    
C151  H42   S    
C51   C55   A    
C112  C257  S    
C192  H83   S    
C19   C32   A    
C67   O3    S    
C72   N7    A    
C142  C151  S    
C103  N7    S    
C107  H39   S    
C41   C85   S    
C56   C61   A    
C212  C258  S    
C110  C151  S    
C224  C228  A    
C74   C100  A    
C4    H46   S    
C128  C145  S    
C95   C206  S    
C171  C263  S    
C238  H67   S    
C170  O25   A    
C123  C207  S    
C141  C159  S    
C142  C160  S    
C108  C127  S    
C229  O31   A    
C188  H80   S    
O11   Zn3   S    
O12   Zn5   S    
C69   O4    S    
C52   C70   A    
C15   C262  T    
C216  C242  A    
C191  O68   D    
C127  C210  S    
C123  C132  S    
C6    H68   S    
C206  O83   D    
C147  C151  S    
C14   C283  S    
C206  H97   S    
C16   C285  S    
C83   C92   A    
C94   C98   A    
C36   C44   A    
C5    C252  S    
C76   C81   A    
C107  C143  S    
C63   H17   S    
C66   O2    S    
C268  C272  S    
C130  C148  S    
C250  C254  S    
C137  C278  A    
C143  C152  S    
C166  O17   A    
C265  C274  S    
C226  C230  S    
C251  C269  S    
C210  H3    S    
C71   N6    A    
C152  H43   S    
C89   C175  A    
C59   C63   A    
C188  O65   D    
C10   C258  T    
C74   H19   S    
C186  O63   D    
C125  C208  S    
C40   C84   S    
C23   C50   A    
C222  C227  A    
C214  N3    A    
C54   C72   A    
C249  C284  S    
C65   N5    A    
C208  H99   S    
O41   Zn5   S    
C42   C86   S    
C91   C180  A    
O31   Zn1   S    
C202  H93   S    
C86   C95   A    
C26   C61   A    
C168  C234  A    
