data_mof_unit_55016.cif
_audit_creation_date              2012-10-26T21:33:15-0400
_audit_creation_method            fapswitch 2.2
_symmetry_space_group_name_H-M    P1
_symmetry_Int_Tables_number       1
_space_group_crystal_system       triclinic
_cell_length_a                    28.28239
_cell_length_b                    18.485057
_cell_length_c                    17.069279
_cell_angle_alpha                 89.693907
_cell_angle_beta                  60.725291
_cell_angle_gamma                 89.529923
_cell_volume                      7783.8680079

loop_
_atom_site_label
_atom_site_type_symbol
_atom_type_description
_atom_site_fract_x
_atom_site_fract_y
_atom_site_fract_z
_atom_type_partial_charge
C1    C     C_R   0.701870 0.268790 0.675867 0.893375
C2    C     C_R   0.080575 0.501116 0.560029 0.067696
C3    C     C_R   0.189738 0.216059 0.905840 0.071670
C4    C     C_R   0.074082 0.099465 0.933785 0.910074
C5    C     C_R   0.925906 0.900553 0.066224 0.909243
C6    C     C_R   0.926133 0.099830 0.065842 0.911630
C7    C     C_R   0.073864 0.900162 0.934159 0.911721
C8    C     C_R   0.574094 0.599447 0.933775 0.909243
C9    C     C_R   0.425918 0.400535 0.066215 0.910074
C10   C     C_R   0.426136 0.599838 0.065841 0.911721
C11   C     C_R   0.573867 0.400170 0.934158 0.911630
C12   C     C_R   0.571484 0.124750 0.435423 0.104645
C13   C     C_R   0.419426 0.998885 0.439965 0.067693
C14   C     C_R   0.461238 0.868332 0.467943 0.104654
C15   C     C_R   0.477671 0.127186 0.416537 0.110878
C16   C     C_R   0.540110 0.871516 0.522277 0.108449
C17   C     C_R   0.038767 0.631668 0.532038 0.104651
C18   C     C_R   0.928517 0.375251 0.564574 0.104647
C19   C     C_R   0.959898 0.628483 0.477698 0.108458
C20   C     C_R   0.022329 0.372816 0.583457 0.110875
C21   C     C_R   0.556859 0.187661 0.405399 -0.204064
C22   C     C_R   0.477559 0.804030 0.492226 -0.204266
C23   C     C_R   0.509696 0.189316 0.397831 -0.205851
C24   C     C_R   0.597856 0.999703 0.502694 0.065194
C25   C     C_R   0.515151 0.806095 0.522859 -0.204770
C26   C     C_R   0.022450 0.695969 0.507744 -0.204264
C27   C     C_R   0.943142 0.312338 0.594593 -0.204061
C28   C     C_R   0.984859 0.693903 0.477107 -0.204770
C29   C     C_R   0.990306 0.310685 0.602159 -0.205847
C30   C     C_R   0.494204 0.063049 0.441102 0.031324
C31   C     C_R   0.526265 0.935072 0.492475 0.029734
C32   C     C_R   0.539797 0.062576 0.454195 0.032697
C33   C     C_R   0.484372 0.934139 0.470595 0.031867
C34   C     C_R   0.973739 0.564928 0.507510 0.029731
C35   C     C_R   0.070707 0.371872 0.587950 -0.246509
C36   C     C_R   0.005796 0.436953 0.558894 0.031323
C37   C     C_R   0.015631 0.565861 0.529392 0.031867
C38   C     C_R   0.960204 0.437425 0.545801 0.032695
C39   C     C_R   0.945694 0.500661 0.515910 -0.052096
C40   C     C_R   0.033750 0.501277 0.550200 -0.052849
C41   C     C_R   0.466251 0.998725 0.449794 -0.052852
C42   C     C_R   0.554308 0.999339 0.484082 -0.052095
C43   C     C_R   0.871551 0.436969 0.511974 0.053294
C44   C     C_R   0.105629 0.567190 0.558426 0.056274
C45   C     C_R   0.102832 0.434939 0.569072 0.058546
C46   C     C_R   0.920512 0.626120 0.451000 -0.239490
C47   C     C_R   0.888000 0.564046 0.467039 0.062252
C48   C     C_R   0.394373 0.932811 0.441567 0.056275
C49   C     C_R   0.628449 0.063031 0.488024 0.053296
C50   C     C_R   0.612003 0.935953 0.532949 0.062253
C51   C     C_R   0.397168 0.065063 0.430923 0.058545
C52   C     C_R   0.830891 0.436813 0.484953 -0.103516
C53   C     C_R   0.157251 0.565437 0.554817 -0.113585
C54   C     C_R   0.156121 0.435123 0.559081 -0.116808
C55   C     C_R   0.840304 0.563919 0.457972 -0.115687
C56   C     C_R   0.342750 0.934563 0.445179 -0.113589
C57   C     C_R   0.882683 0.376970 0.553395 -0.243882
C58   C     C_R   0.669107 0.063187 0.515048 -0.103515
C59   C     C_R   0.659696 0.936080 0.542022 -0.115680
C60   C     C_R   0.343879 0.064878 0.440915 -0.116809
C61   C     C_R   0.816166 0.499683 0.458704 -0.308156
C62   C     C_R   0.180549 0.500069 0.557434 -0.302674
C63   C     C_R   0.319452 0.999931 0.442562 -0.302672
C64   C     C_R   0.683832 0.000316 0.541296 -0.308164
C65   C     C_R   0.078483 0.632073 0.557618 -0.243141
C66   C     C_R   0.579494 0.873877 0.548978 -0.239494
C67   C     C_R   0.429293 0.128131 0.412046 -0.246504
C68   C     C_R   0.421521 0.867927 0.442368 -0.243128
C69   C     C_R   0.298168 0.731285 0.324106 0.894732
C70   C     C_R   0.617317 0.123030 0.446604 -0.243888
C71   C     C_R   0.721034 0.266095 0.953429 0.117085
C72   C     C_R   0.279033 0.734023 0.046502 0.117162
C73   C     C_R   0.279368 0.266430 0.045890 0.116007
C74   C     C_R   0.720662 0.733525 0.954081 0.116160
C75   C     C_R   0.220967 0.765977 0.953498 0.117162
C76   C     C_R   0.778966 0.233905 0.046571 0.117084
C77   C     C_R   0.779338 0.766474 0.045919 0.116160
C78   C     C_R   0.220632 0.233570 0.954110 0.116006
C79   C     C_R   0.744611 0.197523 0.946146 -0.182173
C80   C     C_R   0.298053 0.268960 0.324291 0.887749
C81   C     C_R   0.255585 0.802644 0.053483 -0.181176
C82   C     C_R   0.255250 0.198329 0.055432 -0.178828
C83   C     C_R   0.744711 0.801667 0.944603 -0.179326
C84   C     C_R   0.244415 0.697357 0.946517 -0.181175
C85   C     C_R   0.755389 0.302477 0.053854 -0.182173
C86   C     C_R   0.755289 0.698333 0.055397 -0.179326
C87   C     C_R   0.244750 0.301670 0.944568 -0.178828
C88   C     C_R   0.773035 0.181580 0.992247 -0.178632
C89   C     C_R   0.227095 0.818468 0.007453 -0.176230
C90   C     C_R   0.226452 0.182108 0.010163 -0.174483
C91   C     C_R   0.701965 0.731006 0.675697 0.889851
C92   C     C_R   0.773482 0.817933 0.989902 -0.175217
C93   C     C_R   0.272905 0.681532 0.992547 -0.176231
C94   C     C_R   0.726965 0.318420 0.007753 -0.178632
C95   C     C_R   0.726518 0.682067 0.010097 -0.175217
C96   C     C_R   0.273548 0.317892 0.989837 -0.174483
C97   C     C_R   0.643399 0.326425 0.946045 -0.205658
C98   C     C_R   0.356651 0.673662 0.053914 -0.206118
C99   C     C_R   0.356447 0.327637 0.053994 -0.202134
C100  C     C_R   0.643596 0.672294 0.945975 -0.203177
C101  C     C_R   0.143349 0.826338 0.946085 -0.206117
C102  C     C_R   0.201832 0.768715 0.675894 0.894735
C103  C     C_R   0.856601 0.173575 0.053955 -0.205657
C104  C     C_R   0.856404 0.827706 0.054025 -0.203178
C105  C     C_R   0.143553 0.172363 0.946006 -0.202134
C106  C     C_R   0.616346 0.346913 0.898489 -0.066544
C107  C     C_R   0.383706 0.653171 0.101470 -0.064763
C108  C     C_R   0.383346 0.347733 0.101856 -0.064352
C109  C     C_R   0.616694 0.652204 0.898115 -0.064560
C110  C     C_R   0.116294 0.846829 0.898530 -0.064763
C111  C     C_R   0.883654 0.153087 0.101511 -0.066544
C112  C     C_R   0.883306 0.847796 0.101885 -0.064560
C113  C     C_R   0.798130 0.231209 0.324133 0.893379
C114  C     C_R   0.116654 0.152267 0.898144 -0.064351
C115  C     C_R   0.633080 0.321945 0.813346 -0.260673
C116  C     C_R   0.367013 0.678211 0.186579 -0.263649
C117  C     C_R   0.366581 0.322452 0.186996 -0.265020
C118  C     C_R   0.633474 0.677456 0.812963 -0.264874
C119  C     C_R   0.132987 0.821789 0.813421 -0.263649
C120  C     C_R   0.866920 0.178055 0.186654 -0.260673
C121  C     C_R   0.866526 0.822544 0.187036 -0.264875
C122  C     C_R   0.133419 0.177547 0.813004 -0.265020
C123  C     C_R   0.679617 0.281432 0.770948 -0.051097
C124  C     C_R   0.798034 0.768994 0.324303 0.889846
C125  C     C_R   0.320502 0.718788 0.228956 -0.052859
C126  C     C_R   0.320401 0.281870 0.229080 -0.051182
C127  C     C_R   0.679649 0.718042 0.770884 -0.052050
C128  C     C_R   0.179498 0.781212 0.771044 -0.052860
C129  C     C_R   0.820383 0.218568 0.229052 -0.051098
C130  C     C_R   0.820351 0.781958 0.229116 -0.052049
C131  C     C_R   0.179599 0.218130 0.770920 -0.051183
C132  C     C_R   0.707985 0.260280 0.816859 -0.205040
C133  C     C_R   0.292192 0.740049 0.182978 -0.197356
C134  C     C_R   0.292447 0.260891 0.182797 -0.196500
C135  C     C_R   0.201947 0.231040 0.675709 0.887753
C136  C     C_R   0.707611 0.739009 0.817155 -0.197060
C137  C     C_R   0.207808 0.759951 0.817022 -0.197356
C138  C     C_R   0.792015 0.239720 0.183141 -0.205039
C139  C     C_R   0.792389 0.760990 0.182845 -0.197060
C140  C     C_R   0.207553 0.239109 0.817203 -0.196500
C141  C     C_R   0.696500 0.128008 0.517627 0.910605
C142  C     C_R   0.308277 0.870816 0.466441 0.906271
C143  C     C_R   0.308992 0.129530 0.464095 0.895600
C144  C     C_R   0.691644 0.870929 0.532699 0.896899
C145  C     C_R   0.191724 0.629183 0.533558 0.906276
C146  C     C_R   0.902145 0.500297 0.497299 0.065193
C147  C     C_R   0.803499 0.371992 0.482375 0.910611
C148  C     C_R   0.808357 0.629071 0.467298 0.896893
C149  C     C_R   0.191008 0.370471 0.535903 0.895599
C150  C     C_R   0.690001 0.283108 0.905407 0.074856
C151  C     C_R   0.310114 0.717103 0.094483 0.072990
C152  C     C_R   0.310262 0.283940 0.094160 0.071670
C153  C     C_R   0.689787 0.715977 0.905797 0.071899
C154  C     C_R   0.189886 0.782897 0.905517 0.072989
C155  C     C_R   0.809999 0.216892 0.094593 0.074856
C156  C     C_R   0.810213 0.784023 0.094202 0.071900
H1    H     H_    0.001693 0.260898 0.622584 0.137784
H2    H     H_    0.220613 0.499668 0.551055 0.196708
H3    H     H_    0.279388 0.000332 0.448941 0.196708
H4    H     H_    0.717075 0.000537 0.555978 0.193267
H5    H     H_    0.081753 0.322235 0.608836 0.170431
H6    H     H_    0.916255 0.673282 0.417295 0.172535
H7    H     H_    0.855892 0.331351 0.579960 0.180106
H8    H     H_    0.086638 0.683986 0.576492 0.181164
H9    H     H_    0.583751 0.826713 0.582678 0.172547
H10   H     H_    0.418245 0.177770 0.391163 0.170430
H11   H     H_    0.413368 0.816013 0.423491 0.181149
H12   H     H_    0.974055 0.743698 0.455753 0.136859
H13   H     H_    0.644109 0.168648 0.420042 0.180111
H14   H     H_    0.710301 0.372319 0.013647 0.130006
H15   H     H_    0.289467 0.627595 0.986897 0.130404
H16   H     H_    0.290488 0.371460 0.982022 0.129143
H17   H     H_    0.709626 0.628473 0.017860 0.128910
H18   H     H_    0.210534 0.872405 0.013102 0.130404
H19   H     H_    0.789699 0.127681 0.986353 0.130006
H20   H     H_    0.790374 0.871527 0.982140 0.128910
H21   H     H_    0.209512 0.128539 0.017978 0.129143
H22   H     H_    0.740259 0.155679 0.906011 0.129721
H23   H     H_    0.918972 0.263797 0.609735 0.137101
H24   H     H_    0.260087 0.844607 0.093330 0.129265
H25   H     H_    0.259405 0.156945 0.096827 0.128526
H26   H     H_    0.740522 0.843045 0.903236 0.128392
H27   H     H_    0.239913 0.655393 0.906670 0.129265
H28   H     H_    0.759741 0.344321 0.093989 0.129721
H29   H     H_    0.759478 0.656955 0.096764 0.128392
H30   H     H_    0.240595 0.343054 0.903173 0.128526
H31   H     H_    0.628884 0.345614 0.013911 0.146870
H32   H     H_    0.371105 0.654370 0.986107 0.147432
H33   H     H_    0.370911 0.347138 0.986163 0.147471
H34   H     H_    0.040388 0.747256 0.508880 0.136614
H35   H     H_    0.629127 0.652809 0.013815 0.146945
H36   H     H_    0.128895 0.845630 0.013893 0.147432
H37   H     H_    0.871116 0.154386 0.986089 0.146869
H38   H     H_    0.870873 0.847190 0.986185 0.146945
H39   H     H_    0.129089 0.152862 0.013837 0.147471
H40   H     H_    0.611891 0.338441 0.777597 0.177478
H41   H     H_    0.388183 0.661679 0.222346 0.175385
H42   H     H_    0.387532 0.338663 0.222915 0.175019
H43   H     H_    0.612522 0.661244 0.777045 0.175644
H44   H     H_    0.111817 0.838321 0.777654 0.175385
H45   H     H_    0.525958 0.756298 0.544205 0.136859
H46   H     H_    0.888109 0.161558 0.222403 0.177478
H47   H     H_    0.887478 0.838756 0.222955 0.175643
H48   H     H_    0.112468 0.161337 0.777085 0.175019
H49   H     H_    0.745325 0.229403 0.782512 0.147862
H50   H     H_    0.254906 0.771044 0.217265 0.151188
H51   H     H_    0.255462 0.229890 0.217027 0.151653
H52   H     H_    0.744600 0.770006 0.782924 0.151504
H53   H     H_    0.245094 0.728957 0.782735 0.151188
H54   H     H_    0.754675 0.270597 0.217487 0.147862
H55   H     H_    0.755400 0.729994 0.217076 0.151504
H56   H     H_    0.498310 0.239102 0.377401 0.137784
H57   H     H_    0.244538 0.270110 0.782973 0.151653
H58   H     H_    0.459622 0.752742 0.491085 0.136612
H59   H     H_    0.581031 0.236200 0.390253 0.137106
H60   H     H_    0.782922 0.499463 0.444026 0.193269
O1    O     O_R   0.746490 0.236330 0.638080 -0.649446
O2    O     O_R   0.325830 0.813840 0.483730 -0.644250
O3    O     O_R   0.325830 0.186160 0.483730 -0.632912
O4    O     O_R   0.674170 0.813840 0.516270 -0.638347
O5    O     O_R   0.174170 0.686160 0.516270 -0.644258
O6    O     O_R   0.825830 0.313840 0.483730 -0.643485
O7    O     O_R   0.825830 0.686160 0.483730 -0.638337
O8    O     O_R   0.174170 0.313840 0.516270 -0.632911
O9    O     O_R   0.739960 0.127620 0.525000 -0.629703
O10   O     O_R   0.260040 0.872380 0.475000 -0.627918
O11   O     O_R   0.260040 0.127620 0.475000 -0.626166
O12   O     O_R   0.253510 0.763670 0.361920 -0.636081
O13   O     O_R   0.739960 0.872380 0.525000 -0.623729
O14   O     O_R   0.239960 0.627620 0.525000 -0.627919
O15   O     O_R   0.760040 0.372380 0.475000 -0.629707
O16   O     O_R   0.760040 0.627620 0.475000 -0.623729
O17   O     O_R   0.239960 0.372380 0.525000 -0.626166
O18   O     O_R   0.680700 0.294870 0.629350 -0.626177
O19   O     O_R   0.319300 0.705130 0.370650 -0.633626
O20   O     O_R   0.319300 0.294870 0.370650 -0.634296
O21   O     O_R   0.680700 0.705130 0.629350 -0.632428
O22   O     O_R   0.180700 0.794870 0.629350 -0.633625
O23   O     O_R   0.253510 0.236330 0.361920 -0.634370
O24   O     O_R   0.819300 0.205130 0.370650 -0.626176
O25   O     O_R   0.819300 0.794870 0.370650 -0.632430
O26   O     O_R   0.180700 0.205130 0.629350 -0.634294
O27   O     O_R   0.062020 0.072840 0.007170 -0.629350
O28   O     O_R   0.937980 0.927160 0.992830 -0.630153
O29   O     O_R   0.937980 0.072840 0.992830 -0.630357
O30   O     O_R   0.062020 0.927160 0.007170 -0.629885
O31   O     O_R   0.562020 0.572840 0.007170 -0.630153
O32   O     O_R   0.437980 0.427160 0.992830 -0.629350
O33   O     O_R   0.437980 0.572840 0.992830 -0.629884
O34   O     O_R   0.746490 0.763670 0.638080 -0.634915
O35   O     O_R   0.562020 0.427160 0.007170 -0.630357
O36   O     O_R   0.947860 0.073950 0.109290 -0.622698
O37   O     O_R   0.052140 0.926050 0.890710 -0.623504
O38   O     O_R   0.052140 0.073950 0.890710 -0.623641
O39   O     O_R   0.947860 0.926050 0.109290 -0.623302
O40   O     O_R   0.447860 0.573950 0.109290 -0.623504
O41   O     O_R   0.552140 0.426050 0.890710 -0.622698
O42   O     O_R   0.552140 0.573950 0.890710 -0.623301
O43   O     O_R   0.447860 0.426050 0.109290 -0.623641
O44   O     O_R   0.246490 0.736330 0.638080 -0.636080
O45   O     O_R   0.753510 0.263670 0.361920 -0.649446
O46   O     O_R   0.753510 0.736330 0.361920 -0.634916
O47   O     O_R   0.246490 0.263670 0.638080 -0.634369
O48   O     O_R   0.674170 0.186160 0.516270 -0.643486
Zn1   Zn    Zn3+2 0.792340 0.208750 0.507670 0.935240
Zn2   Zn    Zn3+2 0.494040 0.500000 0.919480 0.932462
Zn3   Zn    Zn3+2 0.005960 0.000000 0.080520 0.932462
Zn4   Zn    Zn3+2 0.994040 0.000000 0.919480 0.929040
Zn5   Zn    Zn3+2 0.207660 0.791250 0.492330 0.935593
Zn6   Zn    Zn3+2 0.207660 0.208750 0.492330 0.941924
Zn7   Zn    Zn3+2 0.792340 0.791250 0.507670 0.940077
Zn8   Zn    Zn3+2 0.292340 0.708750 0.507670 0.935596
Zn9   Zn    Zn3+2 0.707660 0.291250 0.492330 0.935239
Zn10  Zn    Zn3+2 0.707660 0.708750 0.492330 0.940072
Zn11  Zn    Zn3+2 0.292340 0.291250 0.507670 0.941923
Zn12  Zn    Zn3+2 0.505960 0.500000 0.080520 0.929040

loop_
_geom_bond_atom_site_label_1
_geom_bond_atom_site_label_2
_ccdc_geom_bond_type
C100  C153  A    
C138  C155  A    
C115  H40   S    
C69   O12   A    
C77   C92   A    
C135  O47   A    
C136  C153  A    
C31   C42   A    
C123  C132  A    
C27   C29   A    
C34   C37   A    
C120  H46   S    
C6    C111  S    
C80   O20   A    
C6    O29   A    
O21   Zn10  S    
C133  C151  A    
O42   Zn2   S    
C4    O38   A    
C74   C83   A    
C145  O14   A    
C101  H36   S    
C26   H34   S    
C53   C145  S    
C14   C33   A    
C71   C79   A    
C44   C65   A    
C19   C46   A    
C71   C94   A    
C26   C28   A    
C3    C105  A    
C16   C31   A    
C83   C92   A    
C82   H25   S    
O38   Zn4   S    
C59   C64   A    
C35   H5    S    
C88   H19   S    
C113  C129  S    
C60   C63   A    
C10   O40   A    
C17   C26   A    
C11   O41   A    
C80   O23   A    
C4    C114  S    
C148  O7    A    
O27   Zn3   S    
C43   C52   A    
C144  O4    A    
C37   C40   A    
C25   H45   S    
C52   C61   A    
C77   C156  S    
C38   C39   A    
C145  O5    A    
C75   C84   A    
C71   C150  S    
O32   Zn2   S    
C23   H56   S    
C130  C139  A    
O17   Zn11  S    
C55   C61   A    
C134  C152  A    
C16   C25   A    
C24   C42   A    
O15   Zn9   S    
C75   C154  S    
C48   C56   A    
C21   H59   S    
C85   C94   A    
C122  H48   S    
C119  H44   S    
C9    O32   A    
C142  O2    A    
C98   H32   S    
C131  C140  A    
C18   C57   A    
O12   Zn5   S    
C13   C51   A    
C20   C35   A    
C147  O15   A    
C44   C53   A    
C113  O24   A    
C76   C85   A    
C129  C138  A    
C7    O37   A    
C8    O31   A    
C2    C44   A    
C22   C25   A    
C89   H18   S    
C69   O19   A    
C97   C150  A    
C31   C33   A    
C30   C41   A    
C132  C150  A    
C148  O16   A    
C61   H60   S    
C63   H3    S    
C87   H30   S    
C117  C126  A    
C76   C88   A    
C4    O27   A    
C72   C81   A    
O23   Zn6   S    
C65   H8    S    
C20   C29   A    
C81   C89   A    
C119  C128  A    
C15   C23   A    
C47   C146  A    
C69   C125  S    
C100  C109  A    
O37   Zn4   S    
C12   C32   A    
C141  O9    A    
C64   H4    S    
C10   C107  S    
C12   C70   A    
O34   Zn7   S    
C118  H43   S    
C74   C95   A    
C126  C134  A    
C13   C41   A    
C79   C88   A    
C109  C118  A    
C142  O10   A    
C54   C149  S    
C98   C151  A    
C2    C45   A    
C24   C50   A    
O46   Zn10  S    
C102  O22   A    
O19   Zn8   S    
C115  C123  A    
C18   C27   A    
O4    Zn10  S    
C120  C129  A    
O16   Zn10  S    
C105  C114  A    
C36   C40   A    
C70   H13   S    
O35   Zn12  S    
C121  H47   S    
C143  O11   A    
C104  C112  A    
O6    Zn1   S    
C28   H12   S    
C17   C37   A    
C54   C62   A    
C58   C64   A    
C139  H55   S    
C101  C110  A    
O8    Zn6   S    
O9    Zn1   S    
C138  H54   S    
C100  H35   S    
C11   O35   A    
C98   C107  A    
C34   C39   A    
C83   H26   S    
C137  H53   S    
C111  C120  A    
C9    C108  S    
C114  C122  A    
O33   Zn2   S    
O44   Zn8   S    
O22   Zn5   S    
C136  H52   S    
C128  C137  A    
C1    C123  S    
O7    Zn7   S    
C99   C108  A    
C8    O42   A    
C50   C66   A    
C53   C62   A    
C144  O13   A    
O36   Zn3   S    
C57   H7    S    
C124  O46   A    
C1    O18   A    
C72   C151  S    
C15   C67   A    
C87   C96   A    
C91   O21   A    
C11   C106  S    
O3    Zn11  S    
C56   C63   A    
C124  C130  S    
O43   Zn12  S    
C121  C130  A    
C113  O45   A    
C127  C136  A    
C19   C28   A    
O18   Zn9   S    
C73   C82   A    
C95   H17   S    
C147  O6    A    
C91   C127  S    
C140  H57   S    
C72   C93   A    
C67   H10   S    
C103  C155  A    
C149  O8    A    
C59   C144  S    
C52   C147  S    
O47   Zn11  S    
C116  C125  A    
C9    O43   A    
C73   C152  S    
C96   H16   S    
C101  C154  A    
O1    Zn1   S    
C104  C156  A    
O29   Zn4   S    
C16   C66   A    
C49   C58   A    
C50   C59   A    
C21   C23   A    
C79   H22   S    
O30   Zn3   S    
C35   C45   A    
C78   C87   A    
O26   Zn6   S    
C122  C131  A    
O5    Zn5   S    
C135  O26   A    
C15   C30   A    
C47   C55   A    
C125  C133  A    
C24   C49   A    
C105  H39   S    
C97   H31   S    
C46   C47   A    
C93   H15   S    
C14   C68   A    
O10   Zn5   S    
C66   H9    S    
C118  C127  A    
C17   C65   A    
C108  C117  A    
C92   H20   S    
C84   H27   S    
O41   Zn2   S    
C43   C57   A    
C81   H24   S    
C27   H23   S    
C48   C68   A    
C19   C34   A    
C110  C119  A    
C77   C86   A    
C13   C48   A    
C29   H1    S    
C124  O25   A    
C51   C60   A    
C103  C111  A    
C7    O30   A    
C85   H28   S    
C5    C112  S    
C99   C152  A    
C76   C155  S    
C131  C135  S    
O48   Zn9   S    
C82   C90   A    
C7    C110  S    
C6    O36   A    
C106  C115  A    
C49   C70   A    
C10   O33   A    
C33   C41   A    
O20   Zn11  S    
C2    C40   A    
C22   H58   S    
C133  H50   S    
C56   C142  S    
C112  C121  A    
C60   C143  S    
C43   C146  A    
C8    C109  S    
C94   H14   S    
C30   C32   A    
C116  H41   S    
O13   Zn7   S    
C58   C141  S    
C14   C22   A    
C134  H51   S    
C51   C67   A    
C80   C126  S    
C139  C156  A    
C78   C90   A    
C3    C78   S    
C12   C21   A    
C39   C146  A    
C36   C38   A    
C141  O48   A    
C45   C54   A    
C102  O44   A    
C62   H2    S    
O14   Zn8   S    
C55   C148  S    
C84   C93   A    
C5    O28   A    
C18   C38   A    
C5    O39   A    
O24   Zn1   S    
O11   Zn6   S    
C149  O17   A    
C107  C116  A    
C90   H21   S    
O2    Zn8   S    
C86   C95   A    
C75   C89   A    
C143  O3    A    
C20   C36   A    
C68   H11   S    
O25   Zn7   S    
C132  H49   S    
O45   Zn9   S    
C74   C153  S    
C86   H29   S    
C46   H6    S    
C32   C42   A    
O39   Zn3   S    
O40   Zn12  S    
C1    O1    A    
C3    C140  A    
C103  H37   S    
C73   C96   A    
O28   Zn4   S    
O31   Zn12  S    
C102  C128  S    
C137  C154  A    
C99   H33   S    
C104  H38   S    
C117  H42   S    
C91   O34   A    
C97   C106  A    
