data_mof_unit_31309.cif
_audit_creation_date              2012-10-26T21:15:22-0400
_audit_creation_method            fapswitch 2.2
_symmetry_space_group_name_H-M    P1
_symmetry_Int_Tables_number       1
_space_group_crystal_system       triclinic
_cell_length_a                    10.599077
_cell_length_b                    10.906125
_cell_length_c                    9.950278
_cell_angle_alpha                 89.906368
_cell_angle_beta                  88.503034
_cell_angle_gamma                 95.65933
_cell_volume                      1144.19380369

loop_
_atom_site_label
_atom_site_type_symbol
_atom_type_description
_atom_site_fract_x
_atom_site_fract_y
_atom_site_fract_z
_atom_type_partial_charge
C1    C     C_R   0.508127 0.267199 0.499909 0.581484
C2    C     C_2   0.418935 0.428311 0.078875 0.331820
C3    C     C_R   0.260211 0.502228 0.501003 0.566384
C4    C     C_R   0.496825 0.733464 0.500072 0.529793
C5    C     C_R   0.739953 0.501118 0.498955 0.560556
C6    C     C_3   0.030006 0.392554 0.540842 -0.077811
C7    C     C_3   0.952868 0.415635 0.415011 -0.098695
C8    C     C_3   0.877268 0.502173 0.498379 0.040367
C9    C     C_3   0.952272 0.479255 0.624474 -0.063888
C10   C     C_3   0.047243 0.591028 0.584933 -0.106057
C11   C     C_3   0.969750 0.613972 0.459333 -0.142550
C12   C     C_3   0.047712 0.527593 0.375717 -0.104150
C13   C     C_3   0.122859 0.504162 0.501657 0.041749
C14   C     C_2   0.509209 0.934444 0.392813 -0.108743
C15   C     C_2   0.483842 0.864090 0.501840 -0.048967
C16   C     C_2   0.495865 0.066130 0.398492 -0.148545
C17   C     C_2   0.537909 0.139977 0.499757 0.233931
C18   C     C_2   0.408357 0.438451 0.923919 0.346613
Cu1   Cu    Cu3+1 0.500030 0.500020 0.638630 1.168228
Cu2   Cu    Cu3+1 0.499970 0.499980 0.361370 1.177594
H1    H     H_    0.088689 0.551664 0.274351 0.199582
H2    H     H_    0.910917 0.459153 0.726761 0.183863
H3    H     H_    0.088667 0.662756 0.654393 0.168225
H4    H     H_    0.941797 0.704251 0.425434 0.157294
H5    H     H_    0.531936 0.894610 0.296276 0.197844
H6    H     H_    0.452421 0.903470 0.595429 0.178140
H7    H     H_    0.444789 0.102618 0.316706 0.186737
H8    H     H_    0.911020 0.344097 0.345581 0.151949
H9    H     H_    0.801099 0.196874 0.728562 0.366597
H10   H     H_    0.079811 0.258147 0.870609 0.351670
H11   H     H_    0.587747 0.485694 0.875224 0.260247
H12   H     H_    0.094101 0.311429 0.175035 0.369648
H13   H     H_    0.746605 0.755738 0.171436 0.359233
H14   H     H_    0.057169 0.301959 0.574627 0.170767
N1    N     N_2   0.498620 0.498660 0.846910 -0.322799
N2    N     N_2   0.498590 0.498630 0.153040 -0.106046
O1    O     O_R   0.500020 0.321960 0.617040 -0.424134
O2    O     O_2   0.726378 0.002110 0.568352 -0.279490
O3    O     O_3   0.743942 0.225166 0.660194 -0.540572
O4    O     O_2   0.183055 0.476662 0.822695 -0.302954
O5    O     O_2   0.287639 0.303260 0.722627 -0.268626
O6    O     O_3   0.156734 0.264232 0.925746 -0.416629
O7    O     O_2   0.305953 0.197329 0.087611 -0.227587
O8    O     O_2   0.296301 0.287193 0.304171 -0.293443
O9    O     O_3   0.158691 0.375202 0.137711 -0.495911
O10   O     O_2   0.726483 0.545979 0.033068 -0.315869
O11   O     O_2   0.567284 0.692489 0.990909 -0.267282
O12   O     O_R   0.499980 0.321920 0.382900 -0.497549
O13   O     O_3   0.680113 0.698306 0.216002 -0.474279
O14   O     O_R   0.316870 0.499990 0.617050 -0.428703
O15   O     O_R   0.316830 0.499950 0.382910 -0.473791
O16   O     O_R   0.500020 0.678080 0.617100 -0.476683
O17   O     O_R   0.499980 0.678040 0.382960 -0.460828
O18   O     O_R   0.683170 0.500050 0.617090 -0.503861
O19   O     O_R   0.683130 0.500010 0.382950 -0.456968
O20   O     O_2   0.575735 0.052962 0.746926 -0.241505
S1    S     S_3+6 0.647225 0.099269 0.621531 0.023018
S2    S     S_3+6 0.259604 0.370622 0.849071 0.110146
S3    S     S_3+6 0.298924 0.318333 0.158307 0.072340
S4    S     S_3+6 0.617934 0.608862 0.092412 0.089098

loop_
_geom_bond_atom_site_label_1
_geom_bond_atom_site_label_2
_ccdc_geom_bond_type
C8    C9    S    
C5    C8    S    
C11   C12   S    
C1    O12   A    
C6    C7    S    
C1    O1    A    
C4    O17   A    
C2    C18   S    
O2    S1    D    
H12   O9    S    
C11   H4    S    
C1    C17   S    
Cu1   Cu2   S    
C3    C13   S    
O7    S3    D    
H9    O3    S    
C4    C15   S    
C7    C8    S    
Cu1   N1    S    
C12   C13   S    
C6    C13   S    
Cu1   O14   S    
O6    S2    S    
Cu2   O12   S    
O13   S4    S    
C16   H7    S    
C8    C11   S    
C5    O19   A    
Cu1   O16   S    
Cu1   O18   S    
C3    O14   A    
C4    O16   A    
O5    S2    D    
Cu2   O15   S    
C14   C16   S    
Cu2   O19   S    
C14   H5    S    
C7    C12   S    
C10   H3    S    
H11   N1    S    
C9    H2    S    
O4    S2    D    
C10   C11   S    
O8    S3    D    
H13   O13   S    
Cu2   N2    S    
C5    O18   A    
C6    C9    S    
O20   S1    D    
C18   N1    D    
O9    S3    S    
C9    C10   S    
C2    N2    D    
C3    O15   A    
C14   C15   D    
Cu2   O17   S    
C15   H6    S    
Cu1   O1    S    
O10   S4    D    
O11   S4    D    
C2    S3    S    
C12   H1    S    
C18   S2    S    
H10   O6    S    
C7    H8    S    
C6    H14   S    
C17   S1    S    
C16   C17   D    
N2    S4    S    
C10   C13   S    
O3    S1    S    
