data_mof_unit_23815.cif
_audit_creation_date              2012-12-10T17:42:10-0500
_audit_creation_method            fapswitch 2.2
_symmetry_space_group_name_H-M    P1
_symmetry_Int_Tables_number       1
_space_group_crystal_system       triclinic
_cell_length_a                    14.990344
_cell_length_b                    13.751873
_cell_length_c                    10.73113
_cell_angle_alpha                 90.093183
_cell_angle_beta                  89.622835
_cell_angle_gamma                 89.542323
_cell_volume                      2212.05046478

loop_
_atom_site_label
_atom_site_type_symbol
_atom_type_description
_atom_site_fract_x
_atom_site_fract_y
_atom_site_fract_z
_atom_type_partial_charge
C1    C     C_R   0.328844 0.500042 0.500695 0.884235
C2    C     C_3   0.587749 0.559583 0.926411 0.928943
C3    C     C_R   0.814280 0.449832 0.405213 -0.276506
C4    C     C_R   0.767445 0.498786 0.499676 -0.047007
C5    C     C_R   0.812354 0.546747 0.595083 -0.238080
C6    C     C_R   0.905230 0.544654 0.598339 0.106239
C7    C     C_R   0.953070 0.497329 0.501697 0.090853
C8    C     C_R   0.907344 0.450244 0.404260 0.118763
C9    C     C_R   0.950969 0.588668 0.696569 -0.252489
C10   C     C_R   0.043937 0.586132 0.699215 -0.166947
C11   C     C_R   0.092308 0.541291 0.602228 0.011285
C12   C     C_R   0.500672 0.499779 0.259886 0.770888
C13   C     C_R   0.046626 0.497104 0.502504 -0.019539
C14   C     C_R   0.094429 0.452015 0.404056 0.121232
C15   C     C_R   0.048477 0.406135 0.307261 -0.188407
C16   C     C_R   0.955416 0.404697 0.307788 -0.226978
C17   C     C_R   0.185483 0.539506 0.602765 0.489862
C18   C     C_R   0.232351 0.499199 0.501856 -0.172068
C19   C     C_R   0.187407 0.454037 0.404087 -0.358056
C20   C     C_R   0.457041 0.795101 0.592940 0.637739
C21   C     C_R   0.457468 0.206372 0.593384 0.626366
C22   C     C_R   0.543896 0.792393 0.406981 -0.041265
C23   C     C_R   0.543806 0.206668 0.406907 -0.048436
C24   C     C_R   0.547978 0.895657 0.405073 -0.185794
C25   C     C_R   0.548051 0.103437 0.405287 -0.184745
C26   C     C_R   0.671101 0.499642 0.499277 0.820932
C27   C     C_R   0.508159 0.948350 0.503608 -0.025745
C28   C     C_R   0.507855 0.051845 0.503516 -0.021287
C29   C     C_R   0.466361 0.897656 0.601405 -0.045845
C30   C     C_R   0.465481 0.103704 0.601052 -0.035694
C31   C     C_R   0.590878 0.947491 0.307781 0.435354
C32   C     C_R   0.591631 0.050730 0.308586 0.430790
C33   C     C_R   0.432683 0.051972 0.704165 -0.193447
C34   C     C_R   0.433864 0.950492 0.704825 -0.189672
C35   C     C_R   0.501410 0.500105 0.740292 0.871614
C36   C     C_3   0.415837 0.546783 0.072524 -0.417999
C37   C     C_3   0.510513 0.394156 0.071071 -0.395273
C38   C     C_3   0.416673 0.547241 0.929244 -0.397628
C39   C     C_3   0.510399 0.394779 0.928659 -0.424232
C40   C     C_3   0.583842 0.557812 0.074241 -0.474725
C41   C     C_3   0.502572 0.499453 0.122071 0.078365
C42   C     C_3   0.504610 0.500918 0.878720 0.015198
Cu1   Cu    Cu3+1 0.499990 0.597420 0.500010 0.995108
Cu2   Cu    Cu3+1 0.499990 0.402580 0.500010 0.971053
H1    H     H_    0.409164 0.622801 0.107386 0.194836
H2    H     H_    0.573242 0.359302 0.104534 0.183003
H3    H     H_    0.077830 0.620398 0.776360 0.187769
H4    H     H_    0.225041 0.420935 0.328190 0.154582
H5    H     H_    0.084526 0.371161 0.231431 0.140788
H6    H     H_    0.921032 0.368558 0.232450 0.136896
H7    H     H_    0.575256 0.750265 0.333623 0.180815
H8    H     H_    0.575217 0.247986 0.333357 0.181308
H9    H     H_    0.405509 0.089636 0.784713 0.172410
H10   H     H_    0.407148 0.913510 0.785726 0.178538
H11   H     H_    0.356805 0.505898 0.106917 0.166107
H12   H     H_    0.453721 0.349548 0.105245 0.193469
H13   H     H_    0.358382 0.505730 0.894493 0.205968
H14   H     H_    0.452262 0.352142 0.895763 0.226511
H15   H     H_    0.408721 0.623167 0.895247 0.249657
H16   H     H_    0.571728 0.357642 0.893102 0.215017
H17   H     H_    0.577037 0.633625 0.109653 0.180949
H18   H     H_    0.644030 0.528781 0.120627 0.116007
H19   H     H_    0.778135 0.413389 0.331588 0.125161
H20   H     H_    0.774760 0.583842 0.667721 0.166318
H21   H     H_    0.914803 0.624565 0.771617 0.139696
N1    N     N_R   0.499930 0.743810 0.499950 -0.232985
N2    N     N_R   0.499930 0.256190 0.499950 -0.229133
O1    O     O_R   0.370250 0.582280 0.500040 -0.560558
O2    O     O_R   0.370250 0.417720 0.500040 -0.575999
O3    O     O_R   0.499970 0.582270 0.317700 -0.605643
O4    O     O_R   0.499970 0.417730 0.317700 -0.607750
O5    O     O_R   0.629730 0.582260 0.499980 -0.589442
O6    O     O_R   0.629730 0.417740 0.499980 -0.583750
O7    O     O_R   0.500000 0.582270 0.682320 -0.497066
O8    O     O_R   0.500000 0.417730 0.682320 -0.549147
F1    F     F_    0.230658 0.572229 0.703481 -0.725125
O9    O     O_3   0.406246 0.745931 0.680048 -0.554987
C43   C     C_3   0.314726 0.765709 0.658991 -0.266942
H22   H     H_    0.276017 0.739266 0.740232 0.231628
H23   H     H_    0.291112 0.728405 0.573865 0.199253
H24   H     H_    0.298402 0.844267 0.650213 0.105956
O10   O     O_3   0.407880 0.257458 0.680986 -0.581019
C44   C     C_3   0.316173 0.247970 0.653860 -0.315423
H25   H     H_    0.279183 0.307959 0.700970 0.198567
H26   H     H_    0.289741 0.178537 0.690759 0.141782
H27   H     H_    0.301570 0.253027 0.552325 0.168185
O11   O     O_3   0.626455 0.898742 0.205712 -0.549530
C45   C     C_3   0.711926 0.860773 0.234327 -0.352672
H28   H     H_    0.735661 0.876060 0.330799 0.135387
H29   H     H_    0.761202 0.891186 0.167694 0.187802
H30   H     H_    0.711617 0.780770 0.220707 0.162950
O12   O     O_3   0.629613 0.099279 0.208933 -0.552370
C46   C     C_3   0.718050 0.123649 0.239790 -0.335198
H31   H     H_    0.759370 0.057783 0.257662 0.163507
H32   H     H_    0.720612 0.173144 0.321750 0.146130
H33   H     H_    0.748361 0.162478 0.159703 0.186451
O13   O     O_3   0.576281 0.657542 0.885221 -0.586511
C47   C     C_3   0.654864 0.712992 0.894543 -0.236584
H34   H     H_    0.705342 0.689095 0.824612 0.173500
H35   H     H_    0.683109 0.711612 0.989884 0.133089
H36   H     H_    0.637919 0.789843 0.873376 0.193350
O14   O     O_3   0.664091 0.516204 0.865190 -0.624091
C48   C     C_3   0.739649 0.497833 0.939352 -0.436264
H37   H     H_    0.728386 0.433698 0.000089 0.179086
H38   H     H_    0.760168 0.562708 0.993345 0.159535
H39   H     H_    0.796288 0.478836 0.876674 0.209271

loop_
_geom_bond_atom_site_label_1
_geom_bond_atom_site_label_2
_ccdc_geom_bond_type
O11   C45   S    
C35   O7    A    
C46   H31   S    
C27   C29   A    
C26   O5    A    
C24   C27   A    
C26   O6    A    
C6    C9    A    
O13   C47   S    
C7    C8    A    
O9    C43   S    
C25   C28   A    
C35   O8    A    
C1    C18   S    
Cu1   O5    S    
C20   O9    S    
C20   N1    A    
C16   H6    S    
C38   C42   S    
C5    C6    A    
C43   H23   S    
C2    O14   S    
C15   C16   A    
C1    O1    A    
C40   H18   S    
Cu2   O4    S    
C18   C19   A    
C23   N2    A    
C35   C42   S    
C22   N1    A    
C37   H12   S    
C31   C32   A    
C2    O13   S    
Cu1   O1    S    
C17   F1    S    
C9    C10   A    
Cu1   O7    S    
C23   C25   A    
C46   H32   S    
C13   C14   A    
C21   N2    A    
C36   C41   S    
O14   C48   S    
C17   C18   A    
C39   C42   S    
C20   C29   A    
C33   H9    S    
C31   O11   S    
Cu2   O2    S    
C3    C8    A    
C43   H22   S    
C39   H14   S    
C29   C34   A    
O10   C44   S    
C1    O2    A    
C40   H17   S    
C5    H20   S    
Cu2   O8    S    
Cu1   Cu2   S    
C12   C41   S    
C38   H13   S    
C44   H25   S    
C45   H30   S    
C33   C34   A    
C36   H1    S    
C48   H38   S    
C21   O10   S    
C40   C41   S    
C44   H26   S    
C12   O4    A    
C45   H29   S    
C34   H10   S    
C46   H33   S    
C47   H35   S    
C22   C24   A    
C3    C4    A    
C48   H37   S    
C12   O3    A    
C11   C17   A    
C30   C33   A    
C19   H4    S    
C14   C19   A    
C4    C5    A    
C4    C26   S    
C6    C7    A    
C3    H19   S    
Cu1   O3    S    
C47   H36   S    
C21   C30   A    
C36   C38   S    
C24   C31   A    
C37   C39   S    
C36   H11   S    
C11   C13   A    
C43   H24   S    
C23   H8    S    
C32   O12   S    
C2    C42   S    
Cu1   N1    S    
C39   H16   S    
C28   C30   A    
O12   C46   S    
C48   H39   S    
C15   H5    S    
C37   C41   S    
Cu2   O6    S    
C9    H21   S    
C10   C11   A    
C38   H15   S    
C2    C40   S    
C7    C13   A    
C44   H27   S    
C45   H28   S    
C8    C16   A    
C47   H34   S    
C10   H3    S    
C14   C15   A    
Cu2   N2    S    
C37   H2    S    
C22   H7    S    
C27   C28   A    
C25   C32   A    
