data_mof_unit_29673.cif
_audit_creation_date              2012-12-10T16:46:46-0500
_audit_creation_method            fapswitch 2.2
_symmetry_space_group_name_H-M    P1
_symmetry_Int_Tables_number       1
_space_group_crystal_system       triclinic
_cell_length_a                    15.851386
_cell_length_b                    8.680348
_cell_length_c                    7.447964
_cell_angle_alpha                 103.066551
_cell_angle_beta                  94.085095
_cell_angle_gamma                 92.196489
_cell_volume                      994.172508844

loop_
_atom_site_label
_atom_site_type_symbol
_atom_type_description
_atom_site_fract_x
_atom_site_fract_y
_atom_site_fract_z
_atom_type_partial_charge
C1    C     C_R   0.497318 0.199671 0.453194 0.883343
C2    C     C_3   0.946442 0.333889 0.522669 -0.411375
C3    C     C_3   0.916979 0.496228 0.496163 0.315869
C4    C     C_3   0.958478 0.628654 0.657881 -0.380100
C5    C     C_3   0.056320 0.628877 0.660723 -0.421590
C6    C     C_1   0.824760 0.498072 0.492691 -0.107442
C7    C     C_1   0.175301 0.496995 0.506937 -0.107637
C8    C     C_1   0.250890 0.498697 0.507147 -0.172753
C9    C     C_2   0.495881 0.031690 0.426907 -0.371608
C10   C     C_2   0.503406 0.968267 0.573117 -0.374660
C11   C     C_R   0.340337 0.499690 0.502508 0.824239
C12   C     C_R   0.502382 0.800313 0.546820 0.877961
C13   C     C_R   0.659696 0.500224 0.497493 0.823777
C14   C     C_3   0.044998 0.333451 0.532960 -0.113159
C15   C     C_3   0.045120 0.526827 0.317792 -0.384538
C16   C     C_3   0.947248 0.523965 0.312124 -0.384016
C17   C     C_1   0.749181 0.499155 0.492674 -0.175103
C18   C     C_3   0.082908 0.494365 0.502814 0.296442
Cu1   Cu    Cu3+1 0.509300 0.517380 0.684380 0.949855
Cu2   Cu    Cu3+1 0.490700 0.482620 0.315620 0.951395
H1    H     H_    0.916225 0.237566 0.409114 0.162032
H2    H     H_    0.065607 0.330556 0.678451 0.113947
H3    H     H_    0.923947 0.311064 0.653076 0.148558
H4    H     H_    0.937324 0.746239 0.642848 0.165664
H5    H     H_    0.488758 0.959898 0.286096 0.179699
H6    H     H_    0.510481 0.040058 0.713930 0.179990
H7    H     H_    0.434855 0.376684 0.948591 0.225896
H8    H     H_    0.565130 0.623336 0.051415 0.225666
H9    H     H_    0.069380 0.645253 0.304349 0.176224
H10   H     H_    0.065774 0.440496 0.197291 0.159298
H11   H     H_    0.919385 0.429041 0.193947 0.155014
H12   H     H_    0.925202 0.638500 0.288296 0.169051
H13   H     H_    0.083153 0.613350 0.797365 0.156517
H14   H     H_    0.081884 0.745920 0.644761 0.173423
H15   H     H_    0.938318 0.610221 0.792012 0.163240
N1    N     N_2   0.476670 0.456430 0.038530 -0.215767
N2    N     N_2   0.523330 0.543570 0.961470 -0.215782
O1    O     O_R   0.506050 0.286130 0.619770 -0.584428
O2    O     O_R   0.490330 0.256780 0.308370 -0.585433
O3    O     O_R   0.387300 0.514690 0.655770 -0.585441
O4    O     O_R   0.371580 0.485340 0.344370 -0.575003
O5    O     O_R   0.509670 0.743220 0.691630 -0.586676
O6    O     O_R   0.493950 0.713870 0.380230 -0.585022
O7    O     O_R   0.628420 0.514660 0.655630 -0.575913
O8    O     O_R   0.612700 0.485310 0.344230 -0.583584
C19   C     C_R   0.077469 0.185840 0.408957 0.139297
C20   C     C_R   0.138037 0.098286 0.484393 -0.168704
C21   C     C_R   0.169287 0.963448 0.374383 -0.137160
C22   C     C_R   0.140539 0.913833 0.187794 -0.121573
C23   C     C_R   0.080035 0.998270 0.111176 -0.154414
C24   C     C_R   0.048516 0.133136 0.220566 -0.144112
H16   H     H_    0.161650 0.134778 0.628533 0.114853
H17   H     H_    0.215827 0.897284 0.433976 0.130732
H18   H     H_    0.164742 0.809335 0.102893 0.121960
H19   H     H_    0.057248 0.958913 0.966845 0.123916
H20   H     H_    0.000769 0.194166 0.157594 0.115137

loop_
_geom_bond_atom_site_label_1
_geom_bond_atom_site_label_2
_ccdc_geom_bond_type
C15   C18   S    
C15   H9    S    
C20   H16   S    
Cu1   O1    S    
H7    N1    S    
C16   H12   S    
C9    C10   D    
C14   C18   S    
Cu1   Cu2   S    
Cu1   O5    S    
C13   C17   S    
C3    C6    S    
C5    H14   S    
C10   H6    S    
C2    H1    S    
C23   C24   A    
C3    C4    S    
C4    H15   S    
C9    H5    S    
C7    C8    T    
C14   C19   S    
C7    C18   S    
C16   H11   S    
C13   O8    A    
C14   H2    S    
C21   H17   S    
C10   C12   S    
C1    O1    A    
C8    C11   S    
Cu2   O4    S    
C15   C16   S    
H8    N2    S    
N1    N2    D    
C11   O4    A    
C12   O6    A    
C2    C3    S    
C11   O3    A    
C4    H4    S    
Cu1   O3    S    
C1    O2    A    
C22   H18   S    
Cu2   N1    S    
C20   C21   A    
Cu2   O6    S    
C1    C9    S    
Cu1   O7    S    
C15   H10   S    
C24   H20   S    
Cu2   O8    S    
C2    C14   S    
C2    H3    S    
C22   C23   A    
Cu2   O2    S    
C19   C20   A    
C21   C22   A    
C12   O5    A    
C5    C18   S    
Cu1   N2    S    
C6    C17   T    
C19   C24   A    
C13   O7    A    
C3    C16   S    
C23   H19   S    
C4    C5    S    
C5    H13   S    
