data_mof_unit_14726.cif
_audit_creation_date              2012-12-11T15:54:38-0500
_audit_creation_method            fapswitch 2.2
_symmetry_space_group_name_H-M    P1
_symmetry_Int_Tables_number       1
_space_group_crystal_system       triclinic
_cell_length_a                    6.929386
_cell_length_b                    14.518065
_cell_length_c                    16.131653
_cell_angle_alpha                 89.963567
_cell_angle_beta                  89.388492
_cell_angle_gamma                 90.082055
_cell_volume                      1622.77044455

loop_
_atom_site_label
_atom_site_type_symbol
_atom_type_description
_atom_site_fract_x
_atom_site_fract_y
_atom_site_fract_z
_atom_type_partial_charge
O1    O     O_R   0.638180 0.333920 0.163320 -0.526370
O2    O     O_R   0.361820 0.666080 0.836680 -0.526370
O3    O     O_R   0.308470 0.344960 0.336080 -0.522892
O4    O     O_R   0.691530 0.655040 0.663920 -0.522892
O5    O     O_R   0.138140 0.166110 0.336680 -0.539777
O6    O     O_R   0.861860 0.833890 0.663320 -0.539777
C1    C     C_R   0.476602 0.368816 0.363723 0.741446
C2    C     C_R   0.523398 0.631184 0.636276 0.741447
O7    O     O_R   0.308460 0.344950 0.163930 -0.530038
O8    O     O_R   0.691540 0.655050 0.836070 -0.530038
O9    O     O_R   0.138140 0.166100 0.163310 -0.549718
O10   O     O_R   0.861860 0.833900 0.836690 -0.549719
C3    C     C_R   0.478896 0.369073 0.136635 0.740951
C4    C     C_R   0.521104 0.630927 0.863365 0.740951
O11   O     O_R   0.638180 0.333930 0.336700 -0.536183
O12   O     O_R   0.361820 0.666070 0.663300 -0.536183
O13   O     O_3   0.471670 0.191340 0.250000 -0.383739
O14   O     O_3   0.528330 0.808660 0.750000 -0.383739
V1    V     V_3+5 0.196830 0.260900 0.250000 1.501818
V2    V     V_3+5 0.803170 0.739100 0.750000 1.501818
O15   O     O_R   0.808420 0.155070 0.163920 -0.547171
O16   O     O_R   0.191580 0.844930 0.836080 -0.547171
C5    C     C_R   0.977890 0.132746 0.135029 0.669317
C6    C     C_R   0.022110 0.867254 0.864971 0.669318
O17   O     O_R   0.808420 0.155080 0.336070 -0.544719
O18   O     O_R   0.191580 0.844920 0.663930 -0.544719
C7    C     C_R   0.976595 0.133015 0.364673 0.687310
C8    C     C_R   0.023404 0.866985 0.635327 0.687310
V3    V     V_3+5 0.696830 0.239130 0.250000 1.466879
V4    V     V_3+5 0.303170 0.760870 0.750000 1.466878
O19   O     O_3   0.971850 0.308690 0.250010 -0.334676
O20   O     O_3   0.028150 0.691310 0.749990 -0.334676
H1    H     H_    0.301045 0.851504 0.268661 0.126290
H2    H     H_    0.698955 0.148496 0.731339 0.126290
C9    C     C_R   0.815889 0.171526 0.527752 -0.140289
C10   C     C_R   0.184111 0.828474 0.472248 -0.140289
C11   C     C_R   0.740761 0.193285 0.605719 -0.094070
C12   C     C_R   0.259239 0.806714 0.394281 -0.094070
C13   C     C_R   0.755994 0.130939 0.670649 -0.104295
C14   C     C_R   0.244006 0.869061 0.329351 -0.104294
C15   C     C_R   0.845975 0.046270 0.658032 -0.139198
C16   C     C_R   0.154025 0.953730 0.341968 -0.139198
C17   C     C_R   0.921446 0.021594 0.579195 0.068240
C18   C     C_R   0.078554 0.978406 0.420805 0.068240
C19   C     C_R   0.906603 0.085782 0.512639 0.067758
C20   C     C_R   0.093397 0.914218 0.487361 0.067759
C21   C     C_R   0.014401 0.935583 0.566612 -0.182452
C22   C     C_R   0.985599 0.064417 0.433388 -0.182453
H3    H     H_    0.802907 0.222973 0.479812 0.108167
H4    H     H_    0.197093 0.777027 0.520188 0.108167
H5    H     H_    0.671618 0.259202 0.615920 0.142614
H6    H     H_    0.328382 0.740798 0.384080 0.142614
H7    H     H_    0.857265 0.001106 0.711089 0.104924
H8    H     H_    0.142735 0.998894 0.288911 0.104925
C23   C     C_R   0.179469 0.973623 0.967663 -0.145355
C24   C     C_R   0.820531 0.026377 0.032337 -0.145355
H9    H     H_    0.320364 0.954296 0.943868 0.114535
H10   H     H_    0.679636 0.045704 0.056132 0.114535
C25   C     C_R   0.168792 0.037089 0.032937 -0.151674
C26   C     C_R   0.831208 0.962911 0.967063 -0.151675
H11   H     H_    0.301809 0.064840 0.057227 0.115342
H12   H     H_    0.698191 0.935160 0.942773 0.115342
C27   C     C_R   0.989171 0.064384 0.066221 -0.043050
C28   C     C_R   0.010829 0.935616 0.933779 -0.043049
C29   C     C_R   0.339757 0.503723 0.447411 0.174876
C30   C     C_R   0.660243 0.496277 0.552589 0.174876
C31   C     C_R   0.355223 0.564433 0.514411 -0.179789
C32   C     C_R   0.644777 0.435567 0.485589 -0.179790
H13   H     H_    0.241890 0.614565 0.524097 0.151436
H14   H     H_    0.758110 0.385435 0.475903 0.151436
C33   C     C_R   0.514425 0.562609 0.567615 -0.114898
C34   C     C_R   0.485575 0.437391 0.432385 -0.114898
C35   C     C_R   0.342651 0.440971 0.009915 -0.174627
C36   C     C_R   0.657349 0.559029 0.990085 -0.174627
H15   H     H_    0.221110 0.394309 0.015821 0.157993
H16   H     H_    0.778889 0.605691 0.984178 0.157993
C37   C     C_R   0.349582 0.501702 0.942438 0.166913
C38   C     C_R   0.650418 0.498298 0.057561 0.166913
C39   C     C_R   0.508376 0.562326 0.931923 -0.119215
C40   C     C_R   0.491623 0.437674 0.068077 -0.119215
I1    I     I_    0.118934 0.489825 0.857729 -0.339561
I2    I     I_    0.881066 0.510175 0.142271 -0.339560
I3    I     I_    0.096307 0.524475 0.370798 -0.363052
I4    I     I_    0.903693 0.475525 0.629202 -0.363052

loop_
_geom_bond_atom_site_label_1
_geom_bond_atom_site_label_2
_ccdc_geom_bond_type
C7    C22   S    
C30   C32   A    
C8    C21   S    
C23   C25   A    
O13   V3    S    
O4    C2    A    
V1    O19   S    
C13   C15   A    
O9    V1    S    
C36   H16   S    
C9    C11   A    
O3    C1    A    
C11   H5    S    
C38   C40   A    
C29   I3    S    
C12   H6    S    
O12   V4    S    
C26   H12   S    
O9    C5    A    
O7    C3    A    
O5    C7    A    
O7    V1    S    
O6    C8    A    
O8    V2    S    
C29   C31   A    
C9    H3    S    
O3    V1    S    
O14   V4    S    
V4    O20   S    
C31   C33   A    
C14   C16   A    
C3    C40   S    
C2    O12   A    
V3    O19   S    
C15   C17   A    
C16   C18   A    
C18   C20   A    
O11   V3    S    
C37   C39   A    
O15   C5    A    
O17   V3    S    
C25   H11   S    
H1    C14   S    
H2    C13   S    
O8    C4    A    
C1    C34   S    
C1    O11   A    
O15   V3    S    
C24   C26   A    
C31   H13   S    
C38   I2    S    
C30   C33   A    
C37   I1    S    
C32   C34   A    
C23   C28   A    
O10   V2    S    
O1    V3    S    
C24   C27   A    
C4    C39   S    
C10   C20   A    
C17   C19   A    
C15   H7    S    
O18   V4    S    
C36   C39   A    
C23   H9    S    
O16   C6    A    
O1    C3    A    
C35   H15   S    
C9    C19   A    
C10   H4    S    
V2    O20   S    
C19   C22   A    
C20   C21   A    
C2    C33   S    
O16   V4    S    
C25   C27   A    
O5    V1    S    
O17   C7    A    
C29   C34   A    
O6    V2    S    
O10   C6    A    
O18   C8    A    
O2    V4    S    
C26   C28   A    
C10   C12   A    
C11   C13   A    
C16   H8    S    
C12   C14   A    
C5    C27   S    
O13   V1    S    
C35   C40   A    
C24   H10   S    
C6    C28   S    
O14   V2    S    
O2    C4    A    
C30   I4    S    
O4    V2    S    
C32   H14   S    
C36   C38   A    
C35   C37   A    
C17   C21   A    
C18   C22   A    
