data_mof_unit_62679.cif
_audit_creation_date              2012-12-10T18:54:01-0500
_audit_creation_method            fapswitch 2.2
_symmetry_space_group_name_H-M    P1
_symmetry_Int_Tables_number       1
_space_group_crystal_system       triclinic
_cell_length_a                    19.449566
_cell_length_b                    19.393661
_cell_length_c                    19.469944
_cell_angle_alpha                 85.05217
_cell_angle_beta                  95.338577
_cell_angle_gamma                 89.912769
_cell_volume                      7284.58804887

loop_
_atom_site_label
_atom_site_type_symbol
_atom_type_description
_atom_site_fract_x
_atom_site_fract_y
_atom_site_fract_z
_atom_type_partial_charge
C1    C     C_R   0.311885 0.491399 0.490902 0.525146
C2    C     C_2   0.467323 0.982913 0.489760 0.259570
C3    C     C_2   0.517196 0.017335 0.524789 -0.100584
C4    C     C_R   0.688174 0.507220 0.508157 0.497960
C5    C     C_R   0.511822 0.236827 0.511735 0.045881
C6    C     C_R   0.763634 0.506528 0.515155 0.012392
C7    C     C_R   0.799344 0.453535 0.488761 -0.127187
C8    C     C_R   0.870864 0.451499 0.496561 -0.131349
C9    C     C_R   0.908077 0.503213 0.529699 0.045373
C10   C     C_R   0.872416 0.555796 0.557673 0.098012
C11   C     C_R   0.800426 0.557111 0.550257 -0.096183
C12   C     C_R   0.470990 0.906693 0.491746 0.034802
C13   C     C_R   0.123807 0.499135 0.420994 0.301791
C14   C     C_R   0.196028 0.498680 0.422052 0.107289
C15   C     C_R   0.205141 0.472550 0.547242 -0.161308
C16   C     C_R   0.508773 0.492191 0.688779 0.510168
C17   C     C_R   0.133896 0.470327 0.545747 -0.159162
C18   C     C_R   0.092728 0.484585 0.483102 0.024823
C19   C     C_2   0.983793 0.502371 0.533954 -0.131919
C20   C     C_2   0.017155 0.482925 0.481500 -0.125648
C21   C     C_R   0.236715 0.487626 0.486104 0.002882
C22   C     C_R   0.482344 0.504764 0.235234 -0.002799
C23   C     C_R   0.449475 0.874124 0.431970 -0.107827
C24   C     C_R   0.513666 0.452786 0.201403 0.076370
C25   C     C_R   0.504056 0.454230 0.129791 -0.144466
C26   C     C_R   0.464035 0.506137 0.090484 0.024138
C27   C     C_R   0.429195 0.555171 0.123537 0.282715
C28   C     C_R   0.490570 0.506434 0.310926 0.523188
C29   C     C_R   0.439997 0.555260 0.195608 -0.118353
C30   C     C_R   0.454118 0.470905 0.868769 -0.127235
C31   C     C_R   0.453748 0.469162 0.797583 -0.171365
C32   C     C_R   0.572211 0.510347 0.803344 0.275740
C33   C     C_R   0.571958 0.512269 0.874767 -0.086088
C34   C     C_R   0.455757 0.802637 0.431895 -0.132435
C35   C     C_R   0.512911 0.493571 0.907450 -0.005683
C36   C     C_2   0.459296 0.508666 0.014677 -0.094068
C37   C     C_2   0.515205 0.495288 0.982564 -0.136857
C38   C     C_R   0.511976 0.490167 0.764189 0.043029
C39   C     C_R   0.508297 0.312039 0.508304 0.515176
C40   C     C_R   0.491229 0.688224 0.491881 0.501108
C41   C     C_R   0.484430 0.763168 0.491411 0.042256
C42   C     C_R   0.504764 0.795461 0.551552 -0.114772
C43   C     C_R   0.497219 0.866593 0.552064 -0.147927
C44   C     C_3   0.067432 0.581655 0.347063 -0.101142
C45   C     C_R   0.519057 0.130691 0.455941 -0.040778
C46   C     C_3   0.447154 0.242656 0.355039 -0.086957
C47   C     C_3   0.674911 0.473712 0.773199 -0.100522
C48   C     C_3   0.319865 0.594356 0.091897 -0.115514
C49   C     C_3   0.352566 0.008507 0.472214 -0.117444
C50   C     C_R   0.515026 0.202774 0.451062 0.266837
C51   C     C_R   0.511546 0.198500 0.576141 -0.171764
C52   C     C_R   0.515222 0.126630 0.580462 -0.143401
C53   C     C_R   0.517757 0.092760 0.520300 0.016059
H1    H     H_    0.525458 0.765578 0.598527 0.143908
H2    H     H_    0.407387 0.452716 0.768434 0.139745
H3    H     H_    0.565167 0.487479 0.012339 0.128397
H4    H     H_    0.408692 0.453975 0.893446 0.120475
H5    H     H_    0.415645 0.595569 0.220334 0.154972
H6    H     H_    0.410710 0.524051 0.985211 0.153505
H7    H     H_    0.528146 0.414190 0.104463 0.142727
H8    H     H_    0.509065 0.224269 0.623073 0.133982
H9    H     H_    0.617815 0.529040 0.904566 0.127240
H10   H     H_    0.557635 0.990247 0.558930 0.082840
H11   H     H_    0.428888 0.904108 0.385028 0.152596
H12   H     H_    0.514527 0.097382 0.630380 0.121961
H13   H     H_    0.522172 0.104341 0.409437 0.157067
H14   H     H_    0.439366 0.778387 0.385095 0.136428
H15   H     H_    0.511729 0.889954 0.599752 0.104203
H16   H     H_    0.114858 0.613511 0.344729 0.140624
H17   H     H_    0.035862 0.598874 0.387357 0.123806
H18   H     H_    0.036355 0.590998 0.296366 0.155869
H19   H     H_    0.411629 0.268820 0.386463 0.111396
H20   H     H_    0.427886 0.190121 0.344937 0.123723
H21   H     H_    0.446771 0.273524 0.304333 0.169930
H22   H     H_    0.649743 0.431573 0.744877 0.103673
H23   H     H_    0.772060 0.413062 0.462780 0.154652
H24   H     H_    0.693032 0.454042 0.827268 0.108410
H25   H     H_    0.721033 0.490068 0.746677 0.158033
H26   H     H_    0.304625 0.542256 0.076080 0.117588
H27   H     H_    0.288644 0.633278 0.057143 0.152512
H28   H     H_    0.307124 0.600002 0.145669 0.138479
H29   H     H_    0.353391 0.023790 0.526139 0.123719
H30   H     H_    0.336014 0.953824 0.469924 0.124114
H31   H     H_    0.313387 0.041499 0.439667 0.145312
H32   H     H_    0.235754 0.462825 0.596571 0.143917
H33   H     H_    0.988032 0.470008 0.434042 0.170659
H34   H     H_    0.773369 0.598138 0.571301 0.165257
H35   H     H_    0.012366 0.521802 0.578683 0.160766
H36   H     H_    0.897049 0.409138 0.476766 0.122310
H37   H     H_    0.111199 0.456867 0.593752 0.129243
I1    I     I_    0.239909 0.509023 0.324989 -0.338009
I2    I     I_    0.923314 0.636778 0.608337 -0.397693
I3    I     I_    0.575579 0.368140 0.249996 -0.293307
O1    O     O_3   0.500000 0.500000 0.500000 -0.461620
O2    O     O_R   0.467830 0.341070 0.546160 -0.558882
O3    O     O_R   0.450560 0.655630 0.450550 -0.545536
O4    O     O_R   0.545840 0.347670 0.467560 -0.484880
O5    O     O_R   0.535760 0.655640 0.535740 -0.541618
O6    O     O_3   0.083616 0.510403 0.358555 -0.549163
O7    O     O_3   0.515275 0.239742 0.387137 -0.527627
O8    O     O_3   0.630423 0.531350 0.771889 -0.536428
O9    O     O_3   0.390335 0.607049 0.084823 -0.562041
O10   O     O_3   0.417094 0.019491 0.445819 -0.577825
O11   O     O_R   0.545870 0.536170 0.656040 -0.490447
O12   O     O_R   0.450550 0.545430 0.340370 -0.544658
O13   O     O_R   0.347960 0.451240 0.536460 -0.545503
O14   O     O_R   0.655630 0.467150 0.467130 -0.539286
O15   O     O_R   0.340780 0.536140 0.450970 -0.513522
O16   O     O_R   0.655640 0.545460 0.545430 -0.543147
O17   O     O_R   0.467850 0.451260 0.656340 -0.564198
O18   O     O_R   0.535740 0.467130 0.347260 -0.495686
Zn1   Zn    Zn3+2 0.558310 0.558310 0.558290 0.960161
Zn2   Zn    Zn3+2 0.446830 0.436990 0.558720 0.926544
Zn3   Zn    Zn3+2 0.558290 0.446420 0.446420 0.989768
Zn4   Zn    Zn3+2 0.436570 0.558290 0.436570 0.958595

loop_
_geom_bond_atom_site_label_1
_geom_bond_atom_site_label_2
_ccdc_geom_bond_type
C4    O16   A    
C1    C21   S    
C47   O8    S    
C22   C29   A    
C27   C29   A    
C41   C42   A    
C19   C20   D    
C51   H8    S    
C36   H6    S    
C2    C12   S    
O15   Zn4   S    
O1    Zn3   S    
C16   O17   A    
C7    C8    A    
C12   C23   A    
C26   C27   A    
C30   C35   A    
C45   C50   A    
C14   C21   A    
C36   C37   D    
C35   C37   S    
C33   H9    S    
C12   C43   A    
C40   O5    A    
C30   C31   A    
C44   O6    S    
C39   O4    A    
C30   H4    S    
C48   H28   S    
C44   H18   S    
C37   H3    S    
C16   O11   A    
C11   H34   S    
C8    C9    A    
C20   H33   S    
O3    Zn4   S    
C44   H17   S    
C25   H7    S    
C32   C38   A    
C9    C10   A    
C46   H19   S    
C1    O13   A    
C15   H32   S    
C45   C53   A    
C22   C28   S    
C13   C14   A    
C34   C41   A    
C40   O3    A    
O1    Zn2   S    
C9    C19   S    
C28   O18   A    
C4    O14   A    
O5    Zn1   S    
O13   Zn2   S    
C51   C52   A    
C24   C25   A    
C4    C6    S    
C19   H35   S    
O16   Zn1   S    
C6    C11   A    
O11   Zn1   S    
C43   H15   S    
C25   C26   A    
C49   H29   S    
C13   O6    S    
O14   Zn3   S    
C28   O12   A    
C23   C34   A    
C48   O9    S    
C17   C18   A    
C44   H16   S    
O17   Zn2   S    
C39   O2    A    
C7    H23   S    
C13   C18   A    
C26   C36   S    
C23   H11   S    
C5    C39   S    
C22   C24   A    
C5    C50   A    
C42   C43   A    
C47   H24   S    
C46   H21   S    
C52   C53   A    
C48   H26   S    
C49   H31   S    
C15   C17   A    
C46   O7    S    
C40   C41   S    
O12   Zn4   S    
C17   H37   S    
C34   H14   S    
C49   O10   S    
O1    Zn4   S    
C6    C7    A    
C3    H10   S    
C27   O9    S    
C50   O7    S    
C31   C38   A    
C32   C33   A    
C48   H27   S    
C2    C3    D    
C47   H22   S    
C24   I3    S    
C42   H1    S    
C3    C53   S    
C49   H30   S    
C2    O10   S    
O2    Zn2   S    
O1    Zn1   S    
C33   C35   A    
O18   Zn3   S    
C18   C20   S    
C14   I1    S    
C10   C11   A    
C1    O15   A    
C10   I2    S    
C15   C21   A    
C29   H5    S    
C45   H13   S    
C32   O8    S    
C5    C51   A    
C8    H36   S    
C47   H25   S    
C31   H2    S    
O4    Zn3   S    
C46   H20   S    
C52   H12   S    
C16   C38   S    
