data_mof_unit_31766.cif
_audit_creation_date              2012-10-26T19:52:49-0400
_audit_creation_method            fapswitch 2.2
_symmetry_space_group_name_H-M    P1
_symmetry_Int_Tables_number       1
_space_group_crystal_system       triclinic
_cell_length_a                    14.998508
_cell_length_b                    10.83684
_cell_length_c                    9.609169
_cell_angle_alpha                 89.969453
_cell_angle_beta                  89.780099
_cell_angle_gamma                 90.763078
_cell_volume                      1561.68975592

loop_
_atom_site_label
_atom_site_type_symbol
_atom_type_description
_atom_site_fract_x
_atom_site_fract_y
_atom_site_fract_z
_atom_type_partial_charge
C1    C     C_R   0.501133 0.262612 0.500043 0.556014
C2    C     C_R   0.185555 0.395945 0.566481 0.102564
C3    C     C_R   0.232456 0.494729 0.503443 -0.003513
C4    C     C_R   0.329122 0.497259 0.500506 0.547308
C5    C     C_R   0.188049 0.594927 0.447279 -0.159131
C6    C     C_R   0.519993 0.063841 0.622934 0.066473
C7    C     C_R   0.508522 0.129616 0.499308 0.030378
C8    C     C_R   0.508525 0.064709 0.372791 -0.177022
C9    C     C_R   0.507175 0.936288 0.372910 -0.142864
C10   C     C_R   0.507825 0.870978 0.499309 0.007993
C11   C     C_R   0.520231 0.936713 0.622886 -0.021433
C12   C     C_R   0.908002 0.602693 0.452940 -0.023820
C13   C     C_3   0.471826 0.928728 0.758980 -0.230404
C14   C     C_3   0.472145 0.069121 0.759626 0.098763
C15   C     C_R   0.577440 0.522035 0.071848 0.149091
C16   C     C_R   0.500788 0.737523 0.499977 0.549177
C17   C     C_R   0.427232 0.459808 0.072762 0.222144
C18   C     C_R   0.427424 0.462501 0.924784 0.000118
C19   C     C_R   0.576133 0.523931 0.924967 0.083877
C20   C     C_3   0.633324 0.635264 0.910070 -0.191973
C21   C     C_3   0.638070 0.635215 0.068477 0.340711
C22   C     C_R   0.670863 0.500817 0.500168 0.538049
C23   C     C_R   0.947724 0.306154 0.635435 -0.081329
C24   C     C_R   0.815017 0.601767 0.449474 -0.151871
C25   C     C_R   0.767174 0.500912 0.502414 -0.000400
C26   C     C_R   0.810986 0.402864 0.565122 -0.127290
C27   C     C_R   0.903859 0.403036 0.570882 -0.025017
C28   C     C_R   0.953046 0.502683 0.513536 0.034555
C29   C     C_3   0.333348 0.284177 0.127233 -0.304539
C30   C     C_3   0.791463 0.712455 0.104869 -0.268666
C31   C     C_3   0.247142 0.199877 0.498425 -0.235210
C32   C     C_R   0.040309 0.305984 0.644273 0.251043
C33   C     C_R   0.091639 0.400496 0.577073 0.036262
C34   C     C_R   0.046815 0.501867 0.515749 -0.038208
C35   C     C_R   0.095239 0.601809 0.454978 0.003655
C36   C     C_R   0.049008 0.704810 0.400815 0.251997
C37   C     C_R   0.956158 0.702616 0.398129 -0.069993
Cu1   Cu    Cu3+1 0.500000 0.499980 0.640670 0.939599
Cu2   Cu    Cu3+1 0.500000 0.500020 0.359330 0.992577
H1    H     H_    0.779544 0.679709 0.407258 0.115785
H2    H     H_    0.909774 0.231735 0.683856 0.139994
H3    H     H_    0.227486 0.666481 0.396813 0.123047
H4    H     H_    0.921514 0.780751 0.354513 0.131545
H5    H     H_    0.505100 0.112269 0.273968 0.126712
H6    H     H_    0.357984 0.107112 0.839189 0.317284
H7    H     H_    0.293497 0.465282 0.114220 0.234028
H8    H     H_    0.322045 0.258900 0.016699 0.113674
H9    H     H_    0.272775 0.257437 0.187227 0.137346
H10   H     H_    0.390842 0.232390 0.168299 0.158151
H11   H     H_    0.733825 0.558301 0.202946 0.273444
H12   H     H_    0.500944 0.889111 0.274448 0.162711
H13   H     H_    0.859583 0.678403 0.125712 0.138297
H14   H     H_    0.774986 0.784751 0.182317 0.174077
H15   H     H_    0.791083 0.753388 0.998916 0.155290
H16   H     H_    0.541488 0.752776 0.092355 0.298180
H17   H     H_    0.120618 0.254423 0.786797 0.340035
H18   H     H_    0.287386 0.304498 0.668828 0.289407
H19   H     H_    0.267713 0.110723 0.544162 0.198515
H20   H     H_    0.301160 0.233853 0.428565 0.136831
H21   H     H_    0.185190 0.183279 0.437723 0.163700
H22   H     H_    0.145194 0.825634 0.405708 0.319692
H23   H     H_    0.404405 0.885590 0.749154 0.164149
H24   H     H_    0.513597 0.890248 0.843093 0.091840
H25   H     H_    0.512514 0.112718 0.843748 0.120261
H26   H     H_    0.368271 0.433689 0.869043 0.129540
H27   H     H_    0.697108 0.613489 0.856660 0.137107
H28   H     H_    0.597290 0.714253 0.864752 0.121787
H29   H     H_    0.772545 0.326598 0.608934 0.107090
N1    N     N_R   0.500570 0.500930 0.147930 -0.221454
N2    N     N_R   0.500570 0.500890 0.852020 -0.262295
N3    N     N_2   0.349137 0.415562 0.140629 -0.458021
N4    N     N_2   0.728221 0.610669 0.114616 -0.494654
N5    N     N_2   0.231940 0.288222 0.608412 -0.497250
O1    O     O_R   0.500000 0.319640 0.618810 -0.473424
O2    O     O_3   0.601575 0.739859 0.132498 -0.679822
O3    O     O_3   0.077470 0.213992 0.722967 -0.673455
O4    O     O_3   0.091373 0.809009 0.349177 -0.701719
O5    O     O_R   0.500010 0.319680 0.381230 -0.512193
O6    O     O_R   0.370250 0.499950 0.618800 -0.522539
O7    O     O_R   0.370260 0.499990 0.381220 -0.464216
O8    O     O_R   0.499990 0.680320 0.618770 -0.510169
O9    O     O_R   0.500000 0.680360 0.381190 -0.473384
O10   O     O_R   0.629740 0.500010 0.618780 -0.506464
O11   O     O_R   0.629750 0.500050 0.381200 -0.500842
O12   O     O_3   0.386403 0.116971 0.746451 -0.717287

loop_
_geom_bond_atom_site_label_1
_geom_bond_atom_site_label_2
_ccdc_geom_bond_type
C18   N2    A    
C5    H3    S    
Cu1   N2    S    
C17   N1    A    
H17   O3    S    
Cu1   O10   S    
C20   H28   S    
C35   C36   A    
C9    H12   S    
C7    C8    A    
C29   H10   S    
C18   H26   S    
C15   C19   A    
C30   H15   S    
C26   C27   A    
C12   C28   A    
C1    O1    A    
C31   H19   S    
C20   H27   S    
C36   C37   A    
Cu2   O11   S    
C4    O7    A    
C36   O4    S    
Cu1   Cu2   S    
C31   N5    S    
Cu1   O6    S    
H18   N5    S    
C23   C32   A    
C34   C35   A    
C31   H20   S    
C12   C37   A    
H11   N4    S    
C30   H13   S    
C13   H23   S    
C19   C20   S    
H22   O4    S    
C8    C9    A    
C22   C25   S    
C23   C27   A    
C9    C10   A    
H16   O2    S    
C28   C34   A    
C13   C14   S    
C1    O5    A    
C33   C34   A    
C15   N1    A    
C30   H14   S    
C21   N4    S    
Cu2   O5    S    
C24   C25   A    
C14   O12   S    
C4    O6    A    
C6    C11   A    
C29   H9    S    
C25   C26   A    
C22   O11   A    
C31   H21   S    
C37   H4    S    
H6    O12   S    
C6    C14   S    
C13   H24   S    
C14   H25   S    
C16   O9    A    
C17   C18   A    
Cu2   N1    S    
H7    N3    S    
C2    N5    S    
C2    C33   A    
C29   H8    S    
C17   N3    S    
Cu1   O8    S    
C3    C4    S    
Cu1   O1    S    
C12   C24   A    
C1    C7    S    
C8    H5    S    
Cu2   O9    S    
C3    C5    A    
C32   O3    S    
C30   N4    S    
C6    C7    A    
C21   O2    S    
C23   H2    S    
C26   H29   S    
Cu2   O7    S    
C2    C3    A    
C10   C16   S    
C32   C33   A    
C22   O10   A    
C11   C13   S    
C5    C35   A    
C16   O8    A    
C24   H1    S    
C10   C11   A    
C15   C21   S    
C20   C21   S    
C27   C28   A    
C19   N2    A    
C29   N3    S    
