data_mof_unit_24269.cif
_audit_creation_date              2012-12-11T15:55:51-0500
_audit_creation_method            fapswitch 2.2
_symmetry_space_group_name_H-M    P1
_symmetry_Int_Tables_number       1
_space_group_crystal_system       triclinic
_cell_length_a                    11.006347
_cell_length_b                    11.0322
_cell_length_c                    18.791492
_cell_angle_alpha                 89.943241
_cell_angle_beta                  90.234873
_cell_angle_gamma                 59.444365
_cell_volume                      1964.86122501

loop_
_atom_site_label
_atom_site_type_symbol
_atom_type_description
_atom_site_fract_x
_atom_site_fract_y
_atom_site_fract_z
_atom_type_partial_charge
C1    C     C_R   0.358030 0.773006 0.397807 0.546813
C2    C     C_R   0.560619 0.034818 0.191232 0.050592
C3    C     C_R   0.328978 0.280952 0.175534 0.001239
C4    C     C_R   0.436156 0.195784 0.290014 -0.154585
C5    C     C_R   0.439476 0.173086 0.217425 -0.032610
C6    C     C_R   0.102927 0.696900 0.275479 -0.093078
C7    C     C_R   0.015338 0.827476 0.306980 -0.089072
C8    C     C_R   0.650104 0.025149 0.135082 -0.051945
C9    C     C_R   0.764280 0.895866 0.114259 -0.112720
C10   C     C_R   0.227885 0.408089 0.207165 -0.160513
C11   C     C_R   0.231194 0.432328 0.279421 -0.041806
C12   C     C_R   0.381305 0.351589 0.390331 0.540401
C13   C     C_R   0.945352 0.836070 0.370389 -0.091820
C14   C     C_R   0.960482 0.714447 0.401507 -0.094320
C15   C     C_R   0.049618 0.583649 0.370754 -0.057044
C16   C     C_R   0.124613 0.572765 0.308269 0.037958
C17   C     C_R   0.340545 0.324998 0.320833 -0.004058
C18   C     C_R   0.897410 0.320550 0.190202 0.006497
C19   C     C_R   0.880477 0.219273 0.225095 0.007533
C20   C     C_R   0.855052 0.227809 0.297365 0.001046
C21   C     C_R   0.890549 0.424991 0.303513 -0.173110
C22   C     C_R   0.916737 0.414888 0.231127 -0.173277
C23   C     C_R   0.778035 0.378515 0.403547 0.542671
C24   C     C_3   0.774825 0.179594 0.208632 -0.282162
C25   C     C_3   0.739479 0.195818 0.286599 -0.250025
C26   C     C_R   0.852727 0.335585 0.336940 0.006405
C27   C     C_R   0.310874 0.920674 0.185401 0.025830
C28   C     C_R   0.414071 0.784377 0.204200 0.039548
C29   C     C_R   0.434412 0.741140 0.273916 0.005673
C30   C     C_R   0.254533 0.972593 0.311167 -0.166969
C31   C     C_R   0.238317 0.018014 0.240010 -0.173018
C32   C     C_3   0.452897 0.642654 0.176606 -0.259624
C33   C     C_3   0.477461 0.593757 0.254003 -0.286157
C34   C     C_R   0.342493 0.772300 0.603411 0.536154
C35   C     C_R   0.347529 0.830296 0.327518 0.022421
C36   C     C_R   0.323686 0.339487 0.821013 0.019835
C37   C     C_R   0.461655 0.276896 0.794617 0.025122
C38   C     C_R   0.483967 0.287610 0.723527 0.008898
C39   C     C_R   0.233061 0.433078 0.703952 -0.168612
C40   C     C_R   0.209905 0.425258 0.776100 -0.176159
C41   C     C_3   0.578938 0.125887 0.797252 -0.259132
C42   C     C_3   0.596539 0.136422 0.718603 -0.270456
C43   C     C_R   0.371192 0.362142 0.677386 0.019940
C44   C     C_R   0.913480 0.292043 0.821302 0.001612
C45   C     C_R   0.402906 0.375694 0.604782 0.566097
C46   C     C_R   0.895074 0.410338 0.784835 -0.008204
C47   C     C_R   0.866185 0.427349 0.713550 0.006714
C48   C     C_R   0.889641 0.198676 0.707834 -0.158519
C49   C     C_R   0.917479 0.182202 0.781630 -0.161986
C50   C     C_3   0.800532 0.564430 0.799984 -0.104184
C51   C     C_3   0.770923 0.583645 0.720878 -0.282783
C52   C     C_R   0.848146 0.328689 0.675310 0.022104
C53   C     C_R   0.293251 0.865420 0.820884 0.019832
C54   C     C_R   0.183324 0.871062 0.781831 0.010225
C55   C     C_R   0.186410 0.865416 0.708695 0.026019
C56   C     C_R   0.768851 0.374399 0.608687 0.539127
C57   C     C_R   0.404867 0.865202 0.708583 -0.178576
C58   C     C_R   0.398656 0.875021 0.782782 -0.154138
C59   C     C_3   0.110449 0.789335 0.788914 -0.282205
C60   C     C_3   0.109220 0.786399 0.708252 -0.270276
C61   C     C_R   0.305927 0.844799 0.671571 0.022353
C62   C     C_R   0.921801 0.311206 0.114478 0.540252
C63   C     C_R   0.305091 0.258353 0.101828 0.538613
C64   C     C_R   0.272806 0.960856 0.111906 0.540462
C65   C     C_R   0.944595 0.282611 0.897093 0.568847
C66   C     C_R   0.297874 0.290974 0.887186 0.552380
C67   C     C_R   0.796249 0.774145 0.151427 -0.093798
C68   C     C_R   0.273607 0.898521 0.896467 0.571825
C69   C     C_R   0.715203 0.782558 0.210084 -0.105627
C70   C     C_R   0.600382 0.911280 0.230233 -0.101781
Cr1   Cr    Cr6+3 0.601740 0.606840 0.505840 0.996705
Cr2   Cr    Cr6+3 0.291500 0.601560 0.495070 1.009173
Cr3   Cr    Cr6+3 0.606780 0.291630 0.499130 0.993844
Cr4   Cr    Cr6+3 0.062440 0.063060 0.008240 0.997265
Cr5   Cr    Cr6+3 0.062950 0.375000 0.998920 1.015267
Cr6   Cr    Cr6+3 0.374550 0.061770 0.992470 1.043812
H1    H     H_    0.519203 0.114483 0.322434 0.138049
H2    H     H_    0.881259 0.936185 0.396402 0.102881
H3    H     H_    0.906208 0.721002 0.450533 0.093737
H4    H     H_    0.065260 0.489607 0.397453 0.107923
H5    H     H_    0.879357 0.515440 0.330601 0.142273
H6    H     H_    0.942482 0.487186 0.206847 0.129043
H7    H     H_    0.831342 0.068809 0.190652 0.148502
H8    H     H_    0.687847 0.258753 0.174388 0.134793
H9    H     H_    0.633492 0.287812 0.297618 0.158347
H10   H     H_    0.759636 0.096888 0.311816 0.137787
H11   H     H_    0.191364 0.046250 0.352316 0.122944
H12   H     H_    0.830168 0.890948 0.070439 0.106675
H13   H     H_    0.165247 0.126907 0.227294 0.117532
H14   H     H_    0.551657 0.594808 0.144968 0.159933
H15   H     H_    0.362661 0.640562 0.151145 0.153061
H16   H     H_    0.403817 0.560725 0.273683 0.148256
H17   H     H_    0.590267 0.519822 0.266379 0.144673
H18   H     H_    0.143071 0.491718 0.668987 0.134536
H19   H     H_    0.102950 0.476181 0.795304 0.130472
H20   H     H_    0.545074 0.049295 0.809211 0.158926
H21   H     H_    0.670556 0.111961 0.829140 0.139830
H22   H     H_    0.699843 0.121162 0.704435 0.136257
H23   H     H_    0.005475 0.921153 0.283129 0.124406
H24   H     H_    0.563704 0.073214 0.686380 0.147238
H25   H     H_    0.892132 0.114517 0.677389 0.117794
H26   H     H_    0.934408 0.088315 0.808213 0.136999
H27   H     H_    0.858684 0.615690 0.819948 0.141331
H28   H     H_    0.660044 0.618735 0.706163 0.152484
H29   H     H_    0.815266 0.643026 0.694665 0.122743
H30   H     H_    0.493621 0.860687 0.681379 0.122450
H31   H     H_    0.479389 0.885056 0.810244 0.161851
H32   H     H_    0.003380 0.851262 0.812193 0.133317
H33   H     H_    0.885471 0.674725 0.135388 0.123670
H34   H     H_    0.179328 0.684513 0.813718 0.150679
H35   H     H_    0.174505 0.680700 0.685863 0.169389
H36   H     H_    0.001706 0.849006 0.684802 0.122793
H37   H     H_    0.739537 0.690437 0.240589 0.118954
H38   H     H_    0.542164 0.913974 0.276885 0.117135
H39   H     H_    0.158150 0.692589 0.227198 0.105072
H40   H     H_    0.635923 0.118124 0.108219 0.136284
H41   H     H_    0.144668 0.490625 0.175339 0.128629
O1    O     O_R   0.748670 0.497520 0.427970 -0.527681
O2    O     O_R   0.300170 0.471020 0.567120 -0.516384
O3    O     O_R   0.491630 0.259030 0.574940 -0.516019
O4    O     O_R   0.718640 0.304340 0.577850 -0.520046
O5    O     O_3   0.500010 0.500010 0.500020 -0.264099
O6    O     O_R   0.186620 0.923750 0.087000 -0.515547
O7    O     O_R   0.957350 0.194160 0.084660 -0.512770
O8    O     O_R   0.935120 0.407280 0.085350 -0.524457
O9    O     O_R   0.203800 0.365060 0.067090 -0.511950
O10   O     O_R   0.417470 0.174910 0.067830 -0.526524
O11   O     O_R   0.375160 0.946380 0.070880 -0.480128
O12   O     O_R   0.476470 0.723930 0.429450 -0.499314
O13   O     O_R   0.160500 0.919670 0.926690 -0.525088
O14   O     O_R   0.933140 0.190380 0.936050 -0.504811
O15   O     O_R   0.909010 0.403210 0.925030 -0.472760
O16   O     O_R   0.179590 0.361290 0.918480 -0.520079
O17   O     O_R   0.391360 0.170840 0.907510 -0.522378
O18   O     O_R   0.350950 0.942600 0.922260 -0.473805
O19   O     O_3   0.166650 0.166610 0.999880 -0.319867
O20   O     O_R   0.264730 0.744140 0.416740 -0.500178
O21   O     O_R   0.309440 0.472410 0.418220 -0.489503
O22   O     O_R   0.501630 0.260530 0.414310 -0.535716
O23   O     O_R   0.727920 0.305730 0.428950 -0.504112
O24   O     O_R   0.738670 0.496020 0.588600 -0.522002
O25   O     O_R   0.467190 0.722540 0.578350 -0.510937
O26   O     O_R   0.254720 0.742640 0.577370 -0.533045
C71   C     C_2   0.672262 0.596564 0.842968 0.247511
H42   H     H_    0.604907 0.555909 0.826743 0.109066
O27   O     O_2   0.644046 0.667513 0.896800 -0.489781

loop_
_geom_bond_atom_site_label_1
_geom_bond_atom_site_label_2
_ccdc_geom_bond_type
C44   C49   A    
Cr2   O26   S    
Cr4   O7    S    
C21   C26   A    
C41   C42   S    
C54   C55   A    
Cr1   O5    S    
C19   C20   A    
C23   O1    A    
C62   O7    A    
Cr6   O19   S    
C53   C54   A    
C70   H38   S    
C69   H37   S    
C7    H23   S    
C30   C35   A    
C22   H6    S    
C21   C22   A    
C36   C37   A    
C24   H7    S    
C38   C42   S    
C1    O12   A    
C42   H22   S    
C9    H12   S    
C30   C31   A    
C36   C66   S    
C32   H15   S    
C20   C25   S    
C15   C16   A    
C29   C33   S    
C59   H34   S    
C18   C19   A    
C23   C26   S    
C4    H1    S    
C53   C68   S    
C36   C40   A    
C7    C13   A    
C66   O17   A    
C67   H33   S    
C32   H14   S    
C44   C46   A    
C8    C9    A    
C31   H13   S    
Cr4   O19   S    
C12   C17   S    
Cr1   O24   S    
C45   O2    A    
Cr2   O21   S    
C57   H30   S    
C59   C60   S    
Cr3   O3    S    
C13   C14   A    
C44   C65   S    
C65   O14   A    
Cr6   O18   S    
C50   C71   S    
C54   C59   S    
Cr4   O14   S    
C34   O26   A    
C27   C31   A    
C23   O23   A    
C28   C32   S    
C24   C25   S    
C71   O27   D    
C10   C11   A    
C33   H16   S    
C49   H26   S    
Cr6   O17   S    
Cr5   O19   S    
C71   H42   S    
C39   C43   A    
Cr3   O22   S    
C64   O11   A    
C51   H28   S    
C34   C61   S    
C33   H17   S    
Cr5   O8    S    
C9    C67   A    
C39   H18   S    
C37   C38   A    
C60   H36   S    
C42   H24   S    
Cr1   O12   S    
C66   O16   A    
C34   O25   A    
C11   C16   S    
C15   H4    S    
C48   C52   A    
C51   H29   S    
C25   H9    S    
C50   C51   S    
C12   O22   A    
C14   H3    S    
C68   O13   A    
C43   C45   S    
C47   C52   A    
Cr1   O25   S    
C56   O24   A    
C45   O3    A    
Cr2   O20   S    
C41   H20   S    
C21   H5    S    
Cr3   O4    S    
Cr4   O13   S    
Cr6   O11   S    
C41   H21   S    
C2    C5    S    
C4    C17   A    
C40   H19   S    
C58   H31   S    
C65   O15   A    
C1    O20   A    
Cr5   O15   S    
C1    C35   S    
C46   C50   S    
C46   C47   A    
C28   C29   A    
Cr1   O1    S    
Cr2   O5    S    
C18   C22   A    
C68   O18   A    
C2    C8    A    
C4    C5    A    
C3    C5    A    
C11   C17   A    
C62   O8    A    
C47   C51   S    
C53   C58   A    
Cr5   O16   S    
C57   C61   A    
C6    C7    A    
Cr3   O23   S    
C3    C63   S    
C64   O6    A    
C29   C35   A    
C8    H40   S    
C59   H32   S    
C10   H41   S    
Cr5   O9    S    
C32   C33   S    
C19   C24   S    
C24   H8    S    
C38   C43   A    
C60   H35   S    
C2    C70   A    
C56   O4    A    
C57   C58   A    
C20   C26   A    
C48   C49   A    
C48   H25   S    
C55   C61   A    
Cr2   O2    S    
C25   H10   S    
Cr4   O6    S    
C12   O21   A    
C37   C41   S    
C69   C70   A    
C6    H39   S    
C63   O9    A    
C27   C64   S    
C13   H2    S    
C6    C16   A    
C39   C40   A    
C50   H27   S    
Cr3   O5    S    
C27   C28   A    
C3    C10   A    
Cr6   O10   S    
C14   C15   A    
C18   C62   S    
C67   C69   A    
C30   H11   S    
C55   C60   S    
C63   O10   A    
C52   C56   S    
