data_mof_unit_59343.cif
_audit_creation_date              2013-03-05T15:56:45-0500
_audit_creation_method            fapswitch 2.2
_symmetry_space_group_name_H-M    P1
_symmetry_Int_Tables_number       1
_space_group_crystal_system       triclinic
_cell_length_a                    21.438461
_cell_length_b                    21.281931
_cell_length_c                    13.869932
_cell_angle_alpha                 90.002055
_cell_angle_beta                  90.000469
_cell_angle_gamma                 89.998752
_cell_volume                      6328.18209736

loop_
_atom_site_label
_atom_site_type_symbol
_atom_site_description
_atom_site_fract_x
_atom_site_fract_y
_atom_site_fract_z
_atom_type_partial_charge
O1    O     O_R   0.064880 0.435140 0.582280 -0.541592
O2    O     O_R   0.935120 0.564860 0.417720 -0.526057
O3    O     O_R   0.935120 0.564860 0.582280 -0.541567
O4    O     O_R   0.064880 0.435140 0.417720 -0.526005
O5    O     O_R   0.935120 0.435140 0.417720 -0.554960
O6    O     O_R   0.064880 0.564860 0.582280 -0.543605
O7    O     O_R   0.064880 0.564860 0.417720 -0.555066
O8    O     O_R   0.935120 0.435140 0.582280 -0.543634
O9    O     O_R   0.564880 0.935140 0.582280 -0.555096
O10   O     O_R   0.435120 0.064860 0.417720 -0.543857
O11   O     O_R   0.435120 0.064860 0.582280 -0.554987
O12   O     O_R   0.564880 0.935140 0.417720 -0.543829
O13   O     O_R   0.435120 0.935140 0.417720 -0.541278
O14   O     O_R   0.564880 0.064860 0.582280 -0.525945
O15   O     O_R   0.564880 0.064860 0.417720 -0.541315
O16   O     O_R   0.435120 0.935140 0.582280 -0.526032
C1    C     C_R   0.085536 0.414960 0.500131 0.942977
C2    C     C_R   0.914456 0.585033 0.500135 0.943019
C3    C     C_R   0.914753 0.413731 0.499958 0.931897
C4    C     C_R   0.085243 0.586273 0.499963 0.931943
C5    C     C_R   0.585243 0.913728 0.500039 0.931863
C6    C     C_R   0.414752 0.086267 0.500042 0.931859
C7    C     C_R   0.414465 0.914958 0.499865 0.942922
C8    C     C_R   0.585533 0.085044 0.499869 0.942914
Cu1   Cu    Cu3+1 0.000000 0.500000 0.597420 1.087419
Cu2   Cu    Cu3+1 0.000000 0.500000 0.402580 1.089309
Cu3   Cu    Cu3+1 0.500000 1.000000 0.597420 1.089227
Cu4   Cu    Cu3+1 0.500000 0.000000 0.402580 1.087274
C9    C     C_R   0.129446 0.686897 0.434789 0.352237
C10   C     C_R   0.870508 0.313147 0.434701 0.352189
C11   C     C_R   0.881329 0.694697 0.476943 0.305214
C12   C     C_R   0.118665 0.305304 0.476820 0.305264
C13   C     C_R   0.618660 0.194701 0.523197 0.305125
C14   C     C_R   0.381334 0.805296 0.523084 0.304845
C15   C     C_R   0.370496 0.186843 0.565313 0.352297
C16   C     C_R   0.629454 0.813115 0.565244 0.352362
C17   C     C_R   0.133525 0.635744 0.499657 -0.268427
C18   C     C_R   0.866462 0.364270 0.499634 -0.268404
C19   C     C_R   0.866198 0.632927 0.501072 -0.249125
C20   C     C_R   0.133787 0.367060 0.501057 -0.249187
C21   C     C_R   0.633781 0.132946 0.498942 -0.248839
C22   C     C_R   0.366209 0.867064 0.498927 -0.248694
C23   C     C_R   0.366458 0.135726 0.500366 -0.268349
C24   C     C_R   0.633525 0.864257 0.500355 -0.268378
C25   C     C_R   0.184430 0.631995 0.563970 0.391996
C26   C     C_R   0.815571 0.368011 0.563975 0.392060
C27   C     C_R   0.805623 0.617135 0.529234 0.370473
C28   C     C_R   0.194350 0.382835 0.529297 0.370457
C29   C     C_R   0.694342 0.117172 0.470686 0.370688
C30   C     C_R   0.305632 0.882859 0.470767 0.370720
C31   C     C_R   0.315572 0.131993 0.436012 0.392094
C32   C     C_R   0.684429 0.868001 0.436041 0.392055
C33   C     C_R   0.235968 0.672141 0.550645 -0.104618
C34   C     C_R   0.764028 0.327871 0.550653 -0.104520
C35   C     C_R   0.761560 0.665361 0.543937 -0.100281
C36   C     C_R   0.238398 0.334601 0.544004 -0.100325
C37   C     C_R   0.738392 0.165404 0.455985 -0.100095
C38   C     C_R   0.261565 0.834638 0.456078 -0.100062
C39   C     C_R   0.264028 0.172135 0.449329 -0.104477
C40   C     C_R   0.735969 0.827858 0.449383 -0.104461
C41   C     C_R   0.226919 0.728304 0.497593 -0.122736
C42   C     C_R   0.773056 0.271723 0.497553 -0.122703
C43   C     C_R   0.773719 0.725201 0.502958 -0.116546
C44   C     C_R   0.226258 0.274779 0.502948 -0.116546
C45   C     C_R   0.726253 0.225228 0.497041 -0.116587
C46   C     C_R   0.273721 0.774798 0.497064 -0.116517
C47   C     C_R   0.273057 0.228280 0.502436 -0.122732
C48   C     C_R   0.726918 0.771698 0.502432 -0.122758
C49   C     C_R   0.171285 0.737798 0.444589 -0.095054
C50   C     C_R   0.828662 0.262249 0.444474 -0.095041
C51   C     C_R   0.833251 0.738825 0.464001 -0.088716
C52   C     C_R   0.166746 0.261176 0.463894 -0.088748
C53   C     C_R   0.666742 0.238834 0.536099 -0.088750
C54   C     C_R   0.333253 0.761176 0.536041 -0.088805
C55   C     C_R   0.328658 0.237747 0.555526 -0.095079
C56   C     C_R   0.671289 0.762211 0.555444 -0.095083
C57   C     C_R   0.295674 0.658868 0.589426 0.333213
C58   C     C_R   0.704335 0.341142 0.589474 0.333065
C59   C     C_R   0.706079 0.656090 0.596793 0.325412
C60   C     C_R   0.293844 0.343849 0.596951 0.325458
C61   C     C_R   0.793841 0.156152 0.403044 0.325586
C62   C     C_R   0.206076 0.843916 0.403239 0.325487
C63   C     C_R   0.204337 0.158872 0.410495 0.333159
C64   C     C_R   0.795678 0.841140 0.410633 0.333108
C65   C     C_R   0.839602 0.203058 0.400581 0.422747
C66   C     C_R   0.160308 0.797014 0.400806 0.422811
C67   C     C_R   0.156751 0.203661 0.415503 0.433384
C68   C     C_R   0.843271 0.796360 0.415683 0.433293
C69   C     C_R   0.343260 0.703651 0.584399 0.433355
C70   C     C_R   0.656747 0.296357 0.584472 0.433439
C71   C     C_R   0.660316 0.702999 0.599238 0.422830
C72   C     C_R   0.339602 0.296937 0.599417 0.422794
C73   C     C_R   0.048150 0.472534 0.795919 0.588306
C74   C     C_R   0.946052 0.513017 0.206834 0.580990
C75   C     C_R   0.951852 0.527470 0.795920 0.588303
C76   C     C_R   0.053948 0.486987 0.206833 0.581043
C77   C     C_R   0.553919 0.013123 0.793176 0.581087
C78   C     C_R   0.451973 0.972326 0.204066 0.588253
C79   C     C_R   0.446083 0.986866 0.793174 0.581045
C80   C     C_R   0.548030 0.027669 0.204069 0.588217
N1    N     N_R   0.000000 0.500000 0.743810 -0.287543
N2    N     N_R   0.000000 0.500000 0.256190 -0.267603
N3    N     N_R   0.500000 1.000000 0.743810 -0.267632
N4    N     N_R   0.500000 1.000000 0.256190 -0.287422
C81   C     C_R   0.948070 0.522106 0.898564 -0.221005
C82   C     C_R   0.053326 0.480654 0.104482 -0.221489
C83   C     C_R   0.051931 0.477899 0.898563 -0.221016
C84   C     C_R   0.946675 0.519350 0.104484 -0.221548
C85   C     C_R   0.446733 0.980503 0.895517 -0.221507
C86   C     C_R   0.551839 0.022306 0.101432 -0.220926
C87   C     C_R   0.553271 0.019486 0.895519 -0.221497
C88   C     C_R   0.448164 0.977685 0.101429 -0.220902
C89   C     C_R   0.999999 0.500000 0.950048 -0.116787
C90   C     C_R   0.999999 0.500000 0.052970 -0.103556
C91   C     C_R   0.500001 0.999996 0.947030 -0.103630
C92   C     C_R   0.500001 0.999997 0.049948 -0.116757
C93   C     C_R   0.894339 0.541110 0.951014 0.380809
C94   C     C_R   0.104623 0.456251 0.052459 0.388701
C95   C     C_R   0.105667 0.458910 0.951010 0.380728
C96   C     C_R   0.895383 0.543765 0.052464 0.388733
C97   C     C_R   0.395522 0.955912 0.947527 0.388941
C98   C     C_R   0.605502 0.041506 0.048990 0.380774
C99   C     C_R   0.604486 0.044066 0.947534 0.388899
C100  C     C_R   0.394506 0.958473 0.048984 0.380806
Cl1   Cl    Cl    0.075079 0.685400 0.338185 -0.536963
Cl2   Cl    Cl    0.924848 0.314678 0.338062 -0.536881
Cl3   Cl    Cl    0.960558 0.716974 0.477827 -0.592257
Cl4   Cl    Cl    0.039434 0.283034 0.477533 -0.592167
Cl5   Cl    Cl    0.539422 0.216954 0.522566 -0.592317
Cl6   Cl    Cl    0.460563 0.783006 0.522246 -0.592517
Cl7   Cl    Cl    0.424800 0.185292 0.662002 -0.536778
Cl8   Cl    Cl    0.575114 0.814636 0.661884 -0.536854
Cl9   Cl    Cl    0.179372 0.584662 0.669053 -0.504476
Cl10  Cl    Cl    0.820644 0.415338 0.669066 -0.504584
Cl11  Cl    Cl    0.784440 0.536843 0.528305 -0.474568
Cl12  Cl    Cl    0.215552 0.463123 0.528434 -0.474392
Cl13  Cl    Cl    0.715540 0.036883 0.471535 -0.474596
Cl14  Cl    Cl    0.284455 0.963155 0.471700 -0.474871
Cl15  Cl    Cl    0.320651 0.084671 0.330916 -0.505002
Cl16  Cl    Cl    0.679373 0.915317 0.330943 -0.504963
Cl17  Cl    Cl    0.317717 0.583403 0.631110 -0.410236
Cl18  Cl    Cl    0.682298 0.416613 0.631140 -0.410303
Cl19  Cl    Cl    0.695333 0.591433 0.675472 -0.429242
Cl20  Cl    Cl    0.304538 0.408472 0.675721 -0.429390
Cl21  Cl    Cl    0.804537 0.091527 0.324279 -0.429985
Cl22  Cl    Cl    0.195310 0.908585 0.324586 -0.429725
Cl23  Cl    Cl    0.182300 0.083408 0.368809 -0.410172
Cl24  Cl    Cl    0.817717 0.916618 0.369016 -0.410333
O17   O     O_3   0.895666 0.189728 0.355718 -0.505866
C101  C     C_3   0.934580 0.158547 0.422421 -0.055628
H1    H     H_    0.915520 0.111652 0.442032 0.161179
H2    H     H_    0.941907 0.187123 0.488686 0.167875
H3    H     H_    0.980722 0.150848 0.388404 0.243756
O18   O     O_3   0.104188 0.810383 0.356130 -0.505784
C102  C     C_3   0.065367 0.841531 0.423005 -0.055727
H4    H     H_    0.084521 0.888353 0.442808 0.160889
H5    H     H_    0.058016 0.812851 0.489155 0.168023
H6    H     H_    0.019222 0.849390 0.389078 0.243712
O19   O     O_3   0.100340 0.190352 0.371632 -0.517020
C103  C     C_3   0.101885 0.214092 0.276669 -0.164112
H7    H     H_    0.139126 0.191107 0.233263 0.148898
H8    H     H_    0.108168 0.265990 0.276093 0.146009
H9    H     H_    0.056545 0.203734 0.241571 0.217269
O20   O     O_3   0.899714 0.809699 0.371939 -0.517065
C104  C     C_3   0.898251 0.786007 0.276943 -0.163726
H10   H     H_    0.861049 0.809017 0.233492 0.148876
H11   H     H_    0.891966 0.734109 0.276282 0.145968
H12   H     H_    0.943622 0.796381 0.241957 0.217446
O21   O     O_3   0.399678 0.690325 0.628246 -0.516990
C105  C     C_3   0.398199 0.714170 0.723154 -0.163900
H13   H     H_    0.360740 0.691538 0.766536 0.148087
H14   H     H_    0.392317 0.766112 0.723551 0.146773
H15   H     H_    0.443422 0.703499 0.758414 0.217227
O22   O     O_3   0.600336 0.309681 0.628328 -0.517015
C106  C     C_3   0.601878 0.285970 0.723307 -0.164220
H16   H     H_    0.639132 0.308949 0.766693 0.148846
H17   H     H_    0.608141 0.234070 0.723912 0.146012
H18   H     H_    0.556545 0.296358 0.758406 0.217254
O23   O     O_3   0.604199 0.689641 0.643927 -0.505764
C107  C     C_3   0.565368 0.658497 0.577065 -0.055719
H19   H     H_    0.584456 0.611616 0.557426 0.161056
H20   H     H_    0.558113 0.687113 0.510823 0.167699
H21   H     H_    0.519187 0.650765 0.610937 0.243912
O24   O     O_3   0.395674 0.310264 0.644257 -0.505853
C108  C     C_3   0.434576 0.341436 0.577532 -0.055737
H22   H     H_    0.415520 0.388338 0.557944 0.161183
H23   H     H_    0.441877 0.312863 0.511257 0.167774
H24   H     H_    0.480728 0.349120 0.611518 0.243813
O25   O     O_3   0.093404 0.438063 0.749450 -0.481963
C109  C     C_3   0.078365 0.373485 0.758623 -0.136387
H25   H     H_    0.113564 0.345640 0.718426 0.187535
H26   H     H_    0.031789 0.362821 0.726999 0.143364
H27   H     H_    0.079685 0.357427 0.834859 0.135764
O26   O     O_3   0.891297 0.520489 0.258195 -0.525788
C110  C     C_3   0.854219 0.465947 0.247813 -0.158956
H28   H     H_    0.821719 0.463165 0.309928 0.198485
H29   H     H_    0.882002 0.421859 0.246801 0.172476
H30   H     H_    0.825640 0.468217 0.181273 0.169684
O27   O     O_3   0.906607 0.561952 0.749455 -0.482035
C111  C     C_3   0.921670 0.626526 0.758624 -0.136417
H31   H     H_    0.886479 0.654380 0.718429 0.187565
H32   H     H_    0.968248 0.637171 0.726996 0.143446
H33   H     H_    0.920359 0.642588 0.834860 0.135776
O28   O     O_3   0.108706 0.479525 0.258191 -0.525728
C112  C     C_3   0.145765 0.534080 0.247821 -0.159099
H34   H     H_    0.178347 0.536807 0.309841 0.198470
H35   H     H_    0.117969 0.578162 0.247006 0.172559
H36   H     H_    0.174255 0.531886 0.181182 0.169552
O29   O     O_3   0.608669 0.020673 0.741840 -0.525724
C113  C     C_3   0.645809 0.966177 0.752243 -0.159466
H37   H     H_    0.678534 0.963594 0.690391 0.198587
H38   H     H_    0.618085 0.922048 0.752752 0.172736
H39   H     H_    0.674137 0.968335 0.819051 0.169368
O30   O     O_3   0.406891 0.937619 0.250495 -0.482564
C114  C     C_3   0.422333 0.873132 0.241451 -0.137088
H40   H     H_    0.387279 0.845102 0.281628 0.187622
H41   H     H_    0.468950 0.862782 0.273184 0.143832
H42   H     H_    0.421167 0.857031 0.165225 0.135837
O31   O     O_3   0.391334 0.979305 0.741837 -0.525764
C115  C     C_3   0.354180 0.033790 0.752244 -0.159328
H43   H     H_    0.321511 0.036409 0.690323 0.198619
H44   H     H_    0.381894 0.077924 0.752889 0.172704
H45   H     H_    0.325791 0.031582 0.818986 0.169444
O32   O     O_3   0.593123 0.062362 0.250503 -0.482502
C116  C     C_3   0.577707 0.126855 0.241452 -0.137047
H46   H     H_    0.612777 0.154874 0.281623 0.187582
H47   H     H_    0.531097 0.137228 0.273189 0.143743
H48   H     H_    0.578876 0.142950 0.165226 0.135845
O33   O     O_3   0.840589 0.559661 0.903725 -0.543063
C117  C     C_3   0.799426 0.508038 0.900196 -0.052442
H49   H     H_    0.781602 0.496224 0.973292 0.133744
H50   H     H_    0.821792 0.466072 0.867012 0.171691
H51   H     H_    0.758809 0.520895 0.854749 0.245019
O34   O     O_3   0.154823 0.429394 0.099636 -0.547666
C118  C     C_3   0.142230 0.364929 0.112794 -0.193133
H52   H     H_    0.137977 0.340211 0.042366 0.156777
H53   H     H_    0.099390 0.357545 0.156751 0.153891
H54   H     H_    0.181773 0.343455 0.152498 0.182013
O35   O     O_3   0.159428 0.440393 0.903719 -0.543015
C119  C     C_3   0.200565 0.492038 0.900217 -0.052277
H55   H     H_    0.218390 0.503844 0.973319 0.133718
H56   H     H_    0.178176 0.534001 0.867065 0.171578
H57   H     H_    0.241186 0.479212 0.854756 0.245096
O36   O     O_3   0.845192 0.570641 0.099640 -0.547716
C120  C     C_3   0.857834 0.635090 0.112885 -0.193102
H58   H     H_    0.862150 0.659834 0.042490 0.156689
H59   H     H_    0.900654 0.642418 0.156910 0.153975
H60   H     H_    0.818287 0.656583 0.152558 0.182019
O37   O     O_3   0.345387 0.928952 0.900330 -0.547544
C121  C     C_3   0.358174 0.864539 0.887005 -0.193339
H61   H     H_    0.362518 0.839765 0.957371 0.156927
H62   H     H_    0.401030 0.857332 0.843016 0.153959
H63   H     H_    0.318691 0.842986 0.847265 0.181854
O38   O     O_3   0.659165 0.060300 0.096278 -0.543329
C122  C     C_3   0.700464 0.008794 0.100092 -0.052396
H64   H     H_    0.718258 0.996798 0.027046 0.133667
H65   H     H_    0.678222 0.966880 0.133620 0.172368
H66   H     H_    0.741080 0.021893 0.145364 0.245018
O39   O     O_3   0.654630 0.071010 0.900340 -0.547529
C123  C     C_3   0.641866 0.135428 0.887028 -0.193219
H67   H     H_    0.637535 0.160202 0.957399 0.156905
H68   H     H_    0.599011 0.142653 0.843045 0.154066
H69   H     H_    0.681356 0.156966 0.847289 0.181865
O40   O     O_3   0.340849 0.939662 0.096270 -0.543385
C124  C     C_3   0.299533 0.991153 0.100086 -0.052536
H70   H     H_    0.281722 0.003128 0.027043 0.133735
H71   H     H_    0.321765 0.033082 0.133590 0.172388
H72   H     H_    0.258930 0.978048 0.145380 0.244964

loop_
_geom_bond_atom_site_label_1
_geom_bond_atom_site_label_2
_geom_bond_distance
_ccdc_geom_bond_type
C79   N3    1.372236 A    
C122  H65   1.113267 S    
C80   C86   1.430477 A    
C104  H10   1.113150 S    
C8    C21   1.452389 S    
C29   Cl13  1.768149 S    
O5    Cu2   1.970849 S    
C102  H5    1.113210 S    
O21   C105  1.411133 S    
C84   C96   1.414136 A    
C63   C67   1.397889 A    
O35   C119  1.410046 S    
C14   C22   1.394803 A    
C16   Cl8   1.776202 S    
C11   Cl3   1.763526 S    
C2    C19   1.452370 S    
C95   O35   1.383437 S    
O32   C116  1.417322 S    
Cu2   N2    2.030419 S    
C10   Cl2   1.776191 S    
C108  H22   1.112230 S    
C45   C53   1.416003 A    
C106  H17   1.112674 S    
C41   C49   1.415571 A    
C112  H34   1.109611 S    
O24   C108  1.411471 S    
C74   C84   1.426034 A    
O37   C121  1.410136 S    
C109  H25   1.109683 S    
C7    C22   1.452378 S    
C77   O29   1.382223 S    
C32   C40   1.408871 A    
C82   C90   1.409596 A    
C13   C53   1.405960 A    
C54   C69   1.412334 A    
C81   C89   1.403787 A    
O20   C104  1.411111 S    
C39   C63   1.416831 A    
C53   C70   1.412327 A    
C88   C100  1.421117 A    
C9    Cl1   1.776184 S    
C38   C62   1.411105 A    
C77   C87   1.426007 A    
C108  H23   1.113206 S    
O6    Cu1   1.970846 S    
O2    C2    1.298914 A    
C105  H13   1.113115 S    
C80   O32   1.376386 S    
C121  H62   1.113510 S    
C91   C92   1.427464 A    
C46   C54   1.416027 A    
C80   N4    1.389129 A    
C116  H48   1.111648 S    
C29   C37   1.409650 A    
O36   C120  1.410146 S    
O13   C7    1.295653 A    
C117  H51   1.109260 S    
C20   C28   1.397111 A    
C96   O36   1.383132 S    
O14   C8    1.298901 A    
C79   C85   1.426004 A    
C27   C35   1.409692 A    
Cu4   N4    2.030419 S    
C94   C95   1.408408 A    
C83   C89   1.403786 A    
C97   C100  1.408415 A    
C16   C56   1.412960 A    
C109  H27   1.111611 S    
C39   C47   1.416927 A    
O22   C106  1.411103 S    
C33   C41   1.416954 A    
C41   C46   1.409228 A    
C38   C46   1.418786 A    
C59   Cl19  1.771299 S    
O19   C103  1.411115 S    
C67   O19   1.383117 S    
O40   C124  1.410026 S    
C60   Cl20  1.771311 S    
C101  H3    1.108139 S    
C35   C43   1.418762 A    
C118  H52   1.113196 S    
C36   C44   1.418748 A    
O13   Cu4   1.970849 S    
O14   Cu3   1.970846 S    
C15   C23   1.415038 A    
C124  H70   1.112268 S    
C79   O31   1.382221 S    
C59   C71   1.400091 A    
C107  H21   1.108162 S    
C110  H30   1.108814 S    
C27   Cl11  1.768147 S    
C24   C32   1.411750 A    
O16   Cu3   1.970836 S    
C112  H35   1.111447 S    
O26   C110  1.414200 S    
C78   O30   1.376378 S    
C122  H66   1.109136 S    
C25   C33   1.408888 A    
O27   C111  1.417406 S    
C104  H11   1.112714 S    
C120  H58   1.113196 S    
C82   C94   1.414128 A    
C102  H6    1.108175 S    
O1    Cu1   1.970794 S    
O8    Cu1   1.970836 S    
C118  H53   1.113514 S    
C42   C50   1.415548 A    
C81   C93   1.421151 A    
O25   C109  1.417406 S    
Cu1   N1    2.030419 S    
C123  H69   1.109353 S    
C58   C70   1.397885 A    
C21   C29   1.397106 A    
O3    C2    1.295646 A    
C10   C50   1.412993 A    
C107  H20   1.113211 S    
C76   O28   1.382283 S    
C106  H18   1.109233 S    
C9    C49   1.412961 A    
C64   Cl24  1.771091 S    
C116  H47   1.113992 S    
C102  H4    1.112192 S    
O8    C3    1.304569 A    
C78   C88   1.430474 A    
C87   C99   1.414102 A    
C85   C97   1.414114 A    
C44   C47   1.409223 A    
O3    Cu1   1.970802 S    
C12   C52   1.405910 A    
C72   O24   1.382839 S    
C93   C96   1.408410 A    
C73   N1    1.389106 A    
O31   C115  1.414141 S    
O30   C114  1.417323 S    
C111  H31   1.109673 S    
C108  H24   1.108109 S    
C34   C42   1.416928 A    
C99   O39   1.383103 S    
C121  H61   1.113198 S    
C68   O20   1.383101 S    
O5    C3    1.303593 A    
O12   C5    1.304560 A    
C119  H57   1.109257 S    
O10   C6    1.304570 A    
O23   C107  1.411500 S    
C71   O23   1.382889 S    
C1    C20   1.452342 S    
C103  H8    1.112697 S    
C60   C72   1.400067 A    
C33   C57   1.416852 A    
C114  H40   1.109608 S    
C103  H9    1.109236 S    
O33   C117  1.410043 S    
C3    C18   1.476449 S    
C26   Cl10  1.775049 S    
C5    C24   1.476420 S    
C35   C59   1.411090 A    
C94   O34   1.383136 S    
C97   O37   1.383097 S    
C6    C23   1.476432 S    
O11   Cu3   1.970802 S    
C15   C55   1.412970 A    
C26   C34   1.408889 A    
C123  H68   1.113514 S    
C119  H56   1.113278 S    
O29   C113  1.414145 S    
C30   C38   1.409687 A    
C101  H2    1.113200 S    
O2    Cu2   1.970794 S    
C48   C56   1.415522 A    
C76   N2    1.372222 A    
C117  H50   1.113261 S    
C51   C68   1.412311 A    
C124  H71   1.113268 S    
C14   Cl6   1.763570 S    
O18   C102  1.411522 S    
C77   N3    1.372226 A    
C55   C72   1.418583 A    
C22   C30   1.397169 A    
C63   Cl23  1.771086 S    
O4    C1    1.298889 A    
C111  H32   1.113969 S    
O15   C8    1.295667 A    
C14   C54   1.405888 A    
O7    C4    1.303617 A    
C104  H12   1.109213 S    
C61   Cl21  1.771295 S    
C12   C20   1.394799 A    
C120  H59   1.113503 S    
C9    C17   1.415028 A    
C118  H54   1.109402 S    
C13   Cl5   1.763544 S    
C114  H42   1.111652 S    
C31   C39   1.408887 A    
O34   C118  1.410135 S    
C62   Cl22  1.771333 S    
C17   C25   1.411767 A    
O39   C123  1.410132 S    
O9    C5    1.303589 A    
C86   C92   1.403695 A    
C88   C92   1.403700 A    
C52   C67   1.412302 A    
C107  H19   1.112225 S    
O9    Cu3   1.970794 S    
C19   C27   1.397152 A    
C89   C90   1.427521 A    
C112  H36   1.108834 S    
O10   Cu4   1.970794 S    
C28   C36   1.409641 A    
C76   C82   1.426034 A    
C43   C48   1.409214 A    
C109  H26   1.113966 S    
C42   C45   1.409261 A    
C116  H46   1.109622 S    
C74   O26   1.382287 S    
O1    C1    1.295660 A    
C28   Cl12  1.768147 S    
C64   C68   1.397907 A    
C37   C45   1.418753 A    
C123  H67   1.113195 S    
C36   C60   1.411018 A    
C98   O38   1.383364 S    
O4    Cu2   1.970802 S    
C30   Cl14  1.768180 S    
C57   C69   1.397863 A    
C73   O25   1.376493 S    
C25   Cl9   1.775082 S    
O16   C7    1.298920 A    
C113  H39   1.108863 S    
O6    C4    1.304554 A    
C93   O33   1.383435 S    
C70   O22   1.383111 S    
O11   C6    1.303581 A    
C113  H38   1.111447 S    
C83   C95   1.421139 A    
C115  H44   1.111443 S    
C40   C48   1.416915 A    
C84   C90   1.409592 A    
C103  H7    1.113165 S    
C12   Cl4   1.763519 S    
O38   C122  1.410025 S    
C58   Cl18  1.771111 S    
Cu1   Cu2   2.702416 S    
C15   Cl7   1.776199 S    
C13   C21   1.394818 A    
C106  H16   1.113171 S    
C62   C66   1.400072 A    
O17   C101  1.411477 S    
C73   C83   1.430533 A    
C4    C17   1.476462 S    
C40   C64   1.416816 A    
C23   C31   1.411767 A    
O15   Cu4   1.970833 S    
O7    Cu2   1.970833 S    
C121  H63   1.109353 S    
C111  H33   1.111614 S    
C78   N4    1.389118 A    
Cu3   N3    2.030419 S    
C119  H55   1.112273 S    
C32   Cl16  1.775031 S    
C34   C58   1.416816 A    
C11   C19   1.394778 A    
C115  H43   1.109602 S    
C37   C61   1.411039 A    
C44   C52   1.415966 A    
C66   O18   1.382906 S    
C117  H49   1.112261 S    
C124  H72   1.109135 S    
C65   O17   1.382860 S    
C86   C98   1.421123 A    
C18   C26   1.411759 A    
C114  H41   1.114000 S    
C16   C24   1.415035 A    
C85   C91   1.409507 A    
C56   C71   1.418568 A    
C69   O21   1.383178 S    
C110  H28   1.109612 S    
C75   N1    1.389105 A    
C47   C55   1.415511 A    
O28   C112  1.414193 S    
C74   N2    1.372216 A    
C57   Cl17  1.771153 S    
C75   O27   1.376488 S    
C113  H37   1.109590 S    
C120  H60   1.109399 S    
C75   C81   1.430538 A    
Cu3   Cu4   2.702416 S    
C100  O40   1.383368 S    
C101  H1    1.112220 S    
C87   C91   1.409520 A    
C105  H14   1.112599 S    
C10   C18   1.415035 A    
O12   Cu4   1.970802 S    
C98   C99   1.408410 A    
C50   C65   1.418596 A    
C43   C51   1.415970 A    
C115  H45   1.108858 S    
C61   C65   1.400055 A    
C49   C66   1.418593 A    
C122  H64   1.112270 S    
C11   C51   1.405902 A    
C110  H29   1.111457 S    
C105  H15   1.109354 S    
C31   Cl15  1.775057 S    
