data_mof_unit_24296.cif
_audit_creation_date              2012-12-11T14:36:19-0500
_audit_creation_method            fapswitch 2.2
_symmetry_space_group_name_H-M    P1
_symmetry_Int_Tables_number       1
_space_group_crystal_system       triclinic
_cell_length_a                    13.512871
_cell_length_b                    13.504278
_cell_length_c                    27.489899
_cell_angle_alpha                 90.504329
_cell_angle_beta                  89.921893
_cell_angle_gamma                 60.022787
_cell_volume                      4345.06243218

loop_
_atom_site_label
_atom_site_type_symbol
_atom_type_description
_atom_site_fract_x
_atom_site_fract_y
_atom_site_fract_z
_atom_type_partial_charge
C1    C     C_R   0.620898 0.102337 0.569759 0.541618
C2    C     C_1   0.663588 0.677397 0.653651 -0.064978
C3    C     C_R   0.142650 0.019834 0.393440 0.041804
C4    C     C_R   0.055233 0.081652 0.427622 -0.087430
C5    C     C_R   0.017604 0.024829 0.458224 -0.103652
C6    C     C_R   0.067145 0.906051 0.455020 -0.100651
C7    C     C_R   0.154459 0.843888 0.421225 -0.116094
C8    C     C_R   0.192259 0.900393 0.390532 -0.083835
C9    C     C_3   0.623214 0.864998 0.732100 -0.260008
C10   C     C_3   0.502717 0.930094 0.711130 -0.297912
C11   C     C_3   0.476243 0.046877 0.693411 -0.435534
C12   C     C_3   0.036455 0.224690 0.734113 -0.100674
C13   C     C_R   0.600879 0.777074 0.568085 0.541568
C14   C     C_3   0.083795 0.121558 0.769127 -0.096083
C15   C     C_1   0.087257 0.207602 0.899814 -0.015589
C16   C     C_1   0.216516 0.144249 0.614998 -0.031752
C17   C     C_3   0.076689 0.287146 0.769684 -0.100515
C18   C     C_3   0.124582 0.183686 0.803743 0.053261
C19   C     C_3   0.193879 0.232279 0.743354 -0.101641
C20   C     C_3   0.153449 0.169865 0.708562 0.053990
C21   C     C_1   0.639407 0.716261 0.613165 -0.030342
C22   C     C_3   0.241126 0.129284 0.778132 -0.105360
C23   C     C_3   0.200945 0.066746 0.742754 -0.102021
C24   C     C_1   0.108006 0.193156 0.856769 -0.059179
C25   C     C_R   0.275286 0.122943 0.569021 0.541910
C26   C     C_1   0.180304 0.158267 0.656215 -0.069166
C27   C     C_3   0.721622 0.235685 0.735242 -0.101230
C28   C     C_3   0.618082 0.301340 0.770277 -0.101199
C29   C     C_1   0.696150 0.212790 0.901144 -0.015010
C30   C     C_1   0.639583 0.139449 0.616401 -0.032360
C31   C     C_3   0.774845 0.134520 0.771181 -0.096599
C32   C     C_3   0.721090 0.526030 0.763746 -0.111297
C33   C     C_3   0.671262 0.199577 0.805269 0.053315
C34   C     C_3   0.711977 0.079837 0.745478 -0.099922
C35   C     C_3   0.658715 0.181060 0.710240 0.055037
C36   C     C_3   0.608618 0.145177 0.780238 -0.106627
C37   C     C_R   0.621450 0.098238 0.430656 0.543156
C38   C     C_3   0.555036 0.246510 0.744393 -0.103701
C39   C     C_1   0.681641 0.206266 0.858198 -0.059260
C40   C     C_1   0.650346 0.162805 0.657896 -0.067868
C41   C     C_R   0.738873 0.681639 0.359362 -0.015526
C42   C     C_R   0.751079 0.677494 0.307922 0.023831
C43   C     C_3   0.696010 0.621902 0.801025 0.042769
C44   C     C_R   0.772358 0.654089 0.206063 0.008341
C45   C     C_R   0.868978 0.621895 0.234633 -0.145014
C46   C     C_R   0.858709 0.633109 0.284998 -0.148138
C47   C     C_R   0.784040 0.626423 0.156884 -0.135025
C48   C     C_R   0.688677 0.643054 0.129995 -0.004934
C49   C     C_R   0.600956 0.777943 0.429742 0.530249
C50   C     C_R   0.531136 0.780081 0.348813 -0.139408
C51   C     C_R   0.542754 0.769159 0.299077 -0.000692
C52   C     C_R   0.652404 0.718895 0.278265 0.050947
C53   C     C_R   0.445289 0.809218 0.269926 -0.129552
C54   C     C_3   0.610752 0.609631 0.736043 -0.112833
C55   C     C_R   0.456610 0.792573 0.219887 -0.128865
C56   C     C_R   0.565373 0.737832 0.198654 0.014569
C57   C     C_R   0.663229 0.705815 0.227588 0.066030
C58   C     C_R   0.578876 0.705824 0.149785 -0.137125
C59   C     C_R   0.626727 0.738802 0.379216 0.006673
C60   C     C_R   0.182059 0.080760 0.360922 -0.040129
C61   C     C_R   0.280679 0.119718 0.430352 0.539544
C62   C     C_R   0.160856 0.088121 0.310291 0.002023
C63   C     C_R   0.116521 0.109365 0.209864 0.006080
C64   C     C_R   0.083648 0.045311 0.238405 -0.143012
C65   C     C_3   0.680927 0.648457 0.705637 0.058609
C66   C     C_R   0.104369 0.035732 0.288168 -0.142269
C67   C     C_R   0.086610 0.127736 0.161193 -0.135229
C68   C     C_R   0.107499 0.203100 0.133956 -0.004307
C69   C     C_R   0.269935 0.199804 0.350692 -0.144694
C70   C     C_R   0.249702 0.207531 0.301468 0.002984
C71   C     C_R   0.195652 0.151502 0.280881 0.051114
C72   C     C_R   0.283373 0.270838 0.272643 -0.130319
C73   C     C_3   0.791096 0.565388 0.732543 -0.116092
C74   C     C_R   0.260027 0.282356 0.223222 -0.130882
C75   C     C_R   0.203201 0.230227 0.202259 0.014079
C76   C     C_3   0.586020 0.704671 0.774225 -0.089719
C77   C     C_R   0.173253 0.162283 0.230887 0.065541
C78   C     C_R   0.169735 0.250436 0.153830 -0.139075
C79   C     C_R   0.238180 0.136431 0.380577 -0.017517
C80   C     C_R   0.571465 0.235418 0.362507 -0.146842
C81   C     C_R   0.574662 0.253858 0.312677 0.008807
C82   C     C_R   0.584188 0.288395 0.212579 0.009590
C83   C     C_R   0.515387 0.380966 0.243535 -0.137970
C84   C     C_R   0.510221 0.363688 0.293291 -0.144785
C85   C     C_3   0.766597 0.660325 0.770889 -0.102643
C86   C     C_R   0.598412 0.305846 0.163689 -0.138390
C87   C     C_3   0.656648 0.742155 0.743545 0.034944
C88   C     C_R   0.675088 0.213338 0.134315 -0.005879
C89   C     C_R   0.708458 0.033380 0.350062 -0.124930
C90   C     C_R   0.709409 0.049492 0.300439 0.007714
C91   C     C_R   0.642798 0.160126 0.281529 0.064719
C92   C     C_R   0.774829 0.956121 0.269449 -0.132262
C93   C     C_R   0.777200 0.972703 0.219733 -0.132806
C94   C     C_R   0.715148 0.082984 0.200748 0.011263
C95   C     C_R   0.646069 0.177034 0.231511 0.064710
C96   C     C_R   0.727243 0.101703 0.152092 -0.134854
C97   C     C_1   0.703847 0.593862 0.897399 -0.014934
C98   C     C_1   0.700261 0.609537 0.854124 -0.060270
C99   C     C_R   0.638141 0.125172 0.381160 -0.000659
C100  C     C_R   0.047372 0.237416 0.949161 0.544549
C101  C     C_R   0.712864 0.560214 0.947353 0.543208
C102  C     C_R   0.723206 0.226358 0.950364 0.544066
C103  C     C_R   0.048217 0.244344 0.088100 0.547982
C104  C     C_R   0.707915 0.576157 0.085686 0.547304
C105  C     C_R   0.717968 0.234055 0.089091 0.546969
C106  C     C_3   0.843040 0.620874 0.392223 -0.254889
C107  C     C_3   0.898972 0.490265 0.387409 -0.310647
C108  C     C_3   0.006875 0.430142 0.418064 -0.441270
Cr1   Cr    Cr6+3 0.417550 0.169090 0.500530 1.011009
Cr2   Cr    Cr6+3 0.669180 0.913420 0.499920 1.004808
Cr3   Cr    Cr6+3 0.413260 0.917540 0.499520 1.031432
Cr4   Cr    Cr6+3 0.909170 0.177380 0.020380 1.018173
Cr5   Cr    Cr6+3 0.912710 0.429210 0.018220 1.019554
Cr6   Cr    Cr6+3 0.657170 0.432570 0.019030 1.021297
H1    H     H_    0.829662 0.682490 0.785574 0.099451
H2    H     H_    0.864882 0.086953 0.783167 0.098472
H3    H     H_    0.869231 0.580040 0.141208 0.134996
H4    H     H_    0.874902 0.507728 0.715005 0.103523
H5    H     H_    0.953303 0.583332 0.218195 0.109795
H6    H     H_    0.936361 0.604873 0.305396 0.112018
H7    H     H_    0.505211 0.721346 0.128369 0.122139
H8    H     H_    0.380849 0.819113 0.198070 0.112435
H9    H     H_    0.360547 0.849907 0.285980 0.112949
H10   H     H_    0.445373 0.825847 0.363818 0.138121
H11   H     H_    0.038389 0.090666 0.145826 0.136858
H12   H     H_    0.324586 0.091154 0.797002 0.099194
H13   H     H_    0.038650 0.005419 0.222485 0.113204
H14   H     H_    0.074217 0.988352 0.308962 0.126554
H15   H     H_    0.186570 0.307639 0.132466 0.121680
H16   H     H_    0.283974 0.334056 0.201692 0.110864
H17   H     H_    0.325672 0.313391 0.288562 0.117740
H18   H     H_    0.315080 0.240799 0.365472 0.140992
H19   H     H_    0.557461 0.392191 0.149766 0.130231
H20   H     H_    0.515915 0.305719 0.386511 0.111803
H21   H     H_    0.467345 0.466897 0.229424 0.110358
H22   H     H_    0.457105 0.436293 0.316673 0.105668
H23   H     H_    0.239151 0.278185 0.732290 0.100141
H24   H     H_    0.784771 0.030167 0.129024 0.124986
H25   H     H_    0.502070 0.762501 0.791645 0.098018
H26   H     H_    0.830115 0.899923 0.196376 0.110224
H27   H     H_    0.825060 0.870602 0.283742 0.115838
H28   H     H_    0.758010 0.947291 0.363997 0.136111
H29   H     H_    0.547434 0.587780 0.721406 0.103673
H30   H     H_    0.748689 0.436154 0.773058 0.106714
H31   H     H_    0.040791 0.074018 0.780616 0.097414
H32   H     H_    0.952670 0.264328 0.715535 0.095623
H33   H     H_    0.250223 0.975749 0.731048 0.098616
H34   H     H_    0.025688 0.377988 0.781482 0.107269
H35   H     H_    0.071666 0.451532 0.404925 0.156089
H36   H     H_    0.986892 0.455727 0.456938 0.152963
H37   H     H_    0.043184 0.336421 0.415051 0.150012
H38   H     H_    0.837527 0.463643 0.399916 0.163730
H39   H     H_    0.922012 0.461436 0.349052 0.177513
H40   H     H_    0.905017 0.649807 0.384002 0.129321
H41   H     H_    0.820844 0.641309 0.431134 0.163342
H42   H     H_    0.015802 0.173703 0.430338 0.092379
H43   H     H_    0.949897 0.072900 0.484370 0.112835
H44   H     H_    0.037783 0.862217 0.478677 0.110607
H45   H     H_    0.578996 0.392702 0.781149 0.104768
H46   H     H_    0.192639 0.751922 0.418710 0.099412
H47   H     H_    0.259096 0.851349 0.364230 0.086748
H48   H     H_    0.467043 0.102944 0.724650 0.148066
H49   H     H_    0.544357 0.037913 0.668358 0.167475
H50   H     H_    0.395560 0.087149 0.673189 0.157147
H51   H     H_    0.492945 0.882721 0.680144 0.177344
H52   H     H_    0.440526 0.940018 0.739669 0.150530
H53   H     H_    0.626973 0.908011 0.766095 0.132521
H54   H     H_    0.686273 0.863147 0.705591 0.145452
H55   H     H_    0.767464 0.272981 0.716103 0.095959
H56   H     H_    0.464330 0.293184 0.732863 0.099352
H57   H     H_    0.562440 0.108380 0.799565 0.097480
H58   H     H_    0.752887 0.988332 0.734843 0.097653
O1    O     O_R   0.301710 0.195650 0.554160 -0.509377
O2    O     O_R   0.635520 0.542770 0.964420 -0.508456
O3    O     O_R   0.665950 0.325030 0.970100 -0.495332
O4    O     O_R   0.522390 0.158990 0.550460 -0.493122
O5    O     O_R   0.816620 0.158530 0.074540 -0.522921
O6    O     O_R   0.004460 0.188870 0.069750 -0.505642
O7    O     O_R   0.025800 0.341780 0.072300 -0.519555
O8    O     O_R   0.807650 0.528950 0.067500 -0.505471
O9    O     O_R   0.633420 0.550490 0.071810 -0.518222
O10   O     O_R   0.664000 0.332180 0.069640 -0.500911
O11   O     O_3   0.826350 0.346390 0.019210 -0.245606
O12   O     O_R   0.658900 0.818120 0.449760 -0.510161
O13   O     O_R   0.694390 0.003530 0.554040 -0.509775
O14   O     O_R   0.657700 0.819660 0.549320 -0.496155
O15   O     O_R   0.501930 0.803280 0.552920 -0.506946
O16   O     O_R   0.318170 0.023580 0.549580 -0.490366
O17   O     O_R   0.303010 0.193990 0.446760 -0.531153
O18   O     O_R   0.523600 0.157450 0.450900 -0.503393
O19   O     O_R   0.695690 0.001860 0.446640 -0.522890
O20   O     O_R   0.503220 0.801620 0.445520 -0.520117
O21   O     O_R   0.319370 0.022040 0.450020 -0.484522
O22   O     O_3   0.499990 0.000010 0.499990 -0.243432
O23   O     O_R   0.818720 0.150820 0.967160 -0.508932
O24   O     O_R   0.006410 0.181720 0.970200 -0.495426
O25   O     O_R   0.027890 0.334070 0.964920 -0.507836
O26   O     O_R   0.809600 0.521790 0.967960 -0.495912

loop_
_geom_bond_atom_site_label_1
_geom_bond_atom_site_label_2
_ccdc_geom_bond_type
C55   C56   A    
C88   C96   A    
C1    O4    A    
C93   C94   A    
C13   O15   A    
C41   C42   A    
C14   C18   S    
C19   C20   S    
C68   C103  S    
C37   C99   S    
C15   C100  S    
C2    C65   S    
C102  O23   A    
C97   C98   T    
Cr1   O4    S    
C65   C73   S    
C7    C8    A    
C60   C79   A    
C54   C65   S    
C104  O8    A    
C45   C46   A    
C1    C30   S    
C14   H31   S    
Cr3   O16   S    
C33   C39   S    
C12   C20   S    
C89   C99   A    
C18   C24   S    
C50   C59   A    
C46   H6    S    
Cr4   O6    S    
C78   H15   S    
C8    H47   S    
C67   H11   S    
C96   H24   S    
C5    C6    A    
Cr1   O1    S    
C22   H12   S    
C106  C107  S    
Cr6   O11   S    
C49   O12   A    
Cr2   O19   S    
C43   C76   S    
C33   C36   S    
C80   H20   S    
C56   C57   A    
C60   C62   A    
C34   C35   S    
C42   C46   A    
C12   H32   S    
C11   H50   S    
Cr2   O14   S    
C83   C84   A    
Cr1   O17   S    
C106  H40   S    
C12   C17   S    
Cr2   O22   S    
C107  C108  S    
C31   C33   S    
C38   H56   S    
C70   C71   A    
C82   C95   A    
C54   H29   S    
C105  O10   A    
C9    C10   S    
C27   H55   S    
C83   H21   S    
C44   C47   A    
C10   H52   S    
C100  O25   A    
C45   H5    S    
C53   C55   A    
C37   O18   A    
C55   H8    S    
Cr2   O12   S    
Cr3   O20   S    
C61   O17   A    
C29   C39   T    
C101  O2    A    
C69   C70   A    
C32   C54   S    
C6    H44   S    
C65   C87   S    
Cr4   O11   S    
C100  O24   A    
C68   C78   A    
C63   C67   A    
C41   C106  S    
C62   C66   A    
C85   C87   S    
C27   C31   S    
C51   C52   A    
C43   C85   S    
C85   H1    S    
C19   C22   S    
C50   H10   S    
C41   C59   A    
C72   C74   A    
C3    C8    A    
C53   H9    S    
C32   C73   S    
C49   O20   A    
C101  O26   A    
C80   C81   A    
C7    H46   S    
C27   C35   S    
C102  O3    A    
Cr6   O10   S    
C56   C58   A    
C23   H33   S    
C11   H48   S    
C67   C68   A    
C51   C53   A    
C64   C66   A    
C14   C23   S    
Cr4   O23   S    
C10   H51   S    
C25   O16   A    
C108  H37   S    
C86   H19   S    
C90   C92   A    
C47   C48   A    
C20   C23   S    
C28   C38   S    
C44   C57   A    
C19   H23   S    
C64   H13   S    
C17   H34   S    
C2    C21   T    
C11   H49   S    
C50   C51   A    
C31   C34   S    
C13   C21   S    
Cr1   O22   S    
C94   C96   A    
C92   H27   S    
C75   C77   A    
C76   C87   S    
C73   C85   S    
C107  H39   S    
C34   C36   S    
Cr3   O21   S    
C54   C76   S    
C107  H38   S    
C15   C24   T    
Cr5   O7    S    
C12   C14   S    
C28   C33   S    
C82   C83   A    
C5    H43   S    
C10   C11   S    
C74   H16   S    
C80   C99   A    
C43   C98   S    
C108  H36   S    
C69   C79   A    
C3    C4    A    
C61   O21   A    
C31   H2    S    
C71   C77   A    
C81   C84   A    
C34   H58   S    
C44   C45   A    
C72   H17   S    
Cr6   O3    S    
C63   C77   A    
Cr5   O26   S    
C13   O14   A    
C16   C25   S    
C30   C40   T    
C84   H22   S    
C58   H7    S    
C73   H4    S    
C4    H42   S    
C18   C22   S    
C9    H54   S    
C22   C23   S    
C105  O5    A    
C4    C5    A    
C16   C26   T    
C48   C58   A    
C6    C7    A    
C1    O13   A    
Cr6   O9    S    
Cr3   O15   S    
C29   C102  S    
C49   C59   S    
C17   C18   S    
C103  O6    A    
C36   C38   S    
C35   C40   S    
C86   C88   A    
C93   H26   S    
C82   C86   A    
C9    C87   S    
C88   C105  S    
C36   H57   S    
C90   C91   A    
Cr5   O11   S    
C20   C26   S    
C61   C79   S    
C69   H18   S    
Cr4   O24   S    
Cr6   O2    S    
Cr2   O13   S    
C63   C64   A    
C92   C93   A    
C17   C19   S    
C32   C43   S    
C66   H14   S    
C62   C71   A    
C104  O9    A    
C103  O7    A    
C28   H45   S    
C94   C95   A    
C75   C78   A    
C32   H30   S    
C52   C57   A    
Cr3   O22   S    
C91   C95   A    
C108  H35   S    
C81   C91   A    
C25   O1    A    
C47   H3    S    
Cr5   O8    S    
C74   C75   A    
C76   H25   S    
C106  H41   S    
C27   C28   S    
C37   O19   A    
Cr5   O25   S    
C35   C38   S    
C9    H53   S    
C70   C72   A    
Cr1   O18   S    
C89   C90   A    
C3    C60   S    
C97   C101  S    
C89   H28   S    
C42   C52   A    
Cr4   O5    S    
C48   C104  S    
