data_mof_unit_18287.cif
_audit_creation_date              2012-12-10T18:23:03-0500
_audit_creation_method            fapswitch 2.2
_symmetry_space_group_name_H-M    P1
_symmetry_Int_Tables_number       1
_space_group_crystal_system       triclinic
_cell_length_a                    15.002005
_cell_length_b                    14.020827
_cell_length_c                    10.546075
_cell_angle_alpha                 90.636843
_cell_angle_beta                  90.022732
_cell_angle_gamma                 89.878907
_cell_volume                      2218.12473212

loop_
_atom_site_label
_atom_site_type_symbol
_atom_type_description
_atom_site_fract_x
_atom_site_fract_y
_atom_site_fract_z
_atom_type_partial_charge
C1    C     C_R   0.326548 0.500074 0.500248 0.896786
C2    C     C_R   0.673452 0.499929 0.499783 0.897602
C3    C     C_R   0.953591 0.500383 0.499853 0.033332
C4    C     C_R   0.046409 0.499690 0.500601 0.033833
C5    C     C_R   0.907079 0.585643 0.471713 0.065936
C6    C     C_R   0.092923 0.414429 0.528744 0.065667
C7    C     C_R   0.953182 0.331681 0.555258 -0.229443
C8    C     C_R   0.046818 0.668415 0.445348 -0.230127
C9    C     C_R   0.045768 0.330279 0.556252 0.153487
C10   C     C_R   0.954231 0.669818 0.444376 0.154221
C11   C     C_R   0.547192 0.797064 0.409993 -0.020410
C12   C     C_R   0.452732 0.203010 0.590056 -0.028463
C13   C     C_R   0.452765 0.798600 0.590163 -0.059383
C14   C     C_R   0.547015 0.201224 0.409731 -0.032723
C15   C     C_R   0.451311 0.899555 0.593251 -0.031424
C16   C     C_R   0.548197 0.100340 0.406833 0.013937
C17   C     C_R   0.548319 0.897840 0.407098 0.018516
C18   C     C_R   0.451412 0.102230 0.592866 -0.003073
C19   C     C_R   0.499815 0.949389 0.500114 0.014499
C20   C     C_R   0.499824 0.050543 0.499949 -0.006476
C21   C     C_R   0.402883 0.951754 0.686437 0.054778
C22   C     C_R   0.596324 0.048837 0.313454 0.053943
C23   C     C_R   0.596471 0.947533 0.313673 0.054798
C24   C     C_R   0.403086 0.052592 0.685958 0.102951
C25   C     C_R   0.500124 0.499364 0.257579 0.913197
C26   C     C_R   0.499960 0.500626 0.742425 0.912069
C27   C     C_3   0.426623 0.541125 0.042952 0.108008
C28   C     C_3   0.573585 0.458804 0.957047 0.107707
C29   C     C_3   0.497439 0.589947 0.963243 0.109348
C30   C     C_3   0.502779 0.409970 0.036779 0.105841
C31   C     C_3   0.426743 0.451854 0.955841 -0.284581
C32   C     C_3   0.573467 0.548065 0.044178 -0.280943
C33   C     C_3   0.499338 0.501796 0.876407 -0.058156
C34   C     C_3   0.500861 0.498142 0.123604 -0.058576
C35   C     C_R   0.814612 0.584081 0.471835 -0.218857
C36   C     C_R   0.185391 0.415963 0.528458 -0.218661
C37   C     C_R   0.769257 0.499934 0.499371 -0.083348
C38   C     C_R   0.230744 0.500091 0.500816 -0.083173
C39   C     C_R   0.815109 0.416050 0.526767 -0.222018
C40   C     C_R   0.184890 0.584001 0.473556 -0.225525
C41   C     C_R   0.907208 0.415646 0.527324 0.086173
C42   C     C_R   0.092791 0.584427 0.473128 0.086604
H1    H     H_    0.367651 0.413459 0.917905 0.159817
H2    H     H_    0.632554 0.586466 0.082115 0.159638
H3    H     H_    0.777125 0.647732 0.449925 0.193192
H4    H     H_    0.222881 0.352300 0.550296 0.192973
H5    H     H_    0.779177 0.351198 0.548681 0.164367
H6    H     H_    0.220819 0.648853 0.451632 0.163484
H7    H     H_    0.917045 0.266894 0.576385 0.176208
H8    H     H_    0.082954 0.733218 0.424330 0.176237
H9    H     H_    0.583844 0.755295 0.340571 0.161963
H10   H     H_    0.416128 0.244795 0.659526 0.162619
H11   H     H_    0.416439 0.757643 0.659219 0.147508
H12   H     H_    0.583524 0.241697 0.340190 0.174441
N1    N     N_R   0.500000 0.750030 0.500000 -0.115747
N2    N     N_R   0.500000 0.249970 0.500000 -0.125297
O1    O     O_R   0.367850 0.580280 0.500030 -0.628108
O2    O     O_R   0.632150 0.419720 0.499970 -0.627554
O3    O     O_R   0.632150 0.580280 0.499970 -0.624387
O4    O     O_R   0.367850 0.419720 0.500030 -0.623782
O5    O     O_R   0.499970 0.580260 0.313950 -0.638729
O6    O     O_R   0.500030 0.419740 0.686050 -0.638594
O7    O     O_R   0.500030 0.580260 0.686050 -0.617546
O8    O     O_R   0.499970 0.419740 0.313950 -0.617657
Zn1   Zn    Zn3+2 0.500000 0.607200 0.500000 0.948332
Zn2   Zn    Zn3+2 0.500000 0.392800 0.500000 0.949746
N3    N     N_3   0.346840 0.586774 0.094022 -0.450683
H13   H     H_    0.309810 0.611425 0.017066 0.197426
H14   H     H_    0.367075 0.646927 0.145768 0.194055
N4    N     N_3   0.653367 0.413181 0.905933 -0.450936
H15   H     H_    0.690400 0.388489 0.982862 0.200129
H16   H     H_    0.633129 0.353058 0.854124 0.193435
N5    N     N_3   0.491985 0.688345 0.920985 -0.465521
H17   H     H_    0.490061 0.731834 0.002073 0.176432
H18   H     H_    0.551664 0.703777 0.874526 0.204905
N6    N     N_3   0.508296 0.311571 0.079090 -0.446700
H19   H     H_    0.510475 0.268078 0.998034 0.178414
H20   H     H_    0.448526 0.296042 0.125253 0.205215
I1    I     I_    0.107798 0.197925 0.600129 -0.393754
I2    I     I_    0.892196 0.802227 0.400916 -0.399130
N7    N     N_3   0.352921 0.904202 0.782925 -0.469318
H21   H     H_    0.305077 0.860770 0.739298 0.194950
H22   H     H_    0.396456 0.861598 0.835212 0.189741
N8    N     N_3   0.644726 0.099883 0.218461 -0.475720
H23   H     H_    0.620192 0.080328 0.129133 0.186878
H24   H     H_    0.712022 0.080922 0.223777 0.201877
N9    N     N_3   0.645241 0.894641 0.219119 -0.477103
H25   H     H_    0.712487 0.913510 0.224845 0.219455
H26   H     H_    0.620991 0.912628 0.129583 0.180654
N10   N     N_3   0.354057 0.104951 0.780688 -0.469825
H27   H     H_    0.378116 0.085705 0.869919 0.197365
H28   H     H_    0.287059 0.084998 0.774655 0.236756

loop_
_geom_bond_atom_site_label_1
_geom_bond_atom_site_label_2
_ccdc_geom_bond_type
C14   N2    A    
N9    H25   S    
O7    Zn1   S    
C27   C29   S    
N5    H17   S    
C19   C20   A    
C6    C9    A    
N7    H21   S    
C39   C41   A    
C15   C19   A    
C17   C23   A    
C31   H1    S    
C18   C24   A    
C35   C37   A    
C8    C42   A    
C29   C32   S    
C30   C31   S    
C29   N5    S    
C29   C33   S    
C40   H6    S    
C9    I1    S    
C12   H10   S    
O2    Zn2   S    
C11   C17   A    
C31   C33   S    
C36   H4    S    
N4    H15   S    
C25   C34   S    
C40   C42   A    
O4    Zn2   S    
C23   N9    S    
N5    H18   S    
N7    H22   S    
C13   H11   S    
C27   C34   S    
C30   C34   S    
C27   C31   S    
N3    H13   S    
C28   C32   S    
O6    Zn2   S    
C27   N3    S    
N6    H19   S    
C7    H7    S    
C4    C6    A    
C1    O4    A    
O1    Zn1   S    
C10   I2    S    
C2    O3    A    
N3    H14   S    
C25   O8    A    
C22   N8    S    
C26   O7    A    
C1    O1    A    
C30   N6    S    
C26   C33   S    
N10   H28   S    
C16   C20   A    
C32   H2    S    
C25   O5    A    
N8    H23   S    
O8    Zn2   S    
C12   N2    A    
C1    C38   S    
C14   H12   S    
C21   N7    S    
C28   C33   S    
C13   C15   A    
C14   C16   A    
C3    C4    A    
C35   H3    S    
C8    H8    S    
C11   N1    A    
C39   H5    S    
C7    C9    A    
C3    C41   A    
C16   C22   A    
N1    Zn1   S    
C28   N4    S    
N6    H20   S    
C3    C5    A    
C24   N10   S    
C2    O2    A    
C28   C30   S    
C26   O6    A    
C5    C10   A    
C37   C39   A    
O3    Zn1   S    
C38   C40   A    
C2    C37   S    
N10   H27   S    
C4    C42   A    
N2    Zn2   S    
C5    C35   A    
C36   C38   A    
C17   C19   A    
C6    C36   A    
C18   C20   A    
C7    C41   A    
C11   H9    S    
O5    Zn1   S    
C15   C21   A    
C8    C10   A    
C21   C24   A    
C12   C18   A    
N9    H26   S    
C22   C23   A    
N8    H24   S    
N4    H16   S    
C32   C34   S    
C13   N1    A    
