data_mof_unit_38558.cif
_audit_creation_date              2013-03-05T15:51:56-0500
_audit_creation_method            fapswitch 2.2
_symmetry_space_group_name_H-M    P1
_symmetry_Int_Tables_number       1
_space_group_crystal_system       triclinic
_cell_length_a                    9.659085
_cell_length_b                    10.848057
_cell_length_c                    17.352657
_cell_angle_alpha                 95.331296
_cell_angle_beta                  86.663745
_cell_angle_gamma                 88.497671
_cell_volume                      1806.40257855

loop_
_atom_site_label
_atom_site_type_symbol
_atom_site_description
_atom_site_fract_x
_atom_site_fract_y
_atom_site_fract_z
_atom_type_partial_charge
O1    O     O_R   0.381190 0.680360 0.500010 -0.659103
O2    O     O_R   0.618760 0.680340 0.500000 -0.517456
C1    C     C_R   0.498304 0.736416 0.492705 0.835392
O3    O     O_R   0.367440 0.500030 0.613600 -0.589150
O4    O     O_R   0.605010 0.500010 0.613590 -0.506313
C2    C     C_R   0.482657 0.495497 0.649634 0.845211
Cu1   Cu    Cu3+1 0.359340 0.500010 0.500010 0.965263
Cu2   Cu    Cu3+1 0.640660 0.499990 0.499990 1.064206
O5    O     O_R   0.381240 0.319660 0.500000 -0.585134
O6    O     O_R   0.618810 0.319640 0.499990 -0.589662
O7    O     O_R   0.394990 0.499990 0.386410 -0.624310
O8    O     O_R   0.632560 0.499970 0.386400 -0.590137
C3    C     C_R   0.500508 0.263501 0.505792 0.863125
C4    C     C_R   0.517744 0.499592 0.350479 0.847421
C5    C     C_R   0.477821 0.487542 0.734341 -0.256071
C6    C     C_R   0.596954 0.441664 0.768335 0.312553
C7    C     C_R   0.605649 0.458878 0.848362 -0.174642
C8    C     C_R   0.494830 0.512570 0.895664 -0.004766
C9    C     C_R   0.374656 0.551973 0.863607 -0.149009
C10   C     C_R   0.363159 0.537435 0.783474 0.284804
C11   C     C_R   0.413865 0.505744 0.146848 -0.176926
C12   C     C_R   0.411688 0.526232 0.226806 -0.182401
C13   C     C_R   0.646471 0.440129 0.224182 -0.184961
C14   C     C_R   0.651238 0.420969 0.143181 0.396645
C15   C     C_R   0.531730 0.451716 0.104687 0.047749
C16   C     C_2   0.502471 0.523989 0.979677 -0.225002
C17   C     C_2   0.524698 0.426510 0.020560 -0.025538
C18   C     C_R   0.526511 0.490885 0.265996 -0.065000
H1    H     H_    0.318909 0.567245 0.258122 0.164586
H2    H     H_    0.735930 0.414119 0.254633 0.186917
H3    H     H_    0.287670 0.590494 0.901314 0.197074
H4    H     H_    0.322242 0.530106 0.117633 0.178115
H5    H     H_    0.487100 0.616481 0.009503 0.195204
H6    H     H_    0.697390 0.426101 0.874365 0.214146
C19   C     C_R   0.233669 0.893944 0.491937 -0.144288
H7    H     H_    0.217667 0.806849 0.458840 0.165696
C20   C     C_R   0.114849 0.961700 0.521599 -0.181036
H8    H     H_    0.014608 0.921386 0.515282 0.155332
C21   C     C_R   0.125455 0.078827 0.560522 0.010042
C22   C     C_R   0.256108 0.131196 0.563821 -0.103271
H9    H     H_    0.263749 0.221154 0.595578 0.197659
C23   C     C_R   0.375227 0.068502 0.526028 0.053088
C24   C     C_R   0.367225 0.942019 0.500671 0.085473
C25   C     C_R   0.492597 0.870464 0.482542 -0.123026
C26   C     C_R   0.616823 0.932116 0.466469 -0.012034
H10   H     H_    0.714787 0.106428 0.469714 0.152958
C27   C     C_R   0.619817 0.059885 0.482782 -0.191113
C28   C     C_R   0.500280 0.129145 0.510303 -0.059971
C29   C     C_R   0.866050 0.316743 0.408686 -0.210095
H11   H     H_    0.761354 0.326937 0.394475 0.227919
C30   C     C_R   0.934693 0.206530 0.379541 0.235946
C31   C     C_R   0.074710 0.193297 0.390896 -0.288389
H12   H     H_    0.129810 0.109824 0.364824 0.228158
C32   C     C_R   0.149469 0.298350 0.412657 -0.011241
C33   C     C_R   0.080222 0.405583 0.455254 0.114730
C34   C     C_R   0.931259 0.408835 0.455035 0.110815
N1    N     N_R   0.852190 0.498790 0.499250 -0.250292
C35   C     C_R   0.917310 0.584113 0.546368 0.456733
C36   C     C_R   0.066169 0.586117 0.545990 -0.049995
N2    N     N_R   0.148060 0.498710 0.499220 -0.254814
N3    N     N_R   0.707173 0.372355 0.723144 0.164412
O9    O     O_R   0.834392 0.381900 0.743321 -0.229325
O10   O     O_R   0.678215 0.283867 0.671235 -0.369229
N4    N     N_R   0.776942 0.371505 0.101549 0.146554
O11   O     O_R   0.863067 0.302354 0.134930 -0.290006
O12   O     O_R   0.813238 0.405243 0.033414 -0.329902
C37   C     C_2   0.741477 0.869729 0.424557 0.543151
H13   H     H_    0.842171 0.909586 0.430944 0.053554
O13   O     O_2   0.732005 0.778510 0.378560 -0.515604
C38   C     C_2   0.998562 0.148361 0.592973 0.455108
H14   H     H_    0.898721 0.104766 0.591463 0.101076
O14   O     O_2   0.003605 0.255678 0.620586 -0.450006
N5    N     N_R   0.833949 0.666570 0.600529 0.167674
O15   O     O_R   0.814905 0.639351 0.671733 -0.252965
O16   O     O_R   0.810237 0.780096 0.585228 -0.380158
N6    N     N_R   0.865541 0.113298 0.332457 0.124906
O17   O     O_R   0.737758 0.131392 0.315032 -0.326887
O18   O     O_R   0.932675 0.013208 0.302056 -0.324945
C39   C     C_2   0.263655 0.305232 0.354242 0.501651
H15   H     H_    0.253722 0.370811 0.311355 0.064305
O19   O     O_2   0.360588 0.229521 0.347404 -0.527192
C40   C     C_2   0.131961 0.680462 0.599377 0.522565
H16   H     H_    0.239700 0.675948 0.609319 0.139163
O20   O     O_2   0.066275 0.767372 0.634893 -0.467468
C41   C     C_2   0.529775 0.295626 0.985483 0.507181
H17   H     H_    0.512854 0.273107 0.924668 0.075977
O21   O     O_2   0.550207 0.210531 0.025215 -0.468893
N7    N     N_R   0.233219 0.570612 0.754094 0.118822
O22   O     O_R   0.160455 0.484135 0.720559 -0.272005
O23   O     O_R   0.171492 0.675679 0.779865 -0.289325

loop_
_geom_bond_atom_site_label_1
_geom_bond_atom_site_label_2
_geom_bond_distance
_ccdc_geom_bond_type
C33   C34   1.438591 A    
C12   H1    1.083434 S    
N5    O15   1.300728 A    
C19   H7    1.078680 S    
C8    C16   1.457930 S    
C36   C40   1.495313 S    
C9    H3    1.084196 S    
Cu1   Cu2   2.717267 S    
C41   H17   1.083650 S    
C31   H12   1.085577 S    
Cu1   O7    1.981253 S    
C16   C17   1.346418 D    
C19   C20   1.392516 A    
N6    O18   1.301738 A    
O4    C2    1.308806 A    
O7    C4    1.306835 A    
C5    C6    1.422426 A    
C34   N1    1.370323 A    
C17   C41   1.490342 S    
C8    C9    1.390275 A    
N3    O10   1.301461 A    
O5    C3    1.302478 A    
C2    C5    1.478521 S    
H10   C27   1.081292 S    
C9    C10   1.396021 A    
C6    C7    1.391611 A    
C29   C30   1.389916 A    
C6    N3    1.436993 S    
C26   C37   1.483430 S    
C13   C14   1.399514 A    
C38   H14   1.085773 S    
C19   C24   1.415083 A    
C22   C23   1.415891 A    
C36   N2    1.387939 A    
C14   N4    1.440752 S    
C12   C18   1.397678 A    
C33   N2    1.407723 A    
N5    O16   1.301032 A    
O3    Cu1   1.977163 S    
C31   C32   1.399176 A    
C26   C27   1.390047 A    
C5    C10   1.421048 A    
C11   H4    1.083939 S    
C1    C25   1.480983 S    
C41   O21   1.221075 D    
C37   H13   1.082075 S    
C13   H2    1.083303 S    
C14   C15   1.414526 A    
O3    C2    1.309873 A    
C21   C22   1.399501 A    
C39   O19   1.222255 D    
C35   C36   1.438219 A    
C30   C31   1.383694 A    
C37   O13   1.221121 D    
N4    O12   1.301394 A    
C24   C25   1.424422 A    
C20   H8    1.080004 S    
Cu2   N1    2.042172 S    
C3    C28   1.466904 S    
C16   H5    1.087837 S    
C27   C28   1.396192 A    
Cu2   O8    1.977163 S    
C7    C8    1.391035 A    
C23   C28   1.415242 A    
C13   C18   1.402389 A    
N6    O17   1.301980 A    
C22   H9    1.081673 S    
N7    O23   1.301226 A    
C29   H11   1.060162 S    
C40   O20   1.219187 D    
C7    H6    1.084015 S    
Cu1   N2    2.042025 S    
C25   C26   1.415151 A    
C32   C39   1.462112 S    
Cu1   O5    1.962311 S    
C11   C15   1.401166 A    
C32   C33   1.445269 A    
O1    Cu1   1.973291 S    
O2    Cu2   1.962311 S    
O8    C4    1.303337 A    
O6    C3    1.311961 A    
O4    Cu2   1.981253 S    
C15   C17   1.465886 S    
C29   C34   1.408645 A    
C4    C18   1.457629 S    
N4    O11   1.301700 A    
O2    C1    1.316866 A    
C20   C21   1.391585 A    
N1    C35   1.367704 A    
C10   N7    1.431650 S    
C21   C38   1.476691 S    
N3    O9    1.301267 A    
C39   H15   1.082710 S    
N7    O22   1.301299 A    
Cu2   O6    1.973291 S    
C40   H16   1.065327 S    
C23   C24   1.406963 A    
C30   N6    1.442910 S    
C38   O14   1.220369 D    
O1    C1    1.303530 A    
C11   C12   1.383464 A    
C35   N5    1.431668 S    
