data_mof_unit_9795.cif
_audit_creation_date              2012-12-10T17:07:51-0500
_audit_creation_method            fapswitch 2.2
_symmetry_space_group_name_H-M    P1
_symmetry_Int_Tables_number       1
_space_group_crystal_system       triclinic
_cell_length_a                    10.67741
_cell_length_b                    10.662151
_cell_length_c                    10.127932
_cell_angle_alpha                 88.967225
_cell_angle_beta                  89.551746
_cell_angle_gamma                 91.29425
_cell_volume                      1152.48540388

loop_
_atom_site_label
_atom_site_type_symbol
_atom_type_description
_atom_site_fract_x
_atom_site_fract_y
_atom_site_fract_z
_atom_type_partial_charge
C1    C     C_R   0.491927 0.262973 0.501243 0.967583
C2    C     C_2   0.596313 0.486524 0.070111 0.187601
C3    C     C_R   0.258229 0.497022 0.500365 0.845045
C4    C     C_R   0.491932 0.736674 0.498748 0.920499
C5    C     C_R   0.741961 0.506284 0.499740 0.873158
C6    C     C_3   0.072023 0.531766 0.638657 -0.426986
C7    C     C_3   0.929608 0.523925 0.642360 -0.410782
C8    C     C_3   0.078611 0.595229 0.395581 -0.437506
C9    C     C_3   0.066273 0.364928 0.464438 -0.197725
C10   C     C_3   0.121726 0.496567 0.499319 0.091930
C11   C     C_1   0.353836 0.874147 0.298120 0.194801
C12   C     C_3   0.879144 0.506612 0.500189 0.100701
C13   C     C_3   0.688083 0.632386 0.885648 -0.422746
C14   C     C_3   0.681871 0.750809 0.967741 -0.912152
C15   C     C_3   0.407464 0.405197 0.893581 -0.204186
C16   C     C_3   0.462426 0.275238 0.916974 -0.845324
C17   C     C_3   0.713084 0.422833 0.118679 -0.353733
C18   C     C_3   0.769532 0.331967 0.020432 -0.943388
C19   C     C_3   0.917692 0.752807 0.452208 -0.414621
C20   C     C_3   0.782732 0.792899 0.458469 -0.865809
C21   C     C_1   0.122215 0.311209 0.344356 0.157772
C22   C     C_1   0.857487 0.267781 0.514222 0.149838
C23   C     C_3   0.936432 0.615125 0.408166 -0.020110
C24   C     C_3   0.922652 0.376170 0.448044 -0.222584
C25   C     C_2   0.427070 0.933837 0.400329 0.033936
C26   C     C_2   0.487988 0.869738 0.494789 -0.383283
C27   C     C_2   0.439659 0.069358 0.395869 -0.188578
C28   C     C_2   0.463576 0.132047 0.506020 -0.359670
C29   C     C_2   0.590480 0.536192 0.931159 0.273831
H1    H     H_    0.104662 0.628395 0.663345 0.185305
H2    H     H_    0.898835 0.443561 0.707368 0.189186
H3    H     H_    0.892932 0.610202 0.687036 0.177601
H4    H     H_    0.133861 0.684239 0.407494 0.170366
H5    H     H_    0.088069 0.299234 0.547607 0.135508
H6    H     H_    0.586912 0.790961 0.961985 0.268389
H7    H     H_    0.704203 0.729738 0.072665 0.261831
H8    H     H_    0.751184 0.821714 0.928955 0.259796
H9    H     H_    0.782943 0.593083 0.894399 0.197155
H10   H     H_    0.673377 0.660307 0.781387 0.253914
H11   H     H_    0.390916 0.201418 0.894983 0.230724
H12   H     H_    0.897752 0.371809 0.341563 0.136916
H13   H     H_    0.545328 0.261489 0.852604 0.279972
H14   H     H_    0.488712 0.262408 0.021948 0.249878
H15   H     H_    0.349306 0.433429 0.978144 0.140831
H16   H     H_    0.338666 0.394502 0.813887 0.222000
H17   H     H_    0.709632 0.246232 0.012881 0.266877
H18   H     H_    0.783008 0.375395 0.920993 0.263394
H19   H     H_    0.862497 0.302693 0.056695 0.259860
H20   H     H_    0.784666 0.496008 0.141806 0.194346
H21   H     H_    0.690357 0.365714 0.208399 0.254605
H22   H     H_    0.779578 0.896592 0.465898 0.260008
H23   H     H_    0.099901 0.563313 0.293934 0.183892
H24   H     H_    0.732603 0.764525 0.367828 0.274581
H25   H     H_    0.737474 0.751699 0.548328 0.247651
H26   H     H_    0.962697 0.770896 0.548645 0.222287
H27   H     H_    0.965684 0.816557 0.378680 0.222009
H28   H     H_    0.895711 0.606908 0.307845 0.143536
H29   H     H_    0.543963 0.915302 0.569645 0.153753
H30   H     H_    0.433416 0.117178 0.300450 0.183481
H31   H     H_    0.457339 0.087983 0.603399 0.155729
H32   H     H_    0.107816 0.466830 0.716309 0.180692
H33   H     H_    0.433801 0.560376 0.112318 0.159962
N1    N     N_2   0.501360 0.501330 0.852150 -0.112179
N2    N     N_2   0.501390 0.501360 0.147810 -0.235820
N3    N     N_1   0.295399 0.826606 0.216435 -0.235921
N4    N     N_1   0.165963 0.269153 0.250557 -0.206778
N5    N     N_1   0.806560 0.183170 0.565853 -0.220369
O1    O     O_R   0.499980 0.319060 0.613040 -0.613693
O2    O     O_R   0.500020 0.319100 0.386900 -0.615208
O3    O     O_R   0.314770 0.499960 0.613070 -0.653025
O4    O     O_R   0.314820 0.500000 0.386930 -0.608652
O5    O     O_R   0.499980 0.680900 0.613100 -0.625624
O6    O     O_R   0.500020 0.680940 0.386960 -0.600998
O7    O     O_R   0.685180 0.500000 0.613070 -0.635944
O8    O     O_R   0.685230 0.500040 0.386930 -0.654559
Zn1   Zn    Zn3+2 0.499970 0.499970 0.650990 0.916233
Zn2   Zn    Zn3+2 0.500030 0.500030 0.349010 0.928992

loop_
_geom_bond_atom_site_label_1
_geom_bond_atom_site_label_2
_ccdc_geom_bond_type
C19   H27   S    
C6    C10   S    
C17   H21   S    
C19   C23   S    
C29   N1    D    
C9    C24   S    
C5    O8    A    
C6    C7    S    
C21   N4    T    
O1    Zn1   S    
C26   H29   S    
C9    C10   S    
C8    H23   S    
C4    C26   S    
C19   C20   S    
C16   H14   S    
O4    Zn2   S    
O5    Zn1   S    
C18   H18   S    
C8    C23   S    
C17   C18   S    
C4    O6    A    
C3    O4    A    
C1    C28   S    
C27   H30   S    
C13   C14   S    
C14   H8    S    
O3    Zn1   S    
C24   H12   S    
O8    Zn2   S    
C12   C23   S    
C9    C21   S    
C13   H9    S    
C7    C12   S    
O7    Zn1   S    
C16   H11   S    
C2    C29   S    
C23   H28   S    
C18   H17   S    
C6    H32   S    
C13   C29   S    
C6    H1    S    
C2    N2    D    
C15   H15   S    
C15   N1    S    
C20   H22   S    
C3    O3    A    
C8    H4    S    
C28   H31   S    
C14   H7    S    
C9    H5    S    
C22   C24   S    
C22   N5    T    
C13   H10   S    
C7    H2    S    
N1    Zn1   S    
C15   H16   S    
C19   H26   S    
C15   C16   S    
C16   H13   S    
C4    O5    A    
C1    O1    A    
C14   H6    S    
C5    C12   S    
C8    C10   S    
C12   C24   S    
N2    Zn2   S    
C17   H20   S    
C27   C28   D    
C3    C10   S    
C11   C25   S    
C5    O7    A    
H33   N2    S    
C7    H3    S    
C20   H25   S    
C25   C26   D    
O2    Zn2   S    
O6    Zn2   S    
C1    O2    A    
C11   N3    T    
C20   H24   S    
C2    C17   S    
C25   C27   S    
C18   H19   S    
