data_mof_unit_36116.cif
_audit_creation_date              2012-12-11T20:41:11-0500
_audit_creation_method            fapswitch 2.2
_symmetry_space_group_name_H-M    P1
_symmetry_Int_Tables_number       1
_space_group_crystal_system       triclinic
_cell_length_a                    8.235367
_cell_length_b                    18.861794
_cell_length_c                    27.002083
_cell_angle_alpha                 96.996669
_cell_angle_beta                  92.506073
_cell_angle_gamma                 86.316693
_cell_volume                      4151.77276716

loop_
_atom_site_label
_atom_site_type_symbol
_atom_type_description
_atom_site_fract_x
_atom_site_fract_y
_atom_site_fract_z
_atom_type_partial_charge
Ba1   Ba    Ba6+2 0.852670 0.466460 0.522850 1.653435
Ba2   Ba    Ba6+2 0.337150 0.533490 0.477140 1.640898
C1    C     C_3   0.575717 0.221936 0.663317 -0.360289
C2    C     C_R   0.917107 0.569275 0.178486 0.573461
C3    C     C_2   0.761289 0.545894 0.272631 -0.086124
C4    C     C_3   0.119057 0.267471 0.650689 0.318023
C5    C     C_3   0.746059 0.570304 0.327566 -0.045361
C6    C     C_1   0.981214 0.488521 0.342431 0.024292
C7    C     C_2   0.020818 0.484215 0.294566 -0.123068
C8    C     C_2   0.902715 0.512371 0.256074 0.196001
C9    C     C_R   0.019990 0.503924 0.101364 -0.079748
C10   C     C_R   0.046082 0.442640 0.126441 -0.032861
C11   C     C_R   0.111002 0.379438 0.099945 -0.063460
C12   C     C_3   0.578185 0.293016 0.642186 0.371911
C13   C     C_R   0.954764 0.567440 0.127805 -0.024844
C14   C     C_2   0.850193 0.525517 0.360314 -0.290729
C15   C     C_2   0.351561 0.482977 0.641271 -0.278854
C16   C     C_3   0.042897 0.247743 0.697028 -0.344434
C17   C     C_R   0.162809 0.435333 0.971941 0.019641
C18   C     C_R   0.070091 0.562675 0.974095 0.020326
C19   C     C_R   0.135760 0.498142 0.947606 0.049879
C20   C     C_R   0.227719 0.372579 0.943535 -0.098814
C21   C     C_R   0.265115 0.371636 0.893551 -0.061968
C22   C     C_R   0.240012 0.433120 0.869232 -0.034295
C23   C     C_3   0.520174 0.645891 0.630033 0.301959
C24   C     C_R   0.174967 0.496509 0.896180 -0.078273
C25   C     C_R   0.149311 0.558376 0.871695 -0.033256
C26   C     C_R   0.190005 0.556402 0.821153 0.585726
C27   C     C_R   0.278572 0.432484 0.818477 0.591770
C28   C     C_3   0.183663 0.318074 0.416882 0.310231
C29   C     C_2   0.453580 0.478767 0.729213 -0.079715
C30   C     C_3   0.499384 0.487272 0.676406 -0.067499
C31   C     C_1   0.212158 0.513450 0.657222 0.046516
C32   C     C_2   0.171511 0.513563 0.704372 -0.083540
C33   C     C_2   0.297422 0.493621 0.743170 0.216077
C34   C     C_3   0.509724 0.672456 0.685374 -0.372256
C35   C     C_R   0.124402 0.437243 0.023435 0.019841
C36   C     C_R   0.058743 0.501833 0.049848 0.049131
C37   C     C_R   0.031211 0.564481 0.025368 0.020522
C38   C     C_R   0.149335 0.376684 0.049850 -0.099754
C39   C     C_R   0.928296 0.628535 0.103200 -0.061363
C40   C     C_3   0.204425 0.237369 0.403766 -0.375171
C41   C     C_R   0.045715 0.623576 0.948068 -0.100345
C42   C     C_R   0.084435 0.621336 0.898264 -0.061584
C43   C     C_R   0.965275 0.627235 0.053386 -0.102026
C44   C     C_2   0.410676 0.300724 0.521503 -0.245078
C45   C     C_3   0.075175 0.684982 0.342119 0.343414
C46   C     C_3   0.327200 0.253177 0.552189 -0.069071
C47   C     C_2   0.363244 0.174305 0.536571 -0.120831
C48   C     C_2   0.489881 0.151418 0.507106 -0.065427
C49   C     C_2   0.580175 0.206013 0.485271 -0.129782
C50   C     C_1   0.530393 0.274736 0.492196 0.064325
C51   C     C_R   0.645884 0.932526 0.488589 0.461281
C52   C     C_3   0.011746 0.682714 0.583042 0.304293
C53   C     C_R   0.542732 0.073815 0.498782 0.461371
C54   C     C_R   0.612347 0.807277 0.507114 -0.123633
C55   C     C_R   0.663581 0.734889 0.504483 0.040675
C56   C     C_3   0.091990 0.704601 0.289679 -0.314196
C57   C     C_R   0.898779 0.756304 0.459450 0.016294
C58   C     C_R   0.848760 0.829334 0.461583 -0.141365
C59   C     C_R   0.702326 0.855419 0.484821 -0.068221
C60   C     C_R   0.801494 0.709332 0.478681 -0.280114
C61   C     C_3   0.994604 0.763450 0.596664 -0.376996
C62   C     C_3   0.665708 0.378939 0.372112 0.324539
C63   C     C_3   0.642120 0.365044 0.315182 -0.220353
C64   C     C_3   0.779178 0.316724 0.289680 -0.200675
C65   C     C_3   0.784353 0.239972 0.302589 -0.340643
C66   C     C_3   0.536050 0.724874 0.365198 0.362304
C67   C     C_3   0.500328 0.797110 0.346186 -0.359070
C68   C     C_R   0.006078 0.445671 0.177408 0.592077
H1    H     H_    0.637677 0.282727 0.605607 0.063966
H2    H     H_    0.794114 0.388844 0.382435 -0.005865
H3    H     H_    0.587900 0.427384 0.384981 0.063152
H4    H     H_    0.701946 0.199638 0.669508 0.129458
H5    H     H_    0.638576 0.417158 0.299899 0.058217
H6    H     H_    0.522344 0.341986 0.305310 0.131975
H7    H     H_    0.451109 0.315412 0.637637 -0.087193
H8    H     H_    0.510791 0.182984 0.636701 0.066445
H9    H     H_    0.396035 0.633284 0.615352 0.028864
H10   H     H_    0.602857 0.596826 0.625442 0.035112
H11   H     H_    0.433747 0.723453 0.690505 0.140266
H12   H     H_    0.294765 0.223994 0.374192 0.118508
H13   H     H_    0.453184 0.632641 0.705116 0.077183
H14   H     H_    0.633538 0.681441 0.702001 0.125412
H15   H     H_    0.512970 0.229604 0.699332 0.132993
H16   H     H_    0.131141 0.254807 0.729292 0.103610
H17   H     H_    0.146289 0.633519 0.345348 0.089606
H18   H     H_    0.944561 0.678524 0.347693 -0.056996
H19   H     H_    0.211005 0.727413 0.285946 0.147849
H20   H     H_    0.085398 0.655825 0.262556 0.121569
H21   H     H_    0.993163 0.744507 0.280876 0.117344
H22   H     H_    0.670371 0.713938 0.365675 -0.066712
H23   H     H_    0.247430 0.211821 0.437149 0.080154
H24   H     H_    0.492768 0.728421 0.403873 0.076804
H25   H     H_    0.567054 0.838576 0.370169 0.075712
H26   H     H_    0.368136 0.812478 0.347198 0.152074
H27   H     H_    0.144427 0.325261 0.657136 0.028393
H28   H     H_    0.540486 0.794715 0.307255 0.119546
H29   H     H_    0.139807 0.461467 0.283289 0.129299
H30   H     H_    0.132866 0.331269 0.117977 0.119097
H31   H     H_    0.548550 0.467093 0.756724 0.094917
H32   H     H_    0.314614 0.321967 0.873898 0.118841
H33   H     H_    0.251528 0.322618 0.958695 0.067988
H34   H     H_    0.086158 0.215700 0.390281 0.124555
H35   H     H_    0.198808 0.325694 0.032998 0.068006
H36   H     H_    0.669242 0.565145 0.246676 0.117617
H37   H     H_    0.878160 0.678340 0.122514 0.121968
H38   H     H_    0.996848 0.674630 0.964914 0.068810
H39   H     H_    0.234392 0.234163 0.645641 -0.024506
H40   H     H_    0.063156 0.669811 0.880538 0.122801
H41   H     H_    0.048426 0.529884 0.715476 0.117253
H42   H     H_    0.939959 0.677038 0.038183 0.068368
H43   H     H_    0.834207 0.536470 0.400251 0.083184
H44   H     H_    0.359288 0.454959 0.603790 0.068915
H45   H     H_    0.891877 0.662732 0.570819 0.006746
H46   H     H_    0.296321 0.136739 0.553909 0.098854
H47   H     H_    0.684983 0.188891 0.462800 0.104269
H48   H     H_    0.504843 0.825946 0.527699 0.109595
H49   H     H_    0.924886 0.865351 0.446255 0.104973
H50   H     H_    0.385899 0.358022 0.529772 0.067576
H51   H     H_    0.932545 0.282900 0.705881 0.165390
H52   H     H_    0.840587 0.653279 0.477368 0.059633
H53   H     H_    0.010249 0.191041 0.691079 0.110630
H54   H     H_    0.303152 0.339093 0.428386 0.002488
H55   H     H_    0.099718 0.330071 0.448153 0.089672
H56   H     H_    0.097021 0.670500 0.552108 0.075150
H57   H     H_    0.873291 0.206252 0.278882 0.115743
H58   H     H_    0.824162 0.237889 0.342187 0.155955
H59   H     H_    0.662760 0.217632 0.295701 0.131697
H60   H     H_    0.898709 0.339631 0.299634 0.143954
H61   H     H_    0.759379 0.315440 0.248604 0.142789
H62   H     H_    0.903892 0.777243 0.626086 0.136947
H63   H     H_    0.953894 0.790081 0.563549 0.065505
H64   H     H_    0.113843 0.783713 0.610672 0.127503
N1    N     N_R   0.942539 0.508763 0.203242 -0.420613
N2    N     N_R   0.254192 0.493927 0.795039 -0.425676
N3    N     N_R   0.506121 0.955660 0.511967 -0.242855
N4    N     N_R   0.455890 0.024573 0.517011 -0.243701
N5    N     N_R   0.681955 0.050781 0.474887 -0.240544
N6    N     N_R   0.732449 0.981606 0.469863 -0.242005
O1    O     O_2   0.914730 0.537460 0.618690 -0.462092
O2    O     O_2   0.236269 0.753307 0.470326 -0.481459
O3    O     O_3   0.135288 0.739264 0.376927 -0.599714
O4    O     O_3   0.146720 0.537410 0.558510 -0.490500
O5    O     O_3   0.553920 0.415280 0.473710 -0.490627
O6    O     O_2   0.383540 0.672140 0.526840 -0.460867
O7    O     O_3   0.581390 0.699612 0.605803 -0.639492
O8    O     O_2   0.414762 0.533880 0.323221 -0.501371
O9    O     O_3   0.454966 0.671830 0.334071 -0.592295
O10   O     O_2   0.025752 0.391769 0.198408 -0.612391
O11   O     O_2   0.332742 0.377083 0.795081 -0.600568
O12   O     O_3   0.620513 0.319550 0.393621 -0.645194
O13   O     O_2   0.862413 0.625473 0.200665 -0.621057
O14   O     O_2   0.170184 0.610722 0.800568 -0.598444
O15   O     O_3   0.666360 0.409390 0.586570 -0.481748
O16   O     O_2   0.834746 0.447764 0.670785 -0.475513
O17   O     O_3   0.070110 0.651646 0.625260 -0.629295
O18   O     O_3   0.666484 0.339996 0.675429 -0.587521
O19   O     O_2   0.806150 0.327840 0.473120 -0.456117
O20   O     O_3   0.073640 0.373350 0.561550 -0.472553
O21   O     O_2   0.008359 0.246559 0.511321 -0.477185
O22   O     O_3   0.013580 0.253149 0.608773 -0.572205
O23   O     O_2   0.274960 0.462520 0.381280 -0.457486
O24   O     O_3   0.042980 0.462530 0.441480 -0.493673
O25   O     O_3   0.523340 0.590550 0.413420 -0.477046
O26   O     O_3   0.120918 0.348325 0.374807 -0.636915
O27   O     O_3   0.635780 0.584660 0.526290 -0.475531
O28   O     O_3   0.116060 0.626590 0.438450 -0.492688
P1    P     P_3+3 0.084800 0.558370 0.611580 0.998800
P2    P     P_3+3 0.628800 0.338360 0.458800 0.979542
P3    P     P_3+3 0.105671 0.280230 0.557535 0.966568
P4    P     P_3+3 0.104900 0.441570 0.388420 0.982377
P5    P     P_3+3 0.097609 0.719592 0.436791 0.951214
P6    P     P_3+3 0.665775 0.422487 0.652069 0.989582
P7    P     P_3+3 0.569153 0.674461 0.541283 0.951756
P8    P     P_3+3 0.533632 0.588448 0.348863 0.942347

loop_
_geom_bond_atom_site_label_1
_geom_bond_atom_site_label_2
_ccdc_geom_bond_type
C19   C24   A    
O26   P4    S    
C54   C59   A    
O19   P2    D    
C45   O3    S    
C1    H15   S    
C40   H23   S    
Ba2   O4    S    
C12   H1    S    
Ba1   O5    S    
C68   O10   D    
C67   H26   S    
C31   P1    S    
C14   H43   S    
C43   H42   S    
C55   C60   A    
O25   P8    S    
C52   H56   S    
O16   P6    D    
C24   C25   A    
C16   H16   S    
C63   H6    S    
C62   O12   S    
C51   N3    A    
C29   H31   S    
C17   C19   A    
C22   C24   A    
C32   C33   S    
C35   C38   A    
C36   C37   A    
O7    P7    S    
C21   H32   S    
C45   C56   S    
C52   C61   S    
Ba1   O27   S    
C34   H13   S    
C23   H10   S    
C44   C50   D    
Ba1   P2    S    
C51   N6    A    
C53   N5    A    
C54   C55   A    
C58   H49   S    
Ba1   Ba2   S    
C12   H7    S    
Ba1   O15   S    
C1    H4    S    
C22   C27   A    
C11   C38   A    
C66   O9    S    
C17   C35   A    
O17   P1    S    
C55   P7    S    
C9    C13   A    
C25   C42   A    
O18   P6    S    
O22   P3    S    
C4    O22   S    
Ba1   O24   S    
C66   C67   S    
C40   H12   S    
C21   C22   A    
C7    C8    S    
C16   H53   S    
C37   C43   A    
C67   H28   S    
C64   C65   S    
C28   H55   S    
C57   C58   A    
C7    H29   S    
C23   H9    S    
C52   H45   S    
C26   O14   D    
C32   H41   S    
C65   H59   S    
C15   C31   D    
C66   H22   S    
C15   H44   S    
C31   C32   D    
O2    P5    D    
C3    H36   S    
O28   P5    S    
C4    C16   S    
C44   C46   S    
C49   C50   D    
C61   H64   S    
Ba1   O19   S    
C17   C20   A    
C8    N1    S    
C28   O26   S    
Ba2   O24   S    
C3    C5    S    
C18   C37   A    
C6    C7    D    
C16   H51   S    
C57   P5    S    
C30   P6    S    
O4    P1    S    
C66   H24   S    
C20   H33   S    
C58   C59   A    
Ba2   O5    S    
C45   H17   S    
Ba2   O23   S    
C9    C36   A    
C41   C42   A    
C4    H27   S    
C35   C36   A    
C65   H57   S    
C27   O11   D    
C46   P3    S    
O12   P2    S    
C29   C30   S    
C34   H11   S    
C62   H3    S    
C5    P8    S    
C27   N2    Am   
O1    P1    D    
C48   C49   S    
C44   H50   S    
C23   O7    S    
O8    P8    D    
C61   H62   S    
C10   C11   A    
O23   P4    D    
C56   H20   S    
Ba2   O25   S    
C13   C39   A    
C1    C12   S    
C2    N1    Am   
O15   P6    S    
C46   C47   S    
C28   H54   S    
O5    P2    S    
C68   N1    Am   
C4    H39   S    
C29   C33   D    
O24   P4    S    
O3    P5    S    
C50   P2    S    
Ba2   O28   S    
C60   H52   S    
C18   C41   A    
O27   P7    S    
C64   H61   S    
C56   H21   S    
C10   C68   A    
C61   H63   S    
C5    C14   S    
C57   C60   A    
C39   H37   S    
C26   N2    Am   
C54   H48   S    
C51   C59   S    
Ba1   O20   S    
C34   H14   S    
C67   H25   S    
C40   H34   S    
C33   N2    S    
N5    N6    A    
Ba2   O6    S    
N3    N4    A    
C48   C53   S    
C63   H5    S    
O9    P8    S    
C45   H18   S    
C2    C13   A    
C3    C8    D    
C63   C64   S    
Ba1   O4    S    
C65   H58   S    
C62   C63   S    
C52   O17   S    
C11   H30   S    
Ba1   P1    S    
C49   H47   S    
O20   P3    S    
C2    O13   D    
C41   H38   S    
C62   H2    S    
C56   H19   S    
C12   O18   S    
Ba1   O1    S    
C23   C34   S    
C53   N4    A    
O21   P3    D    
C47   H46   S    
C18   C19   A    
C6    C14   D    
C47   C48   D    
C25   C26   A    
C15   C30   S    
C39   C43   A    
C20   C21   A    
C28   C40   S    
C1    H8    S    
Ba2   O27   S    
O6    P7    D    
C6    P4    S    
C9    C10   A    
Ba2   P4    S    
C38   H35   S    
C64   H60   S    
C42   H40   S    
