data_mof_unit_64352.cif
_audit_creation_date              2012-12-11T14:52:24-0500
_audit_creation_method            fapswitch 2.2
_symmetry_space_group_name_H-M    P1
_symmetry_Int_Tables_number       1
_space_group_crystal_system       triclinic
_cell_length_a                    8.201631
_cell_length_b                    15.079098
_cell_length_c                    27.003615
_cell_angle_alpha                 96.992829
_cell_angle_beta                  92.620899
_cell_angle_gamma                 80.56407
_cell_volume                      3268.79822926

loop_
_atom_site_label
_atom_site_type_symbol
_atom_type_description
_atom_site_fract_x
_atom_site_fract_y
_atom_site_fract_z
_atom_type_partial_charge
Ba1   Ba    Ba6+2 0.860900 0.457020 0.523210 1.700504
Ba2   Ba    Ba6+2 0.328940 0.542910 0.476780 1.694492
C1    C     C_3   0.815528 0.153210 0.696520 -0.292546
C2    C     C_R   0.080275 0.546868 0.190858 0.596888
C3    C     C_2   0.764850 0.575781 0.274008 -0.072324
C4    C     C_3   0.215166 0.258106 0.660626 0.389171
C5    C     C_3   0.737736 0.598580 0.329353 -0.106817
C6    C     C_1   0.985604 0.485091 0.342375 -0.006493
C7    C     C_2   0.018187 0.472873 0.293565 -0.121154
C8    C     C_2   0.903224 0.521467 0.257033 0.201318
C9    C     C_R   0.013039 0.508784 0.102308 -0.070328
C10   C     C_R   0.871920 0.475242 0.116166 -0.054840
C11   C     C_R   0.769055 0.439714 0.077622 -0.047954
C12   C     C_3   0.712826 0.231857 0.673565 0.307293
C13   C     C_R   0.117570 0.544050 0.140079 -0.023927
C14   C     C_2   0.853768 0.539537 0.361209 -0.259714
C15   C     C_2   0.344518 0.468340 0.639032 -0.266127
C16   C     C_3   0.213182 0.233368 0.713526 -0.315814
C17   C     C_R   0.976988 0.475703 0.961200 0.022692
C18   C     C_R   0.235584 0.534398 0.986206 0.024790
C19   C     C_R   0.124855 0.504156 0.948226 0.055400
C20   C     C_R   0.867961 0.449748 0.921815 -0.103864
C21   C     C_R   0.905308 0.448701 0.871921 -0.033093
C22   C     C_R   0.052925 0.473696 0.858592 -0.032510
C23   C     C_3   0.485907 0.673504 0.627578 0.313583
C24   C     C_R   0.162662 0.502090 0.896684 -0.075680
C25   C     C_R   0.310368 0.528236 0.883222 -0.037322
C26   C     C_R   0.346804 0.525117 0.832186 0.598945
C27   C     C_R   0.093325 0.470133 0.807868 0.595577
C28   C     C_3   0.191821 0.256329 0.412037 0.281233
C29   C     C_2   0.425925 0.433298 0.726652 -0.070138
C30   C     C_3   0.454278 0.408007 0.671272 -0.119323
C31   C     C_1   0.206985 0.517576 0.656649 0.011765
C32   C     C_2   0.167170 0.528352 0.704442 -0.079483
C33   C     C_2   0.283594 0.485860 0.742578 0.209255
C34   C     C_3   0.467395 0.697986 0.683666 0.028242
C35   C     C_R   0.942679 0.474389 0.012680 0.025196
C36   C     C_R   0.050359 0.507305 0.050694 0.059852
C37   C     C_R   0.195283 0.538943 0.037594 0.021775
C38   C     C_R   0.804538 0.439992 0.027493 -0.120325
C39   C     C_R   0.256936 0.577149 0.126502 -0.013313
C40   C     C_3   0.132678 0.165505 0.395398 -0.011265
C41   C     C_R   0.384038 0.558741 0.971204 -0.098802
C42   C     C_R   0.419652 0.556197 0.921047 -0.062199
C43   C     C_R   0.294853 0.574866 0.076673 -0.094053
C44   C     C_R   0.759010 0.768556 0.482733 -0.290510
C45   C     C_3   0.975560 0.751756 0.345458 0.337917
C46   C     C_R   0.852683 0.829246 0.468215 -0.002340
C47   C     C_R   0.799612 0.922952 0.478903 -0.123173
C48   C     C_R   0.644200 0.956354 0.501262 0.036699
C49   C     C_R   0.547877 0.891666 0.511754 -0.062751
C50   C     C_R   0.612937 0.799814 0.507384 0.050287
C51   C     C_R   0.448010 0.091808 0.545659 0.097314
C52   C     C_3   0.989212 0.736433 0.583090 0.299545
C53   C     C_R   0.364243 0.180926 0.543611 -0.014744
C54   C     C_R   0.579219 0.211508 0.492624 0.071942
C55   C     C_R   0.643411 0.119123 0.486017 -0.117282
C56   C     C_3   0.975913 0.778737 0.293041 -0.277569
C57   C     C_R   0.579682 0.056604 0.512015 0.026441
C58   C     C_R   0.436614 0.241086 0.519708 -0.309961
C59   C     C_3   0.029412 0.832171 0.592955 0.010314
C60   C     C_3   0.696868 0.345043 0.373866 0.312743
C61   C     C_3   0.756899 0.316949 0.320674 0.002550
C62   C     C_1   0.172053 0.100718 0.432088 0.232660
C63   C     C_1   0.145755 0.401506 0.273443 0.400751
C64   C     C_1   0.625183 0.400901 0.087393 0.368682
C65   C     C_3   0.444900 0.780781 0.344785 0.311630
C66   C     C_3   0.535917 0.814387 0.304519 -0.023514
C67   C     C_R   0.839645 0.478332 0.167997 0.596755
H1    H     H_    0.678231 0.208536 0.634342 0.028285
H2    H     H_    0.889109 0.286007 0.321510 0.084576
H3    H     H_    0.742975 0.377259 0.300163 0.036322
H4    H     H_    0.600301 0.251908 0.696211 -0.032667
H5    H     H_    0.738620 0.099708 0.698368 0.135065
H6    H     H_    0.366518 0.656311 0.611680 -0.049310
H7    H     H_    0.583620 0.613384 0.620750 0.062508
H8    H     H_    0.375908 0.760679 0.691370 0.112927
H9    H     H_    0.423209 0.642345 0.699833 0.018221
H10   H     H_    0.856548 0.175817 0.735075 0.107747
H11   H     H_    0.300851 0.268753 0.737877 0.055693
H12   H     H_    0.996645 0.177495 0.388978 0.091952
H13   H     H_    0.039675 0.680676 0.344544 0.077739
H14   H     H_    0.845523 0.757530 0.356887 -0.095510
H15   H     H_    0.104647 0.773720 0.281203 0.194557
H16   H     H_    0.913797 0.732434 0.266292 0.075515
H17   H     H_    0.911184 0.849244 0.292063 0.136540
H18   H     H_    0.525191 0.775846 0.379100 -0.070108
H19   H     H_    0.337759 0.833534 0.355430 0.121314
H20   H     H_    0.586498 0.876045 0.320390 0.075156
H21   H     H_    0.162333 0.330815 0.660884 0.048681
H22   H     H_    0.639000 0.761955 0.290975 0.036465
H23   H     H_    0.854968 0.739249 0.576405 0.006775
H24   H     H_    0.510047 0.399096 0.753066 0.091019
H25   H     H_    0.817026 0.427809 0.843571 0.138663
H26   H     H_    0.750418 0.430669 0.927967 0.068659
H27   H     H_    0.721918 0.410504 0.000586 0.066664
H28   H     H_    0.681290 0.611742 0.248133 0.105395
H29   H     H_    0.338612 0.605302 0.154659 0.143500
H30   H     H_    0.477873 0.579022 0.997305 0.071936
H31   H     H_    0.345947 0.245576 0.648957 -0.086958
H32   H     H_    0.534933 0.575984 0.911990 0.126195
H33   H     H_    0.052663 0.570767 0.716543 0.141818
H34   H     H_    0.055234 0.703119 0.549207 0.031137
H35   H     H_    0.403223 0.603108 0.070230 0.072595
H36   H     H_    0.837835 0.553332 0.401222 0.082611
H37   H     H_    0.368584 0.459174 0.599400 0.077351
H38   H     H_    0.881715 0.967763 0.470367 0.098916
H39   H     H_    0.741924 0.097522 0.459955 0.075611
H40   H     H_    0.422754 0.911192 0.523950 0.125430
H41   H     H_    0.378234 0.310955 0.520515 0.070804
H42   H     H_    0.087831 0.254397 0.728813 0.157925
H43   H     H_    0.805124 0.696662 0.477810 0.057446
H44   H     H_    0.250486 0.159247 0.713857 0.147830
H45   H     H_    0.007040 0.866652 0.558815 0.036522
H46   H     H_    0.326861 0.244427 0.419961 -0.009294
H47   H     H_    0.127653 0.289199 0.446335 0.031110
H48   H     H_    0.161525 0.830158 0.604579 0.113858
H49   H     H_    0.789170 0.381645 0.395190 -0.063978
H50   H     H_    0.577835 0.391103 0.372688 0.087130
H51   H     H_    0.924836 0.124721 0.673658 0.181634
I1    I     I_    0.242200 0.102146 0.326876 -0.294625
I2    I     I_    0.878803 0.909154 0.650241 -0.358667
I3    I     I_    0.623459 0.220337 0.279573 -0.214152
I4    I     I_    0.698520 0.717036 0.719776 -0.261610
I5    I     I_    0.380654 0.846234 0.241331 -0.340709
I6    I     I_    0.402328 0.027013 0.609051 -0.440920
N1    N     N_R   0.942812 0.514208 0.204332 -0.434884
N2    N     N_R   0.239637 0.495206 0.795016 -0.429781
N3    N     N_1   0.201949 0.047678 0.460099 -0.269794
N4    N     N_1   0.247066 0.344385 0.256940 -0.189232
N5    N     N_1   0.510203 0.369683 0.095008 -0.240723
O1    O     O_2   0.905540 0.548000 0.618290 -0.435694
O2    O     O_2   0.195366 0.819694 0.466447 -0.470124
O3    O     O_3   0.059244 0.809477 0.378104 -0.585219
O4    O     O_3   0.137550 0.547930 0.558110 -0.503153
O5    O     O_3   0.574690 0.391440 0.474610 -0.490873
O6    O     O_2   0.341330 0.720570 0.525000 -0.474656
O7    O     O_3   0.526914 0.747375 0.606496 -0.600180
O8    O     O_2   0.444632 0.523017 0.324359 -0.447037
O9    O     O_3   0.386127 0.699552 0.326508 -0.557681
O10   O     O_2   0.720077 0.449013 0.180962 -0.562459
O11   O     O_2   0.999309 0.443065 0.775163 -0.572714
O12   O     O_3   0.674901 0.268182 0.395539 -0.614961
O13   O     O_2   0.169532 0.579458 0.223211 -0.567473
O14   O     O_2   0.473781 0.549445 0.820856 -0.569574
O15   O     O_3   0.688580 0.383890 0.587540 -0.476643
O16   O     O_2   0.748091 0.479609 0.674914 -0.424929
O17   O     O_3   0.035045 0.692617 0.625606 -0.607102
O18   O     O_3   0.803440 0.303794 0.675137 -0.555579
O19   O     O_2   0.848360 0.279400 0.474970 -0.480085
O20   O     O_3   0.104690 0.337720 0.562900 -0.493062
O21   O     O_2   0.020303 0.177472 0.535554 -0.453090
O22   O     O_3   0.119527 0.205309 0.628721 -0.553786
O23   O     O_2   0.284150 0.451970 0.381680 -0.447615
O24   O     O_3   0.052160 0.451990 0.441880 -0.499730
O25   O     O_3   0.501140 0.616030 0.412450 -0.472317
O26   O     O_3   0.161162 0.307845 0.371763 -0.615024
O27   O     O_3   0.615020 0.608480 0.525380 -0.486056
O28   O     O_3   0.085020 0.662210 0.437090 -0.494503
P1    P     P_3+3 0.070480 0.574800 0.610950 1.009565
P2    P     P_3+3 0.668430 0.292880 0.460530 1.001352
P3    P     P_3+3 0.153239 0.222219 0.567341 1.014703
P4    P     P_3+3 0.119230 0.425130 0.389040 0.994618
P5    P     P_3+3 0.049337 0.780877 0.438531 0.975751
P6    P     P_3+3 0.673669 0.395221 0.652769 1.016486
P7    P     P_3+3 0.526457 0.721520 0.541506 0.980347
P8    P     P_3+3 0.518138 0.607243 0.347521 1.010677

loop_
_geom_bond_atom_site_label_1
_geom_bond_atom_site_label_2
_ccdc_geom_bond_type
C28   O26   S    
C19   C24   A    
C56   H16   S    
Ba2   O24   S    
C44   H43   S    
C20   H26   S    
C60   O12   S    
C10   C67   A    
Ba1   O1    S    
C1    H10   S    
C63   N4    T    
C51   C57   A    
C47   H38   S    
C28   H47   S    
C65   H19   S    
O1    P1    D    
C48   C57   S    
Ba1   O27   S    
C17   C19   A    
C22   C24   A    
C32   C33   S    
C35   C38   A    
C34   H8    S    
C36   C37   A    
C55   C57   A    
C67   O10   D    
C44   C50   A    
C66   H22   S    
C54   C55   A    
Ba1   Ba2   S    
O17   P1    S    
C45   H13   S    
Ba1   O24   S    
C1    H5    S    
C22   C27   A    
C11   C38   A    
O16   P6    D    
C50   P7    S    
C9    C13   A    
C25   C42   A    
C6    C7    D    
C21   C22   A    
C45   H14   S    
Ba1   O5    S    
C17   C35   A    
C7    C8    S    
O26   P4    S    
C31   P1    S    
C37   C43   A    
O9    P8    S    
Ba1   P2    S    
Ba2   O23   S    
C53   C58   A    
C12   H1    S    
Ba1   O15   S    
C40   H12   S    
C15   C31   D    
C38   H27   S    
C56   H17   S    
C16   H44   S    
O6    P7    D    
C66   H20   S    
C11   C64   S    
C51   C53   A    
C4    C16   S    
C44   C46   A    
C59   H48   S    
C65   C66   S    
C12   H4    S    
O23   P4    D    
C17   C20   A    
O18   P6    S    
C16   H42   S    
C13   C39   A    
C1    H51   S    
O5    P2    S    
C3    C5    S    
C18   C37   A    
C28   H46   S    
O25   P8    S    
O24   P4    S    
C29   H24   S    
C54   P2    S    
Ba2   O5    S    
C49   C50   A    
C59   I2    S    
C23   H6    S    
C4    H31   S    
C9    C36   A    
C41   C42   A    
C52   H23   S    
C35   C36   A    
C43   H35   S    
C56   H15   S    
C52   H34   S    
C29   C30   S    
O28   P5    S    
Ba2   O27   S    
O20   P3    S    
C60   C61   S    
C31   C32   D    
C26   O14   D    
Ba1   O19   S    
C48   C49   A    
C32   H33   S    
C18   C19   A    
O8    P8    D    
C65   O9    S    
C60   H50   S    
C1    C12   S    
C14   H36   S    
C16   H11   S    
C46   C47   A    
O15   P6    S    
C3    H28   S    
C45   O3    S    
C24   C25   A    
C29   C33   D    
Ba2   O28   S    
C8    N1    S    
O2    P5    D    
C40   C62   S    
C25   C26   A    
C18   C41   A    
O27   P7    S    
C52   O17   S    
C64   N5    T    
O19   P2    D    
C5    P8    S    
C5    C14   S    
Ba2   O25   S    
O4    P1    S    
C2    N1    Am   
C34   I4    S    
C39   H29   S    
Ba2   O6    S    
Ba1   P1    S    
C53   P3    S    
C61   H2    S    
C6    P4    S    
Ba2   P4    S    
C2    O13   D    
C61   I3    S    
C42   H32   S    
C46   P5    S    
C52   C59   S    
C62   N3    T    
C65   H18   S    
Ba2   O4    S    
C21   H25   S    
O22   P3    S    
O7    P7    S    
C23   H7    S    
C2    C13   A    
C23   O7    S    
C49   H40   S    
C3    C8    D    
C4    H21   S    
C15   H37   S    
C41   H30   S    
C45   C56   S    
C40   I1    S    
C27   O11   D    
C12   O18   S    
C61   H3    S    
O3    P5    S    
Ba1   O20   S    
C33   N2    S    
C7    C63   S    
C60   H49   S    
C4    O22   S    
C58   H41   S    
C51   I6    S    
C23   C34   S    
C54   C58   A    
C55   H39   S    
C10   C11   A    
C67   N1    Am   
C6    C14   D    
C47   C48   A    
C27   N2    Am   
Ba1   O4    S    
C59   H45   S    
C15   C30   S    
C39   C43   A    
C20   C21   A    
C28   C40   S    
C34   H9    S    
C30   P6    S    
C66   I5    S    
O12   P2    S    
O21   P3    D    
C26   N2    Am   
C9    C10   A    
