data_mof_unit_64912.cif
_audit_creation_date              2012-12-10T19:30:54-0500
_audit_creation_method            fapswitch 2.2
_symmetry_space_group_name_H-M    P1
_symmetry_Int_Tables_number       1
_space_group_crystal_system       triclinic
_cell_length_a                    17.721518
_cell_length_b                    16.550948
_cell_length_c                    23.541095
_cell_angle_alpha                 90.207002
_cell_angle_beta                  91.760873
_cell_angle_gamma                 90.0
_cell_volume                      6901.48399589

loop_
_atom_site_label
_atom_site_type_symbol
_atom_type_description
_atom_site_fract_x
_atom_site_fract_y
_atom_site_fract_z
_atom_type_partial_charge
C1    C     C_R   0.355345 0.499996 0.499869 0.814062
C2    C     C_R   0.501814 0.574665 0.701561 -0.216432
C3    C     C_R   0.499781 0.424385 0.239082 0.007385
C4    C     C_R   0.502005 0.575780 0.760909 0.004497
C5    C     C_R   0.499295 0.497655 0.208993 0.302801
C6    C     C_R   0.500882 0.502562 0.790997 0.304403
C7    C     C_R   0.846330 0.573165 0.499509 -0.132337
C8    C     C_R   0.153641 0.426700 0.498719 -0.129860
C9    C     C_R   0.153675 0.573167 0.500636 -0.131696
C10   C     C_R   0.846353 0.426709 0.501146 -0.129204
C11   C     C_R   0.767670 0.573293 0.499491 -0.159517
C12   C     C_R   0.644655 0.499997 0.500132 0.814050
C13   C     C_R   0.232304 0.426627 0.498733 -0.157169
C14   C     C_R   0.232336 0.573296 0.500652 -0.158314
C15   C     C_R   0.767691 0.426635 0.501131 -0.155897
C16   C     C_R   0.727641 0.499979 0.500274 -0.044405
C17   C     C_R   0.272359 0.499976 0.499729 -0.044422
C18   C     C_R   0.885565 0.499923 0.500296 0.131030
C19   C     C_R   0.114435 0.499920 0.499710 0.131022
C20   C     C_R   0.499777 0.499830 0.390802 0.830371
C21   C     C_R   0.500243 0.500179 0.609198 0.830051
C22   C     C_1   0.966168 0.499896 0.500099 -0.032250
C23   C     C_R   0.498575 0.571146 0.238612 -0.090434
C24   C     C_1   0.033832 0.499895 0.499907 -0.032260
C25   C     C_R   0.550835 0.829653 0.535692 -0.128965
C26   C     C_R   0.452788 0.170330 0.461592 -0.129345
C27   C     C_R   0.449144 0.829324 0.464380 -0.129451
C28   C     C_R   0.547254 0.170690 0.538325 -0.129384
C29   C     C_R   0.548707 0.743454 0.535746 0.061671
C30   C     C_R   0.452675 0.256538 0.463217 0.061832
C31   C     C_R   0.451237 0.743129 0.464311 0.061605
C32   C     C_R   0.547390 0.256873 0.536721 0.061703
C33   C     C_R   0.500011 0.873359 0.500026 -0.030645
C34   C     C_R   0.499943 0.429033 0.761401 -0.092254
C35   C     C_R   0.500006 0.126640 0.499964 -0.031362
C36   C     C_1   0.500023 0.962958 0.500008 0.144487
C37   C     C_1   0.500006 0.037041 0.499978 0.143444
C38   C     C_R   0.565592 0.485335 0.881812 0.560696
C39   C     C_R   0.434585 0.514920 0.118158 0.561015
C40   C     C_R   0.434461 0.518371 0.878501 0.560964
C41   C     C_R   0.565768 0.482136 0.121466 0.561990
C42   C     C_R   0.433040 0.522637 0.938552 -0.083258
C43   C     C_R   0.567178 0.477822 0.061419 -0.083273
C44   C     C_R   0.499836 0.501561 0.969937 -0.011840
C45   C     C_R   0.498679 0.572016 0.297813 -0.184042
C46   C     C_R   0.500375 0.498854 0.030033 -0.011959
C47   C     C_R   0.566318 0.483136 0.941282 -0.027793
C48   C     C_R   0.433882 0.517223 0.058688 -0.027891
C49   C     C_R   0.367481 0.544501 0.968524 -0.032322
C50   C     C_R   0.632737 0.455944 0.031453 -0.032245
C51   C     C_R   0.368347 0.539149 0.027772 -0.180991
C52   C     C_R   0.631857 0.461226 0.972201 -0.181218
C53   C     C_2   0.298170 0.578405 0.941120 0.938051
C54   C     C_2   0.702039 0.422031 0.058868 0.937901
C55   C     C_1   0.600182 0.699860 0.573186 0.352636
C56   C     C_R   0.499765 0.428087 0.702199 -0.186401
C57   C     C_1   0.403111 0.300123 0.424344 0.353330
C58   C     C_1   0.399603 0.699222 0.426951 0.353119
C59   C     C_1   0.597123 0.300779 0.575521 0.353161
C60   C     C_1   0.499498 0.347883 0.209517 0.304221
C61   C     C_1   0.503896 0.652274 0.790484 0.310613
C62   C     C_2   0.607269 0.874006 0.572038 0.851776
C63   C     C_2   0.404744 0.125940 0.418958 0.854156
C64   C     C_2   0.392686 0.873346 0.428076 0.851579
C65   C     C_2   0.595328 0.126701 0.580922 0.852782
C66   C     C_R   0.499486 0.499170 0.328247 -0.055651
C67   C     C_R   0.500599 0.500891 0.671754 -0.054998
C68   C     C_R   0.499964 0.425432 0.298429 -0.219207
Cu1   Cu    Cu3+1 0.500000 0.580420 0.500000 0.969168
Cu2   Cu    Cu3+1 0.500000 0.419580 0.500000 0.969157
H1    H     H_    0.317841 0.555495 0.050018 0.212138
H2    H     H_    0.123433 0.369762 0.497992 0.149678
H3    H     H_    0.123494 0.630084 0.501414 0.146775
H4    H     H_    0.876557 0.369775 0.501764 0.149791
H5    H     H_    0.738323 0.630689 0.498763 0.161931
H6    H     H_    0.261631 0.369244 0.498003 0.168828
H7    H     H_    0.261687 0.630697 0.501493 0.162155
H8    H     H_    0.738359 0.369257 0.501747 0.169046
H9    H     H_    0.184451 0.576535 0.934528 0.352118
H10   H     H_    0.815763 0.423781 0.065402 0.352131
H11   H     H_    0.688787 0.959071 0.576804 0.354681
H12   H     H_    0.682353 0.444841 0.949956 0.212063
H13   H     H_    0.398758 0.040557 0.357598 0.356688
H14   H     H_    0.311216 0.958419 0.423369 0.354643
H15   H     H_    0.601311 0.042034 0.642341 0.356460
H16   H     H_    0.498200 0.627681 0.215595 0.157147
H17   H     H_    0.499058 0.372543 0.784434 0.154153
H18   H     H_    0.498241 0.629679 0.319688 0.175168
H19   H     H_    0.498802 0.370402 0.680334 0.168456
H20   H     H_    0.500483 0.368633 0.321229 0.167289
H21   H     H_    0.502652 0.631432 0.678753 0.173457
H22   H     H_    0.876516 0.630077 0.498841 0.146644
N1    N     N_R   0.500381 0.502339 0.851946 -0.474160
N2    N     N_1   0.505393 0.713593 0.814266 -0.211097
N3    N     N_R   0.499812 0.497981 0.148034 -0.473856
N4    N     N_R   0.500000 0.701220 0.500000 -0.218710
N5    N     N_R   0.500000 0.298780 0.500000 -0.218785
N6    N     N_1   0.641679 0.665620 0.603463 -0.264049
N7    N     N_1   0.363020 0.334352 0.393008 -0.263714
N8    N     N_1   0.357981 0.664730 0.396737 -0.261621
N9    N     N_1   0.637340 0.335268 0.606800 -0.261408
N10   N     N_1   0.499290 0.286560 0.185745 -0.215861
O1    O     O_R   0.391260 0.567930 0.500000 -0.587495
O2    O     O_2   0.370692 0.530034 0.146116 -0.510236
O3    O     O_2   0.370632 0.527545 0.846552 -0.494071
O4    O     O_2   0.629645 0.473210 0.153397 -0.494032
O5    O     O_2   0.302326 0.635833 0.908814 -0.526923
O6    O     O_R   0.227674 0.547612 0.955036 -0.737165
O7    O     O_2   0.697855 0.364700 0.091257 -0.526931
O8    O     O_R   0.772552 0.452699 0.044875 -0.737059
O9    O     O_2   0.615288 0.857615 0.622475 -0.569494
O10   O     O_R   0.651620 0.934163 0.548209 -0.742252
O11   O     O_2   0.337773 0.142566 0.412693 -0.574975
O12   O     O_R   0.608740 0.432070 0.500000 -0.585366
O13   O     O_R   0.436590 0.065475 0.385689 -0.737615
O14   O     O_2   0.384610 0.856464 0.377638 -0.571388
O15   O     O_R   0.348386 0.933759 0.451943 -0.741980
O16   O     O_2   0.662341 0.143256 0.587074 -0.574552
O17   O     O_R   0.563458 0.066696 0.614280 -0.738925
O18   O     O_R   0.608740 0.567930 0.500000 -0.587792
O19   O     O_R   0.391260 0.432070 0.500000 -0.585713
O20   O     O_R   0.499980 0.567930 0.417880 -0.585745
O21   O     O_R   0.500020 0.432070 0.582120 -0.587986
O22   O     O_R   0.500020 0.567930 0.582120 -0.584791
O23   O     O_R   0.499980 0.432070 0.417880 -0.586991
O24   O     O_2   0.629436 0.470032 0.853840 -0.510734

loop_
_geom_bond_atom_site_label_1
_geom_bond_atom_site_label_2
_ccdc_geom_bond_type
C66   C68   A    
C34   C56   A    
C8    C13   A    
C23   C45   A    
C3    C68   A    
C53   O6    S    
C40   N1    A    
C26   C63   S    
Cu1   N4    S    
C39   O2    S    
Cu2   O12   S    
C7    C11   A    
C30   N5    A    
C50   C54   S    
C9    H3    S    
C64   O14   D    
C31   C58   S    
C20   C66   S    
C36   C37   T    
C35   C37   S    
C10   C15   A    
C15   H8    S    
C31   N4    A    
C57   N7    T    
C30   C57   S    
C33   C36   S    
C32   N5    A    
C54   O8    S    
C14   H7    S    
H15   O17   S    
C5    N3    S    
C12   O18   A    
Cu2   O21   S    
C9    C19   A    
C48   C51   A    
C62   O9    D    
C12   C16   S    
C28   C35   A    
H14   O15   S    
C49   C51   A    
C23   H16   S    
C68   H20   S    
C65   O16   D    
C13   H6    S    
C44   C47   A    
C1    O1    A    
C20   O20   A    
Cu2   N5    S    
C25   C62   S    
C63   O13   S    
C3    C60   S    
C7    C18   A    
C40   C42   A    
C21   C67   S    
C41   C43   A    
C14   C17   A    
Cu1   Cu2   S    
C42   C44   A    
C60   N10   T    
C38   O24   S    
C44   C46   A    
C12   O12   A    
Cu1   O1    S    
C25   C29   A    
C46   C48   A    
C8    H2    S    
C8    C19   A    
C41   O4    S    
C27   C31   A    
C59   N9    T    
H13   O13   S    
C28   C32   A    
C45   H18   S    
C58   N8    T    
C4    C6    A    
C2    C67   A    
C61   N2    T    
C29   C55   S    
Cu1   O22   S    
C4    C61   S    
C27   C33   A    
C64   O15   S    
C6    C34   A    
C54   O7    D    
C21   O21   A    
C2    C4    A    
C9    C14   A    
C11   C16   A    
C53   O5    D    
C50   C52   A    
C5    C23   A    
H11   O10   S    
C6    N1    S    
C65   O17   S    
C52   H12   S    
C39   N3    A    
C38   C47   A    
C55   N6    T    
Cu2   O23   S    
C56   H19   S    
C26   C30   A    
C22   C24   T    
C18   C22   S    
C3    C5    A    
C29   N4    A    
C51   H1    S    
C43   C50   A    
C47   C52   A    
C56   C67   A    
Cu1   O18   S    
C1    C17   S    
C13   C17   A    
C21   O22   A    
C28   C65   S    
C20   O23   A    
C11   H5    S    
C10   H4    S    
Cu2   O19   S    
C41   N3    A    
Cu1   O20   S    
C10   C18   A    
C49   C53   S    
C7    H22   S    
C38   N1    A    
H9    O6    S    
C19   C24   S    
C34   H17   S    
C2    H21   S    
C43   C46   A    
C1    O19   A    
C27   C64   S    
C42   C49   A    
C63   O11   D    
C26   C35   A    
C62   O10   S    
H10   O8    S    
C45   C66   A    
C39   C48   A    
C32   C59   S    
C15   C16   A    
C25   C33   A    
C40   O3    S    
