data_mof_unit_21498.cif
_audit_creation_date              2012-12-10T20:21:43-0500
_audit_creation_method            fapswitch 2.2
_symmetry_space_group_name_H-M    P1
_symmetry_Int_Tables_number       1
_space_group_crystal_system       triclinic
_cell_length_a                    19.226814
_cell_length_b                    18.618266
_cell_length_c                    8.86299
_cell_angle_alpha                 89.966146
_cell_angle_beta                  90.213915
_cell_angle_gamma                 91.605823
_cell_volume                      3171.4154953

loop_
_atom_site_label
_atom_site_type_symbol
_atom_type_description
_atom_site_fract_x
_atom_site_fract_y
_atom_site_fract_z
_atom_type_partial_charge
C1    C     C_R   0.365549 0.498838 0.504006 0.958672
C2    C     C_R   0.634567 0.501172 0.496605 0.981398
C3    C     C_R   0.501034 0.727214 0.633728 0.593400
C4    C     C_R   0.499133 0.272797 0.366266 0.586797
C5    C     C_R   0.498881 0.727217 0.366344 0.573743
C6    C     C_R   0.501135 0.272767 0.633660 0.564008
C7    C     C_R   0.499598 0.803052 0.634568 -0.371266
C8    C     C_R   0.500959 0.196995 0.365334 -0.385488
C9    C     C_R   0.501152 0.803086 0.365175 -0.377845
C10   C     C_R   0.499191 0.196874 0.634689 -0.382658
C11   C     C_R   0.500626 0.842237 0.499815 -0.009556
C12   C     C_R   0.500021 0.157777 0.500016 -0.012142
C13   C     C_R   0.464395 0.961203 0.388069 -0.187239
C14   C     C_R   0.536380 0.038828 0.611640 -0.193213
C15   C     C_R   0.536561 0.963324 0.611523 -0.195964
C16   C     C_R   0.464220 0.036701 0.388181 -0.194824
C17   C     C_R   0.500197 0.076866 0.499978 0.187585
C18   C     C_R   0.500568 0.923157 0.499741 0.186736
C19   C     C_R   0.499917 0.500012 0.218782 0.925285
C20   C     C_R   0.500328 0.499991 0.781211 0.898352
C21   C     C_1   0.500030 0.500026 0.065486 -0.184471
C22   C     C_1   0.500177 0.499985 0.934500 -0.196587
C23   C     C_R   0.744831 0.447572 0.409582 0.345953
C24   C     C_R   0.255428 0.552645 0.591198 0.369082
C25   C     C_R   0.251428 0.434801 0.467196 0.377242
C26   C     C_R   0.747769 0.568795 0.518107 0.375367
C27   C     C_R   0.816523 0.453976 0.382237 0.385900
C28   C     C_R   0.182747 0.553962 0.586135 0.408870
C29   C     C_R   0.178896 0.435166 0.467240 0.391425
C30   C     C_R   0.819884 0.572695 0.500698 0.387589
C31   C     C_R   0.854023 0.513819 0.438619 -0.297503
C32   C     C_R   0.145280 0.496406 0.519703 -0.310803
C33   C     C_R   0.710263 0.505183 0.477254 -0.421782
C34   C     C_R   0.289865 0.495465 0.520939 -0.437737
C35   C     C_R   0.972481 0.511364 0.330823 -0.193685
C36   C     C_R   0.027097 0.499963 0.623296 -0.210627
C37   C     C_R   0.043844 0.507706 0.351678 -0.141910
C38   C     C_R   0.955972 0.503661 0.602535 -0.152512
C39   C     C_R   0.070912 0.502110 0.497951 0.273714
C40   C     C_R   0.928756 0.509477 0.456534 0.266387
H1    H     H_    0.951519 0.516649 0.217998 0.136638
H2    H     H_    0.047888 0.494134 0.736188 0.132082
H3    H     H_    0.077984 0.509278 0.254679 0.143654
H4    H     H_    0.921974 0.501623 0.699793 0.141814
H5    H     H_    0.496627 0.830887 0.741473 0.166193
H6    H     H_    0.504010 0.169216 0.258376 0.167724
H7    H     H_    0.503637 0.830952 0.257983 0.165976
H8    H     H_    0.496559 0.168919 0.741761 0.167917
H9    H     H_    0.434996 0.932588 0.301554 0.134458
H10   H     H_    0.565749 0.067459 0.698186 0.130484
H11   H     H_    0.566036 0.936427 0.698015 0.130720
H12   H     H_    0.434727 0.063594 0.301712 0.132463
N1    N     N_R   0.500000 0.689440 0.500000 -0.170158
N2    N     N_R   0.500000 0.310560 0.500000 -0.173186
O1    O     O_R   0.398180 0.560840 0.499960 -0.580475
O2    O     O_R   0.601820 0.439160 0.500040 -0.585862
O3    O     O_R   0.601820 0.560840 0.500040 -0.598170
O4    O     O_R   0.398180 0.439160 0.499960 -0.598629
O5    O     O_R   0.500000 0.560800 0.285330 -0.580838
O6    O     O_R   0.500000 0.439200 0.714670 -0.576609
O7    O     O_R   0.500000 0.560800 0.714670 -0.569345
O8    O     O_R   0.500000 0.439200 0.285330 -0.558505
Zn1   Zn    Zn3+2 0.500000 0.581210 0.500000 1.010614
Zn2   Zn    Zn3+2 0.500000 0.418790 0.500000 1.009590
O9    O     O_3   0.707914 0.386583 0.362866 -0.571390
C41   C     C_3   0.717587 0.331309 0.469376 -0.205375
H13   H     H_    0.707548 0.349460 0.586847 0.123295
H14   H     H_    0.770707 0.309695 0.461296 0.185721
H15   H     H_    0.679900 0.286649 0.444257 0.170480
O10   O     O_3   0.291977 0.610734 0.652862 -0.545788
C42   C     C_3   0.317238 0.591165 0.796671 -0.242963
H16   H     H_    0.341257 0.639539 0.850749 0.194051
H17   H     H_    0.357910 0.550265 0.788632 0.149545
H18   H     H_    0.274923 0.570674 0.871787 0.109933
O11   O     O_3   0.284567 0.378272 0.399203 -0.567769
C43   C     C_3   0.290098 0.321661 0.504424 -0.220120
H19   H     H_    0.309703 0.340527 0.616533 0.146638
H20   H     H_    0.327925 0.282891 0.460950 0.158098
H21   H     H_    0.239575 0.292191 0.517527 0.169376
O12   O     O_3   0.714834 0.624223 0.590769 -0.570117
C44   C     C_3   0.705468 0.681311 0.488105 -0.209461
H22   H     H_    0.664492 0.716249 0.532518 0.152942
H23   H     H_    0.687878 0.662537 0.374370 0.143097
H24   H     H_    0.753711 0.714948 0.478355 0.174225
O13   O     O_3   0.851695 0.397887 0.317824 -0.588505
C45   C     C_3   0.840223 0.398611 0.160481 -0.272715
H25   H     H_    0.851387 0.452568 0.110334 0.130521
H26   H     H_    0.786249 0.380340 0.132183 0.201101
H27   H     H_    0.876023 0.360497 0.107232 0.180077
O14   O     O_3   0.148360 0.615658 0.625269 -0.561652
C46   C     C_3   0.142909 0.620792 0.783716 -0.243440
H28   H     H_    0.185025 0.656917 0.828132 0.195491
H29   H     H_    0.143446 0.568039 0.843479 0.103896
H30   H     H_    0.092752 0.645733 0.810880 0.180103
O15   O     O_3   0.142348 0.378723 0.398641 -0.563205
C47   C     C_3   0.104039 0.338884 0.507647 -0.298161
H31   H     H_    0.128380 0.339583 0.622171 0.122584
H32   H     H_    0.100525 0.282000 0.470591 0.185650
H33   H     H_    0.050084 0.358177 0.514170 0.193216
O16   O     O_3   0.856562 0.631182 0.561173 -0.565859
C48   C     C_3   0.889012 0.671610 0.444668 -0.299823
H34   H     H_    0.894119 0.728367 0.482027 0.185910
H35   H     H_    0.858789 0.671169 0.336934 0.126482
H36   H     H_    0.942377 0.652755 0.424579 0.192051
O17   O     O_3   0.497579 0.691428 0.769722 -0.593952
C49   C     C_3   0.562575 0.698643 0.843490 -0.275061
H37   H     H_    0.573340 0.754916 0.880526 0.143531
H38   H     H_    0.605517 0.679507 0.771339 0.190329
H39   H     H_    0.561322 0.664477 0.946041 0.224325
O18   O     O_3   0.502096 0.308582 0.230253 -0.583804
C50   C     C_3   0.436845 0.301255 0.157586 -0.269218
H40   H     H_    0.394136 0.320276 0.230515 0.190850
H41   H     H_    0.426058 0.244961 0.120695 0.143320
H42   H     H_    0.437643 0.335440 0.055055 0.220897
O19   O     O_3   0.499555 0.691626 0.230273 -0.598478
C51   C     C_3   0.432639 0.694017 0.164771 -0.271747
H43   H     H_    0.420552 0.749392 0.127837 0.150446
H44   H     H_    0.391753 0.672617 0.242869 0.167367
H45   H     H_    0.431508 0.659349 0.063031 0.203849
O20   O     O_3   0.499789 0.308353 0.769744 -0.596537
C52   C     C_3   0.566080 0.305130 0.837957 -0.264740
H46   H     H_    0.607785 0.326032 0.761499 0.140568
H47   H     H_    0.577250 0.249610 0.875413 0.146381
H48   H     H_    0.566835 0.339806 0.939712 0.225292

loop_
_geom_bond_atom_site_label_1
_geom_bond_atom_site_label_2
_ccdc_geom_bond_type
C15   C18   A    
C41   H14   S    
C11   C18   S    
C48   H34   S    
N1    Zn1   S    
C36   H2    S    
O15   C47   S    
C43   H21   S    
C4    C8    A    
C44   H22   S    
C2    O3    A    
C24   O10   S    
O13   C45   S    
C3    O17   S    
C7    C11   A    
N2    Zn2   S    
C13   C18   A    
C7    H5    S    
C5    N1    A    
C35   C37   A    
C43   H20   S    
C29   C32   A    
C3    C7    A    
C30   C31   A    
C45   H26   S    
C41   H15   S    
C49   H37   S    
C19   O8    A    
O19   C51   S    
C47   H33   S    
C30   O16   S    
C51   H43   S    
O7    Zn1   S    
C32   C39   S    
C20   O7    A    
C27   O13   S    
O18   C50   S    
C52   H48   S    
O8    Zn2   S    
C31   C40   S    
C50   H40   S    
C16   C17   A    
C23   C33   A    
O1    Zn1   S    
C12   C17   S    
O2    Zn2   S    
O10   C42   S    
C23   C27   A    
C20   O6    A    
C25   C34   A    
C41   H13   S    
C48   H35   S    
C21   C22   T    
C5    O19   S    
O4    Zn2   S    
C14   C17   A    
C6    N2    A    
C6    O20   S    
C44   H23   S    
C1    C34   S    
O3    Zn1   S    
C38   H4    S    
C25   C29   A    
C27   C31   A    
C24   C28   A    
C28   C32   A    
C43   H19   S    
C46   H28   S    
C29   O15   S    
C45   H25   S    
C19   O5    A    
C24   C34   A    
C47   H32   S    
C25   O11   S    
C37   H3    S    
O11   C43   S    
C5    C9    A    
C46   H29   S    
C26   C33   A    
C8    C12   A    
C47   H31   S    
C50   H41   S    
C9    C11   A    
C52   H46   S    
C10   C12   A    
C13   H9    S    
C2    C33   S    
C20   C22   S    
C9    H7    S    
C48   H36   S    
C15   H11   S    
C10   H8    S    
C44   H24   S    
O20   C52   S    
C42   H17   S    
C4    O18   S    
C4    N2    A    
C36   C39   A    
C16   H12   S    
O12   C44   S    
C45   H27   S    
C6    C10   A    
C42   H18   S    
C26   C30   A    
O17   C49   S    
O5    Zn1   S    
C51   H45   S    
O6    Zn2   S    
C23   O9    S    
C36   C38   A    
C35   C40   A    
C1    O1    A    
C42   H16   S    
C37   C39   A    
C2    O2    A    
C1    O4    A    
C46   H30   S    
C38   C40   A    
C3    N1    A    
O14   C46   S    
C14   H10   S    
C49   H38   S    
O16   C48   S    
C51   H44   S    
C50   H42   S    
C35   H1    S    
C26   O12   S    
C52   H47   S    
O9    C41   S    
C13   C16   A    
C14   C15   A    
C28   O14   S    
C8    H6    S    
C19   C21   S    
C49   H39   S    
