data_mof_unit_11321.cif
_audit_creation_date              2013-03-05T15:45:34-0500
_audit_creation_method            fapswitch 2.2
_symmetry_space_group_name_H-M    P1
_symmetry_Int_Tables_number       1
_space_group_crystal_system       triclinic
_cell_length_a                    27.728293
_cell_length_b                    10.739431
_cell_length_c                    9.991511
_cell_angle_alpha                 89.91065
_cell_angle_beta                  90.148171
_cell_angle_gamma                 89.965857
_cell_volume                      2975.31888565

loop_
_atom_site_label
_atom_site_type_symbol
_atom_site_description
_atom_site_fract_x
_atom_site_fract_y
_atom_site_fract_z
_atom_type_partial_charge
O1    O     O_R   0.499990 0.319060 0.613040 -0.597634
O2    O     O_R   0.500010 0.319100 0.386900 -0.624841
C1    C     C_R   0.501165 0.262575 0.499939 0.954804
O3    O     O_R   0.428750 0.500000 0.613050 -0.533136
O4    O     O_R   0.428760 0.500040 0.386920 -0.619470
C2    C     C_R   0.405834 0.498212 0.499925 0.959398
Zn1   Zn    Zn3+2 0.499990 0.499970 0.650990 1.011393
Zn2   Zn    Zn3+2 0.500010 0.500030 0.349010 0.963306
O5    O     O_R   0.499990 0.680900 0.613100 -0.619298
O6    O     O_R   0.500010 0.680940 0.386960 -0.616062
O7    O     O_R   0.571240 0.499960 0.613080 -0.635720
O8    O     O_R   0.571250 0.500000 0.386950 -0.614189
C3    C     C_R   0.499020 0.737415 0.499827 0.921493
C4    C     C_R   0.594001 0.501217 0.500233 0.849926
C5    C     C_R   0.178219 0.384681 0.448129 0.588770
O9    O     O_2   0.204343 0.278716 0.442319 -0.510978
N1    N     N_R   0.200975 0.496903 0.460051 -0.335333
C6    C     C_R   0.175968 0.606292 0.466282 0.605546
C7    C     C_R   0.280794 0.531360 0.360044 0.467185
C8    C     C_R   0.330626 0.532539 0.374954 -0.343510
C9    C     C_R   0.323534 0.461929 0.606685 0.443383
C10   C     C_R   0.273504 0.465620 0.592041 -0.206322
C11   C     C_R   0.252239 0.499230 0.470432 0.104145
C12   C     C_R   0.101288 0.491149 0.446381 -0.052355
C13   C     C_R   0.127890 0.379541 0.442208 -0.033845
C14   C     C_R   0.103818 0.265811 0.431580 -0.106376
C15   C     C_R   0.125666 0.605772 0.456503 -0.034422
C16   C     C_R   0.352748 0.497816 0.496484 -0.250674
H1    H     H_    0.250333 0.440038 0.674646 0.223212
H2    H     H_    0.123543 0.178990 0.424053 0.196907
C17   C     C_R   0.646810 0.497980 0.498689 -0.099087
C18   C     C_R   0.975202 0.369729 0.457231 -0.008889
C19   C     C_R   0.973266 0.596828 0.426861 0.060139
C20   C     C_R   0.948867 0.481553 0.444265 0.073551
C21   C     C_R   0.950286 0.259368 0.488255 -0.193862
C22   C     C_R   0.899841 0.254417 0.499734 0.158760
C23   C     C_R   0.872892 0.366302 0.478458 -0.092734
C24   C     C_R   0.897870 0.478934 0.450016 -0.068285
C25   C     C_R   0.871892 0.590398 0.428221 -0.005602
C26   C     C_R   0.821832 0.589600 0.436152 0.504143
N2    N     N_R   0.798199 0.482379 0.466606 -0.343569
C27   C     C_R   0.821810 0.372269 0.486807 0.500572
C28   C     C_R   0.718419 0.430021 0.381304 -0.101672
C29   C     C_R   0.668740 0.435687 0.391295 -0.240154
C30   C     C_R   0.675548 0.556622 0.598499 0.125937
C31   C     C_R   0.725954 0.548118 0.586743 -0.094787
C32   C     C_R   0.746964 0.486055 0.478734 0.275569
O10   O     O_2   0.795363 0.270625 0.515839 -0.590377
C33   C     C_R   0.026096 0.371910 0.443706 0.055462
C34   C     C_R   0.050328 0.488046 0.442255 0.086176
C35   C     C_R   0.024063 0.601064 0.438176 0.045552
C36   C     C_R   0.053798 0.261803 0.432119 -0.214053
H3    H     H_    0.647287 0.390542 0.314659 0.171891
H4    H     H_    0.734862 0.382435 0.297507 0.149597
H5    H     H_    0.970541 0.176898 0.510399 0.162058
H6    H     H_    0.037791 0.171011 0.419807 0.140066
O11   O     O_2   0.199795 0.714796 0.482707 -0.503745
C37   C     C_R   0.099416 0.716731 0.458718 -0.105268
H7    H     H_    0.352369 0.560102 0.290148 0.214683
H8    H     H_    0.117344 0.805924 0.468099 0.194281
C38   C     C_R   0.945990 0.704431 0.398711 -0.214973
C39   C     C_R   0.896188 0.700941 0.398891 -0.150896
O12   O     O_2   0.796653 0.695399 0.413958 -0.565572
C40   C     C_R   0.049500 0.714728 0.448894 -0.210349
H9    H     H_    0.962277 0.792332 0.372797 0.142229
H10   H     H_    0.876753 0.786250 0.377430 0.193045
H11   H     H_    0.749783 0.589702 0.659795 0.150231
H12   H     H_    0.031634 0.803732 0.455369 0.140812
C41   C     C_2   0.502790 0.933114 0.387173 -0.151029
C42   C     C_2   0.494756 0.868945 0.499386 -0.309814
H13   H     H_    0.510958 0.887284 0.292995 0.173003
H14   H     H_    0.483724 0.911701 0.592623 0.163541
C43   C     C_2   0.499962 0.067023 0.386856 -0.144584
C44   C     C_2   0.506058 0.131117 0.499969 -0.308561
H15   H     H_    0.493105 0.112831 0.291621 0.179455
H16   H     H_    0.515983 0.088313 0.594433 0.150808
C45   C     C_2   0.526310 0.575243 0.924870 -0.132376
N3    N     N_2   0.500520 0.501330 0.852150 -0.175747
H17   H     H_    0.550496 0.639543 0.874973 0.153129
H18   H     H_    0.475497 0.445362 0.897780 0.208236
C46   C     C_2   0.524120 0.580008 0.075136 -0.112261
N4    N     N_2   0.500540 0.501360 0.147810 -0.189142
H19   H     H_    0.544283 0.653018 0.125072 0.157337
H20   H     H_    0.483625 0.427874 0.102102 0.175927
S1    S     S_3+6 0.346693 0.406104 0.761355 0.061676
O13   O     O_2   0.383019 0.304895 0.736056 -0.303034
O14   O     O_2   0.370448 0.511466 0.835236 -0.280601
O15   O     O_3   0.302008 0.348157 0.856486 -0.493250
H21   H     H_    0.317960 0.320887 0.940400 0.408494
S2    S     S_3+6 0.255249 0.567745 0.202069 0.075440
O16   O     O_2   0.215853 0.476741 0.169036 -0.242063
O17   O     O_2   0.234071 0.696552 0.206003 -0.256726
O18   O     O_3   0.297363 0.561318 0.081294 -0.491451
H22   H     H_    0.312814 0.644464 0.081132 0.372042
C47   C     C_3   0.652238 0.628747 0.712861 -0.391706
C48   C     C_3   0.686235 0.707967 0.798386 -0.876305
H23   H     H_    0.711614 0.647816 0.855419 0.260726
H24   H     H_    0.706540 0.774530 0.734674 0.278026
H25   H     H_    0.664763 0.762223 0.871689 0.254052
H26   H     H_    0.624719 0.692978 0.670231 0.211716
H27   H     H_    0.633852 0.561814 0.780463 0.227497
C49   C     C_3   0.875264 0.130820 0.535236 -0.296918
C50   C     C_3   0.907721 0.017113 0.557423 -0.950051
H28   H     H_    0.928443 0.995642 0.465328 0.254244
H29   H     H_    0.932557 0.032648 0.643184 0.270101
H30   H     H_    0.884978 0.935038 0.581520 0.275458
H31   H     H_    0.854646 0.143589 0.629440 0.248407
H32   H     H_    0.850113 0.105778 0.452817 0.250131

loop_
_geom_bond_atom_site_label_1
_geom_bond_atom_site_label_2
_geom_bond_distance
_ccdc_geom_bond_type
O18   H22   0.990640 S    
C10   H1    1.082462 S    
N2    C27   1.365778 A    
C47   C48   1.530267 S    
C12   C15   1.408374 A    
C4    C17   1.464814 S    
C46   N4    1.292035 D    
C30   C31   1.405809 A    
Zn1   O7    2.012585 S    
N1    C11   1.425217 S    
C26   O12   1.350965 S    
C44   H16   1.083991 S    
Zn2   N4    2.010413 S    
C40   H12   1.078444 S    
C22   C49   1.533939 S    
C22   C23   1.429923 A    
C35   C40   1.414244 A    
S1    O13   1.503577 D    
O4    C2    1.297313 A    
O7    C4    1.293614 A    
N3    H18   1.025590 S    
C5    C13   1.397754 A    
C3    C42   1.417421 S    
C37   H8    1.083538 S    
C5    O9    1.350029 S    
C48   H25   1.110670 S    
N1    C6    1.365378 A    
C43   C44   1.334630 D    
C23   C27   1.420481 A    
C41   H13   1.086929 S    
C1    C44   1.418207 S    
O5    C3    1.283616 A    
C6    O11   1.349899 S    
C29   H3    1.083697 S    
C2    C16   1.472292 S    
C21   C22   1.404766 A    
C48   H24   1.110926 S    
C41   C43   1.440189 S    
C38   C39   1.381467 A    
C45   H17   1.084612 S    
O1    Zn1   1.980107 S    
C9    C10   1.395098 A    
C37   C40   1.387479 A    
C43   H15   1.086778 S    
C49   C50   1.532025 S    
O3    Zn1   2.010444 S    
C46   H19   1.084724 S    
C19   C20   1.421786 A    
S1    O14   1.503363 D    
C12   C34   1.413929 A    
C9    S1    1.775262 S    
C17   C29   1.404928 A    
C39   H10   1.083484 S    
C21   H5    1.070977 S    
C18   C21   1.406798 A    
C12   C13   1.407760 A    
O3    C2    1.295402 A    
C25   C26   1.390576 A    
C47   H26   1.111883 S    
C8    C16   1.408629 A    
C13   C14   1.396290 A    
C45   N3    1.291967 D    
O6    C3    1.281651 A    
O1    C1    1.283886 A    
C18   C20   1.410750 A    
C7    C11   1.402174 A    
C28   C29   1.382694 A    
C23   C24   1.422860 A    
C14   C36   1.387665 A    
C28   H4    1.083076 S    
S2    O17   1.503075 D    
C45   C46   1.503720 S    
Zn2   O8    2.010447 S    
C33   C36   1.414758 A    
C48   H23   1.110628 S    
C34   C35   1.415592 A    
N2    C32   1.426661 S    
C49   H31   1.111153 S    
C50   H29   1.110799 S    
C27   O10   1.347060 S    
C8    H7    1.082219 S    
C49   H32   1.111203 S    
Zn1   N3    2.009984 S    
C19   C38   1.408309 A    
C26   N2    1.359696 A    
C9    C16   1.421535 A    
O8    C4    1.294465 A    
C14   H2    1.083523 S    
N4    H20   1.025587 S    
C30   C47   1.526239 S    
S2    O18   1.682877 S    
S1    O15   1.682606 S    
Zn1   O5    1.979042 S    
C25   C39   1.396424 A    
C31   C32   1.397610 A    
C20   C24   1.415681 A    
O2    Zn2   1.979043 S    
C6    C15   1.397964 A    
C15   C37   1.396215 A    
O4    Zn2   2.012583 S    
C5    N1    1.365949 A    
C19   C35   1.413523 A    
C7    C8    1.389449 A    
O2    C1    1.281719 A    
C31   H11   1.080578 S    
C7    S2    1.771365 S    
S2    O16   1.502600 D    
C24   C25   1.412998 A    
C36   H6    1.078651 S    
C50   H30   1.110564 S    
C41   C42   1.334411 D    
C18   C33   1.418213 A    
C38   H9    1.078192 S    
O15   H21   0.990723 S    
Zn2   O6    1.980106 S    
C33   C34   1.417135 A    
C17   C30   1.422874 A    
C50   H28   1.110531 S    
C10   C11   1.396066 A    
C42   H14   1.083925 S    
C28   C32   1.390930 A    
C47   H27   1.110652 S    
