data_mof_unit_22696.cif
_audit_creation_date              2012-10-26T18:52:11-0400
_audit_creation_method            fapswitch 2.2
_symmetry_space_group_name_H-M    P1
_symmetry_Int_Tables_number       1
_space_group_crystal_system       triclinic
_cell_length_a                    13.865942
_cell_length_b                    14.726955
_cell_length_c                    14.78446
_cell_angle_alpha                 116.02373
_cell_angle_beta                  106.619953
_cell_angle_gamma                 71.603075
_cell_volume                      2535.45265602

loop_
_atom_site_label
_atom_site_type_symbol
_atom_type_description
_atom_site_fract_x
_atom_site_fract_y
_atom_site_fract_z
_atom_type_partial_charge
Br1   Br    Br    0.631515 0.547120 0.285867 -0.577033
Br2   Br    Br    0.683971 0.396904 0.796183 -0.609988
C1    C     C_R   0.517830 0.119126 0.688583 0.543528
C2    C     C_R   0.604372 0.487880 0.902521 0.140986
C3    C     C_R   0.587300 0.373630 0.110299 -0.094570
C4    C     C_R   0.593800 0.593522 0.930181 -0.095474
C5    C     C_R   0.317668 0.304480 0.339329 -0.146783
C6    C     C_R   0.684277 0.691983 0.656010 -0.144852
C7    C     C_R   0.350601 0.215995 0.363100 0.425736
C8    C     C_R   0.652224 0.780977 0.633166 0.432536
C9    C     C_R   0.491160 0.283036 0.484858 -0.008350
C10   C     C_R   0.510300 0.715801 0.511702 0.029406
C11   C     C_R   0.464609 0.371386 0.459148 -0.012837
C12   C     C_R   0.485633 0.880370 0.311771 0.534504
C13   C     C_R   0.540294 0.623407 0.530816 0.014906
C14   C     C_R   0.374262 0.381685 0.386637 -0.005382
C15   C     C_R   0.630687 0.612423 0.603226 -0.000924
C16   C     C_R   0.687187 0.986073 0.503703 0.553602
C17   C     C_R   0.312803 0.013826 0.496159 0.544672
C18   C     C_R   0.522268 0.450720 0.504502 0.035026
C19   C     C_R   0.484803 0.541976 0.481140 0.052218
C20   C     C_R   0.393280 0.548578 0.409280 -0.120234
C21   C     C_R   0.616726 0.441176 0.571495 -0.113945
C22   C     C_R   0.340031 0.469400 0.362339 -0.129589
C23   C     C_R   0.567137 0.349652 0.933038 0.044166
C24   C     C_R   0.668374 0.521446 0.621672 -0.113284
C25   C     C_1   0.207096 0.023915 0.496106 -0.027659
C26   C     C_1   0.792890 0.975692 0.503497 -0.031869
C27   C     C_2   0.011862 0.040406 0.499388 0.294366
C28   C     C_2   0.988189 0.958662 0.499951 0.292532
C29   C     C_1   0.881624 0.967074 0.502341 -0.020130
C30   C     C_1   0.118415 0.032164 0.497136 -0.022336
C31   C     C_R   0.535426 0.185128 0.798193 -0.000923
C32   C     C_R   0.496414 0.809805 0.205862 -0.010861
C33   C     C_R   0.567821 0.207249 0.976036 -0.134687
C34   C     C_R   0.546327 0.629840 0.090737 0.040062
C35   C     C_R   0.543396 0.771768 0.045271 -0.131212
C36   C     C_R   0.550543 0.144658 0.872510 -0.121712
C37   C     C_R   0.513741 0.843701 0.138110 -0.142385
C38   C     C_R   0.541273 0.287998 0.829106 -0.090565
C39   C     C_R   0.505879 0.703898 0.178139 -0.087970
C40   C     C_3   0.031889 0.790714 0.499388 -0.013840
C41   C     C_3   0.122021 0.698214 0.494878 -0.360167
C42   C     C_3   0.967143 0.206552 0.495500 -0.010847
C43   C     C_3   0.877091 0.299040 0.500034 -0.352240
C44   C     C_3   0.808992 0.832203 0.689124 -0.010378
C45   C     C_R   0.573710 0.310197 0.006765 0.014453
C46   C     C_3   0.865528 0.855566 0.798889 -0.394995
C47   C     C_3   0.278401 0.099181 0.211529 -0.018521
C48   C     C_3   0.163363 0.117045 0.168635 -0.388841
C49   C     C_R   0.560116 0.665146 0.021204 0.015541
C50   C     C_R   0.578410 0.452411 0.965662 0.021004
C51   C     C_R   0.568015 0.521678 0.067682 0.016479
C52   C     C_R   0.584473 0.478484 0.141765 0.138791
Cu1   Cu    Cu3+1 0.526370 0.916390 0.524860 1.018571
Cu2   Cu    Cu3+1 0.473630 0.083610 0.475140 1.003304
H1    H     H_    0.247819 0.313169 0.284630 0.097568
H2    H     H_    0.546938 0.065185 0.850740 0.146078
H3    H     H_    0.575834 0.175378 0.032075 0.107425
H4    H     H_    0.556060 0.799312 0.993532 0.108884
H5    H     H_    0.270331 0.477601 0.307169 0.108968
H6    H     H_    0.739579 0.511552 0.674596 0.139027
H7    H     H_    0.444274 0.729541 0.455945 0.131655
H8    H     H_    0.555405 0.272017 0.543314 0.152075
H9    H     H_    0.970698 0.764789 0.432300 0.144303
H10   H     H_    0.002383 0.817756 0.571620 0.122653
H11   H     H_    0.184630 0.721181 0.561022 0.163769
H12   H     H_    0.750973 0.684543 0.714266 0.092116
H13   H     H_    0.096063 0.635315 0.497136 0.101976
H14   H     H_    0.152530 0.668768 0.422988 0.158001
H15   H     H_    0.994082 0.176903 0.421445 0.139849
H16   H     H_    0.029853 0.233514 0.560377 0.140450
H17   H     H_    0.850208 0.331425 0.574232 0.170926
H18   H     H_    0.901750 0.360013 0.492823 0.110510
H19   H     H_    0.812400 0.275014 0.436803 0.171694
H20   H     H_    0.830389 0.878839 0.658951 0.155693
H21   H     H_    0.837211 0.749465 0.640611 0.104531
H22   H     H_    0.846438 0.810844 0.832794 0.143779
H23   H     H_    0.360381 0.614203 0.387363 0.102024
H24   H     H_    0.950128 0.834181 0.800513 0.103053
H25   H     H_    0.842888 0.939551 0.845491 0.171121
H26   H     H_    0.310163 0.014257 0.184827 0.156660
H27   H     H_    0.318074 0.129639 0.178419 0.096486
H28   H     H_    0.128227 0.201234 0.193292 0.149331
H29   H     H_    0.151266 0.081682 0.083836 0.108746
H30   H     H_    0.124523 0.080943 0.196146 0.162160
H31   H     H_    0.653589 0.371405 0.585644 0.150484
H32   H     H_    0.599742 0.341661 0.167317 0.144428
H33   H     H_    0.613424 0.619530 0.880896 0.139946
H34   H     H_    0.480841 0.680321 0.225637 0.164214
H35   H     H_    0.522699 0.320430 0.771722 0.167840
H36   H     H_    0.507384 0.925207 0.158068 0.121220
N1    N     N_R   0.433980 0.209250 0.437830 -0.227679
N2    N     N_R   0.566020 0.790750 0.562170 -0.218512
O1    O     O_R   0.534760 0.019630 0.662610 -0.459724
O2    O     O_3   0.933825 0.129328 0.503220 -0.573845
O3    O     O_3   0.700884 0.863453 0.687314 -0.522717
O4    O     O_3   0.293544 0.140229 0.319789 -0.518959
O5    O     O_R   0.465240 0.980370 0.337390 -0.482336
O6    O     O_R   0.490220 0.160840 0.620610 -0.512390
O7    O     O_R   0.509780 0.839160 0.379390 -0.491579
O8    O     O_R   0.663260 0.919400 0.523940 -0.466719
O9    O     O_R   0.336740 0.080600 0.476060 -0.447138
O10   O     O_R   0.618720 0.060610 0.481950 -0.495679
O11   O     O_R   0.381280 0.939390 0.518050 -0.511171
O12   O     O_3   0.066386 0.869985 0.496793 -0.582205

loop_
_geom_bond_atom_site_label_1
_geom_bond_atom_site_label_2
_ccdc_geom_bond_type
Cu1   Cu2   S    
C7    O4    S    
C33   C45   A    
C44   H20   S    
C48   H28   S    
C12   O5    A    
C51   C52   A    
C42   C43   S    
C3    C45   A    
Cu1   O8    S    
C22   H5    S    
C2    C50   A    
C15   C24   A    
C33   H3    S    
C20   H23   S    
C27   C30   S    
C23   C38   A    
C28   C29   S    
C35   C49   A    
C8    N2    A    
C46   H25   S    
C42   H15   S    
C43   H17   S    
C16   O8    A    
C21   C24   A    
C46   H22   S    
C34   C51   A    
C48   H29   S    
C47   O4    S    
C36   H2    S    
C3    H32   S    
C17   O9    A    
C1    O6    A    
C40   H9    S    
C18   C21   A    
C4    C49   A    
C17   C25   S    
C23   C45   A    
C9    N1    A    
C39   H34   S    
C14   C22   A    
C21   H31   S    
C19   C20   A    
C28   O12   S    
C10   N2    A    
C34   C39   A    
C32   C39   A    
Cu1   N2    S    
Cu2   N1    S    
C44   C46   S    
C31   C38   A    
C32   C37   A    
C3    C52   A    
C33   C36   A    
C16   C26   S    
Cu2   O10   S    
Cu1   O1    S    
C9    H8    S    
C10   H7    S    
C12   O7    A    
C43   H18   S    
C47   H26   S    
C8    O3    S    
Br2   C2    S    
Br1   C52   S    
C41   H11   S    
C27   C28   D    
C42   O2    S    
C27   O2    S    
C10   C13   A    
C16   O10   A    
C40   O12   S    
C34   C49   A    
C17   O11   A    
C2    C4    A    
C5    C14   A    
C44   O3    S    
Cu1   O11   S    
C6    H12   S    
C41   H14   S    
C20   C22   A    
C40   C41   S    
Cu2   O6    S    
C7    N1    A    
C37   H36   S    
C50   C51   A    
C13   C15   A    
C11   C18   A    
C25   C30   T    
C26   C29   T    
C6    C15   A    
Cu2   O9    S    
C12   C32   S    
C44   H21   S    
C4    H33   S    
Cu1   O7    S    
C31   C36   A    
C43   H19   S    
C47   H27   S    
C24   H6    S    
C23   C50   A    
C35   C37   A    
C9    C11   A    
C46   H24   S    
C42   H16   S    
C38   H35   S    
C35   H4    S    
C48   H30   S    
C5    C7    A    
C13   C19   A    
C18   C19   A    
C6    C8    A    
C47   C48   S    
C11   C14   A    
C40   H10   S    
C1    C31   S    
C1    O1    A    
Cu2   O5    S    
C41   H13   S    
C5    H1    S    
