data_mof_unit_5049.cif
_audit_creation_date              2012-10-26T20:18:16-0400
_audit_creation_method            fapswitch 2.2
_symmetry_space_group_name_H-M    P1
_symmetry_Int_Tables_number       1
_space_group_crystal_system       triclinic
_cell_length_a                    23.403686
_cell_length_b                    8.673338
_cell_length_c                    7.600526
_cell_angle_alpha                 103.811724
_cell_angle_beta                  95.531068
_cell_angle_gamma                 94.056407
_cell_volume                      1484.19991936

loop_
_atom_site_label
_atom_site_type_symbol
_atom_type_description
_atom_site_fract_x
_atom_site_fract_y
_atom_site_fract_z
_atom_type_partial_charge
C1    C     C_R   0.497609 0.199717 0.452597 0.586746
C2    C     C_R   0.704641 0.642706 0.566809 -0.134425
C3    C     C_R   0.235552 0.351350 0.430675 -0.044753
C4    C     C_R   0.764207 0.650896 0.569779 -0.046598
C5    C     C_R   0.209218 0.488891 0.500116 0.181599
C6    C     C_R   0.790935 0.513352 0.503528 0.182555
C7    C     C_2   0.496374 0.030599 0.427293 -0.010960
C8    C     C_2   0.503498 0.969352 0.572681 -0.007851
C9    C     C_R   0.391487 0.503096 0.500723 0.589208
C10   C     C_R   0.608516 0.496973 0.499302 0.588346
C11   C     C_R   0.878726 0.572335 0.378688 0.418775
C12   C     C_R   0.502404 0.800274 0.547401 0.584234
C13   C     C_R   0.121487 0.431074 0.625982 0.418162
C14   C     C_R   0.883368 0.470232 0.644935 0.407448
C15   C     C_R   0.116854 0.533594 0.360026 0.408625
C16   C     C_R   0.942818 0.459991 0.643443 0.027787
C17   C     C_R   0.057428 0.544115 0.361741 0.027186
C18   C     C_R   0.970304 0.507725 0.505498 -0.024403
C19   C     C_R   0.029945 0.496364 0.499682 -0.024410
C20   C     C_R   0.938249 0.566210 0.372946 0.031484
C21   C     C_R   0.061993 0.437711 0.632111 0.031835
C22   C     C_R   0.975066 0.400670 0.773999 -0.135892
C23   C     C_R   0.242612 0.636007 0.573068 0.021170
C24   C     C_R   0.025191 0.603541 0.231262 -0.135807
C25   C     C_R   0.034077 0.389793 0.768534 -0.121653
C26   C     C_R   0.966173 0.614282 0.236633 -0.121729
C27   C     C_1   0.213320 0.773581 0.649488 0.314909
C28   C     C_1   0.787658 0.227477 0.360871 0.313140
C29   C     C_R   0.757868 0.365485 0.431977 0.017288
C30   C     C_R   0.303144 0.645805 0.571099 0.179305
C31   C     C_R   0.697215 0.355216 0.430995 0.176496
C32   C     C_R   0.329028 0.504089 0.501681 0.030609
C33   C     C_R   0.670997 0.496766 0.498532 0.030298
C34   C     C_R   0.295077 0.358779 0.432321 -0.130435
Cu1   Cu    Cu3+1 0.506340 0.517380 0.684380 1.253698
Cu2   Cu    Cu3+1 0.493660 0.482620 0.315620 1.257695
H1    H     H_    0.954810 0.362093 0.880514 0.172026
H2    H     H_    0.509854 0.043449 0.711587 0.177531
H3    H     H_    0.374193 0.820523 0.914224 0.364694
H4    H     H_    0.657082 0.133480 0.636241 0.356278
H5    H     H_    0.352166 0.213349 0.031207 0.371720
H6    H     H_    0.648151 0.783770 0.966341 0.372924
H7    H     H_    0.045448 0.642137 0.124757 0.172146
H8    H     H_    0.057733 0.344357 0.871873 0.182423
H9    H     H_    0.942514 0.659643 0.133240 0.182514
H10   H     H_    0.314872 0.250593 0.379166 0.163278
H11   H     H_    0.684564 0.750809 0.618135 0.154269
H12   H     H_    0.209685 0.238501 0.374946 0.165422
H13   H     H_    0.789810 0.764315 0.624345 0.162661
H14   H     H_    0.490013 0.956502 0.288384 0.168677
N1    N     N_R   0.852606 0.522941 0.511951 -0.404329
N2    N     N_R   0.147583 0.480296 0.492578 -0.405058
N3    N     N_2   0.484110 0.456420 0.038520 0.024715
N4    N     N_2   0.515890 0.543580 0.961480 0.023191
N5    N     N_1   0.189405 0.882780 0.710397 -0.213620
N6    N     N_1   0.811989 0.117952 0.304324 -0.215264
O1    O     O_R   0.504120 0.286130 0.619770 -0.493384
O2    O     O_2   0.153216 0.378526 0.753665 -0.439688
O3    O     O_2   0.856223 0.425732 0.776341 -0.463544
O4    O     O_2   0.144002 0.578272 0.228730 -0.458742
O5    O     O_2   0.376070 0.854514 0.478870 -0.282606
O6    O     O_2   0.312281 0.972705 0.697037 -0.252682
O7    O     O_3   0.396423 0.830941 0.812484 -0.476925
O8    O     O_2   0.607395 0.172578 0.215741 -0.215575
O9    O     O_2   0.687939 0.029195 0.294314 -0.254918
O10   O     O_3   0.624166 0.138353 0.546131 -0.537031
O11   O     O_2   0.373952 0.484774 0.944117 -0.286058
O12   O     O_R   0.495880 0.713870 0.380230 -0.500655
O13   O     O_2   0.414515 0.256963 0.754348 -0.243079
O14   O     O_3   0.394042 0.240100 0.070301 -0.483885
O15   O     O_2   0.585535 0.742921 0.245577 -0.246472
O16   O     O_2   0.625981 0.514734 0.055949 -0.264916
O17   O     O_3   0.606079 0.759516 0.929619 -0.479143
O18   O     O_R   0.493410 0.256770 0.308360 -0.458509
O19   O     O_R   0.506590 0.743230 0.691640 -0.450617
O20   O     O_R   0.423230 0.514630 0.655730 -0.437953
O21   O     O_R   0.576770 0.485370 0.344270 -0.434341
O22   O     O_R   0.412530 0.485280 0.344320 -0.468018
O23   O     O_R   0.587470 0.514720 0.655680 -0.470617
O24   O     O_2   0.846986 0.624460 0.250671 -0.439348
S1    S     S_3+6 0.346401 0.832679 0.638970 0.033315
S2    S     S_3+6 0.654242 0.167840 0.363463 0.034755
S3    S     S_3+6 0.416161 0.361658 0.942674 0.175391
S4    S     S_3+6 0.583868 0.638103 0.057294 0.179368

loop_
_geom_bond_atom_site_label_1
_geom_bond_atom_site_label_2
_ccdc_geom_bond_type
O11   S3    D    
C15   O4    S    
Cu1   Cu2   S    
N4    S4    S    
C28   N6    T    
C7    C8    D    
N3    N4    D    
C14   O3    S    
C12   O12   A    
Cu1   O19   S    
C31   S2    S    
O7    S1    S    
C1    O18   A    
C28   C29   S    
C19   C21   A    
C24   C26   A    
Cu2   O21   S    
C27   N5    T    
C3    H12   S    
C18   C19   A    
Cu2   N3    S    
C9    C32   S    
C22   C25   A    
C31   C33   A    
C5    N2    S    
C34   H10   S    
C9    O20   A    
C23   C27   S    
C6    N1    S    
O17   S4    S    
C26   H9    S    
H4    O10   S    
Cu1   N4    S    
C8    H2    S    
C25   H8    S    
C10   O21   A    
C11   C20   A    
Cu1   O20   S    
C17   C24   A    
C23   C30   A    
C4    C6    A    
C13   O2    S    
C3    C34   A    
C22   H1    S    
C32   C34   A    
C2    C4    A    
O13   S3    D    
C1    O1    A    
O10   S2    S    
C13   N2    A    
C14   N1    A    
C5    C23   A    
C8    C12   S    
C13   C21   A    
C15   N2    A    
O14   S3    S    
O8    S2    D    
O16   S4    D    
Cu2   O18   S    
C2    C33   A    
O6    S1    D    
C14   C16   A    
O15   S4    D    
C15   C17   A    
C21   C25   A    
H6    O17   S    
C16   C22   A    
C1    C7    S    
C7    H14   S    
C3    C5    A    
C10   O23   A    
Cu2   O12   S    
C2    H11   S    
H3    O7    S    
N3    S3    S    
C4    H13   S    
Cu1   O1    S    
C30   S1    S    
C29   C31   A    
O5    S1    D    
C30   C32   A    
O9    S2    D    
C20   C26   A    
Cu1   O23   S    
C17   C19   A    
C10   C33   S    
C18   C20   A    
C9    O22   A    
C11   N1    A    
C11   O24   S    
C6    C29   A    
C16   C18   A    
C12   O19   A    
C24   H7    S    
Cu2   O22   S    
H5    O14   S    
