data_mof_unit_48001.cif
_audit_creation_date              2012-12-10T18:48:21-0500
_audit_creation_method            fapswitch 2.2
_symmetry_space_group_name_H-M    P1
_symmetry_Int_Tables_number       1
_space_group_crystal_system       triclinic
_cell_length_a                    10.812533
_cell_length_b                    9.823572
_cell_length_c                    11.549291
_cell_angle_alpha                 89.98925
_cell_angle_beta                  89.981632
_cell_angle_gamma                 90.109723
_cell_volume                      1226.7367512

loop_
_atom_site_label
_atom_site_type_symbol
_atom_type_description
_atom_site_fract_x
_atom_site_fract_y
_atom_site_fract_z
_atom_type_partial_charge
C1    C     C_R   0.260047 0.499918 0.500123 1.053484
C2    C     C_R   0.940273 0.625572 0.504100 0.298014
C3    C     C_R   0.939467 0.375394 0.499514 0.301940
C4    C     C_R   0.063750 0.618489 0.534200 0.305162
C5    C     C_R   0.873840 0.500527 0.501413 -0.417869
C6    C     C_R   0.128017 0.499941 0.500918 -0.417616
C7    C     C_R   0.523478 0.071905 0.599289 0.004672
C8    C     C_R   0.475881 0.928057 0.400824 -0.023575
C9    C     C_R   0.476224 0.071857 0.400754 0.032782
C10   C     C_R   0.523696 0.928122 0.599257 0.024227
C11   C     C_R   0.740635 0.500182 0.500453 1.009595
C12   C     C_R   0.500012 0.500010 0.281766 0.928645
C13   C     C_R   0.500041 0.499988 0.718233 0.929965
C14   C     C_1   0.499724 0.500015 0.161400 -0.126694
C15   C     C_1   0.499765 0.499980 0.838599 -0.126913
C16   C     C_1   0.499553 0.500002 0.059289 0.031371
C17   C     C_1   0.499573 0.499993 0.940708 0.031571
C18   C     C_R   0.062662 0.381560 0.468686 0.309646
H1    H     H_    0.256550 0.246465 0.235767 0.371361
H2    H     H_    0.750090 0.852671 0.326459 0.381350
H3    H     H_    0.776543 0.153853 0.703662 0.377530
H4    H     H_    0.267826 0.748662 0.761061 0.376108
H5    H     H_    0.542241 0.125971 0.678844 0.135590
H6    H     H_    0.456175 0.873944 0.321461 0.140063
H7    H     H_    0.456769 0.125897 0.321338 0.130631
H8    H     H_    0.543155 0.874067 0.678681 0.134078
N1    N     N_R   0.500000 0.857200 0.500000 -0.078176
N2    N     N_R   0.500000 0.142800 0.500000 -0.075177
O1    O     O_R   0.316770 0.614620 0.499990 -0.568545
O2    O     O_2   0.021762 0.183433 0.311123 -0.210009
O3    O     O_3   0.221903 0.323907 0.279981 -0.579208
O4    O     O_2   0.808186 0.851082 0.551154 -0.247389
O5    O     O_2   0.985750 0.879134 0.421639 -0.146309
O6    O     O_3   0.790702 0.763522 0.338742 -0.546492
O7    O     O_2   0.806094 0.147343 0.460886 -0.228988
O8    O     O_2   0.985592 0.125794 0.588839 -0.160410
O9    O     O_3   0.791601 0.245188 0.670102 -0.564222
O10   O     O_2   0.196727 0.849924 0.558006 -0.216721
O11   O     O_2   0.026090 0.814861 0.694387 -0.207169
O12   O     O_R   0.683230 0.385380 0.500010 -0.553482
O13   O     O_3   0.224639 0.671980 0.722644 -0.573650
O14   O     O_R   0.683230 0.614620 0.500010 -0.560134
O15   O     O_R   0.316770 0.385380 0.499990 -0.565429
O16   O     O_R   0.500020 0.614670 0.334450 -0.628356
O17   O     O_R   0.499980 0.385330 0.665550 -0.623071
O18   O     O_R   0.499980 0.614670 0.665550 -0.628144
O19   O     O_R   0.500020 0.385330 0.334450 -0.624919
O20   O     O_2   0.192839 0.148843 0.446836 -0.216832
S1    S     S_3+6 0.124413 0.252819 0.376205 0.108359
S2    S     S_3+6 0.881544 0.785909 0.455557 0.138727
S3    S     S_3+6 0.880929 0.217106 0.553209 0.133393
S4    S     S_3+6 0.127402 0.745467 0.627787 0.114514
Zn1   Zn    Zn3+2 0.500000 0.653120 0.500000 1.050917
Zn2   Zn    Zn3+2 0.500000 0.346880 0.500000 1.061808

loop_
_geom_bond_atom_site_label_1
_geom_bond_atom_site_label_2
_ccdc_geom_bond_type
C10   N1    A    
C7    C10   A    
C2    C4    A    
N1    Zn1   S    
H1    O3    S    
O15   Zn2   S    
C7    H5    S    
C13   C15   S    
O13   S4    S    
H2    O6    S    
C10   H8    S    
C1    O1    A    
O11   S4    D    
C9    H7    S    
C12   O16   A    
C13   O17   A    
O4    S2    D    
C11   O12   A    
O8    S3    D    
O1    Zn1   S    
C4    S4    S    
C12   O19   A    
C6    C18   A    
O18   Zn1   S    
O20   S1    D    
C8    H6    S    
O2    S1    D    
O3    S1    S    
O17   Zn2   S    
C5    C11   S    
O12   Zn2   S    
O19   Zn2   S    
O14   Zn1   S    
O7    S3    D    
C13   O18   A    
O9    S3    S    
C14   C16   T    
O6    S2    S    
H4    O13   S    
O10   S4    D    
C1    C6    S    
C2    C5    A    
H3    O9    S    
C9    N2    A    
C3    C18   A    
C4    C6    A    
C15   C17   T    
C8    N1    A    
C3    S3    S    
C8    C9    A    
N2    Zn2   S    
C11   O14   A    
C2    S2    S    
O5    S2    D    
O16   Zn1   S    
C1    O15   A    
C7    N2    A    
C18   S1    S    
C12   C14   S    
C16   C17   S    
C3    C5    A    
