data_mof_unit_20727.cif
_audit_creation_date              2012-12-11T15:36:46-0500
_audit_creation_method            fapswitch 2.2
_symmetry_space_group_name_H-M    P1
_symmetry_Int_Tables_number       1
_space_group_crystal_system       triclinic
_cell_length_a                    15.050616
_cell_length_b                    15.058437
_cell_length_c                    34.777629
_cell_angle_alpha                 91.153151
_cell_angle_beta                  91.649157
_cell_angle_gamma                 60.12881
_cell_volume                      6831.83541544

loop_
_atom_site_label
_atom_site_type_symbol
_atom_type_description
_atom_site_fract_x
_atom_site_fract_y
_atom_site_fract_z
_atom_type_partial_charge
C1    C     C_R   0.610760 0.302553 0.444015 0.569359
C2    C     C_R   0.739680 0.688859 0.183129 -0.001053
C3    C     C_R   0.629430 0.121361 0.826389 0.011034
C4    C     C_R   0.695482 0.148968 0.846465 0.254084
C5    C     C_R   0.718399 0.123936 0.885270 -0.048447
C6    C     C_R   0.536908 0.201311 0.765038 -0.138026
C7    C     C_R   0.537464 0.209960 0.725201 -0.142022
C8    C     C_R   0.623201 0.140565 0.704022 0.014899
C9    C     C_R   0.706815 0.057336 0.723169 0.257698
C10   C     C_R   0.705974 0.050966 0.763154 -0.033025
C11   C     C_R   0.622435 0.123628 0.784174 -0.041316
C12   C     C_R   0.548649 0.182590 0.637515 -0.138094
C13   C     C_R   0.829551 0.630359 0.162542 -0.162278
C14   C     C_R   0.546141 0.219850 0.600954 -0.164414
C15   C     C_R   0.706593 0.217730 0.614997 0.240411
C16   C     C_R   0.708346 0.179570 0.651833 -0.109456
C17   C     C_R   0.628369 0.164524 0.663468 -0.021715
C18   C     C_R   0.622617 0.241348 0.589649 0.061100
C19   C     C_R   0.045840 0.738931 0.048702 0.532259
C20   C     C_R   0.747439 0.746621 0.064139 0.540565
C21   C     C_R   0.750811 0.040963 0.050563 0.574373
C22   C     C_R   0.016997 0.722527 0.939607 0.573049
C23   C     C_R   0.717170 0.729998 0.954975 0.539462
C24   C     C_R   0.830420 0.643795 0.123083 -0.143931
C25   C     C_R   0.721677 0.023964 0.941850 0.537820
C26   C     C_R   0.759564 0.590870 0.241644 -0.145978
C27   C     C_R   0.751746 0.584777 0.281054 -0.136501
C28   C     C_R   0.729239 0.669056 0.304999 -0.022456
C29   C     C_R   0.721450 0.758902 0.289257 0.315640
C30   C     C_R   0.729706 0.764953 0.249419 0.303964
C31   C     C_R   0.745080 0.681318 0.225363 -0.052662
C32   C     C_R   0.603308 0.732917 0.357464 -0.121613
C33   C     C_R   0.593748 0.610390 0.449442 0.566869
C34   C     C_R   0.570646 0.718106 0.392580 -0.167561
C35   C     C_R   0.738550 0.568717 0.404533 0.244790
C36   C     C_R   0.770300 0.584371 0.368889 -0.108098
C37   C     C_R   0.702224 0.664525 0.344990 -0.018582
C38   C     C_R   0.636167 0.634157 0.415821 0.060353
C39   C     C_R   0.101514 0.728356 0.085827 0.007435
C40   C     C_R   0.115497 0.648731 0.110295 -0.151906
C41   C     C_R   0.133365 0.653020 0.149447 -0.120828
C42   C     C_R   0.139873 0.735692 0.165109 -0.018714
C43   C     C_R   0.137573 0.809804 0.140751 -0.047338
C44   C     C_R   0.303932 0.591525 0.442212 0.571337
C45   C     C_R   0.120324 0.806143 0.101014 0.237021
C46   C     C_R   0.234220 0.734080 0.225172 -0.040486
C47   C     C_R   0.248567 0.721712 0.265010 0.225980
C48   C     C_R   0.170275 0.722403 0.287325 0.092860
C49   C     C_R   0.077977 0.739638 0.269383 0.264989
C50   C     C_R   0.066721 0.749693 0.229249 -0.126611
C51   C     C_R   0.145610 0.744162 0.207138 -0.063820
C52   C     C_R   0.209425 0.595579 0.339307 0.283841
C53   C     C_R   0.235725 0.565031 0.378307 0.224639
C54   C     C_R   0.223657 0.729313 0.393227 -0.189165
C55   C     C_R   0.605617 0.300164 0.553828 0.564595
C56   C     C_R   0.191243 0.761500 0.355646 -0.189784
C57   C     C_R   0.187877 0.693906 0.328352 0.073258
C58   C     C_R   0.250016 0.629938 0.404655 0.028314
C59   C     C_R   0.722918 0.101178 0.086614 0.017212
C60   C     C_R   0.800825 0.103492 0.108928 -0.184814
C61   C     C_R   0.783780 0.137359 0.146789 -0.174295
C62   C     C_R   0.688481 0.170410 0.163072 -0.033445
C63   C     C_R   0.605730 0.177299 0.140155 0.258902
C64   C     C_R   0.623435 0.142947 0.101450 0.294681
C65   C     C_R   0.635132 0.283919 0.222342 0.302639
C66   C     C_R   0.587811 0.606588 0.559070 0.567603
C67   C     C_R   0.628106 0.292599 0.262507 0.312400
C68   C     C_R   0.666325 0.202784 0.285156 -0.040789
C69   C     C_R   0.714111 0.106295 0.267553 -0.129380
C70   C     C_R   0.721578 0.097760 0.227825 -0.131784
C71   C     C_R   0.681433 0.185455 0.204979 -0.052250
C72   C     C_R   0.741318 0.176892 0.351300 -0.108500
C73   C     C_R   0.729481 0.198809 0.390960 0.253530
C74   C     C_R   0.544849 0.274184 0.381698 -0.174882
C75   C     C_R   0.557521 0.252810 0.342533 -0.120022
C76   C     C_R   0.655212 0.208357 0.327038 -0.018306
C77   C     C_R   0.297959 0.589183 0.551690 0.540272
C78   C     C_R   0.629698 0.252529 0.405885 0.058238
C79   C     C_R   0.691651 0.689305 0.920059 0.021261
C80   C     C_R   0.766787 0.597659 0.903249 -0.123507
C81   C     C_R   0.754317 0.573009 0.865381 -0.109640
C82   C     C_R   0.666439 0.639326 0.843761 0.031769
C83   C     C_R   0.587031 0.725632 0.861751 -0.117297
C84   C     C_R   0.599440 0.750358 0.899635 -0.120639
C85   C     C_R   0.571478 0.643999 0.782891 -0.044269
C86   C     C_R   0.564888 0.640383 0.742774 0.257192
C87   C     C_R   0.651153 0.620990 0.720887 0.020705
C88   C     C_R   0.741330 0.716579 0.103604 -0.031464
C89   C     C_R   0.742920 0.599992 0.739822 -0.138649
C90   C     C_R   0.748716 0.602308 0.779805 -0.126503
C91   C     C_R   0.662670 0.625801 0.801675 -0.017880
C92   C     C_R   0.711315 0.536763 0.657354 -0.134002
C93   C     C_R   0.697862 0.535107 0.617650 -0.158663
C94   C     C_R   0.560554 0.712884 0.619289 0.239707
C95   C     C_R   0.575034 0.713415 0.659440 -0.112140
C96   C     C_R   0.646731 0.624228 0.678564 -0.021442
C97   C     C_R   0.619128 0.620905 0.598421 0.058192
C98   C     C_R   0.062174 0.699837 0.901155 0.063115
C99   C     C_R   0.649760 0.770702 0.123800 -0.047234
C100  C     C_R   0.093777 0.763889 0.884309 0.242640
C101  C     C_R   0.114388 0.753751 0.844826 -0.109009
C102  C     C_R   0.104451 0.680666 0.822416 -0.002986
C103  C     C_R   0.080821 0.612418 0.840007 -0.135891
C104  C     C_R   0.060119 0.621736 0.879023 -0.171942
C105  C     C_R   0.168429 0.586505 0.760632 -0.126170
C106  C     C_R   0.175156 0.585535 0.720866 -0.135194
C107  C     C_R   0.125525 0.677221 0.700042 -0.000381
C108  C     C_R   0.067249 0.771550 0.719702 0.268216
C109  C     C_R   0.062284 0.771411 0.759718 -0.032058
C110  C     C_R   0.647388 0.757019 0.163268 0.267446
C111  C     C_R   0.112854 0.679430 0.780362 -0.016735
C112  C     C_R   0.200196 0.720111 0.646415 -0.147728
C113  C     C_R   0.243174 0.698713 0.610228 -0.142228
C114  C     C_R   0.176404 0.583839 0.597350 -0.050450
C115  C     C_R   0.130557 0.606689 0.633236 0.247248
C116  C     C_R   0.146909 0.671978 0.658793 -0.003475
C117  C     C_R   0.235366 0.627047 0.586144 -0.027433
C118  C     C_R   0.676444 0.072842 0.904585 -0.027462
C119  C     C_R   0.603883 0.054333 0.885351 -0.144176
C120  C     C_R   0.580888 0.078135 0.846429 -0.151951
Cr1   Cr    Cr6+3 0.426010 0.422500 0.497000 1.046925
Cr2   Cr    Cr6+3 0.651300 0.426310 0.501970 1.120995
Cr3   Cr    Cr6+3 0.422670 0.651170 0.501050 1.047354
Cr4   Cr    Cr6+3 0.905130 0.911420 0.992650 1.083139
Cr5   Cr    Cr6+3 0.911860 0.682710 0.002320 1.019363
Cr6   Cr    Cr6+3 0.682710 0.906840 0.004710 1.070284
H1    H     H_    0.580027 0.826404 0.109152 0.171798
H2    H     H_    0.492052 0.769501 0.400535 0.144408
H3    H     H_    0.900261 0.577434 0.177384 0.130291
H4    H     H_    0.104357 0.586619 0.099890 0.146591
H5    H     H_    0.295459 0.729152 0.207967 0.171385
H6    H     H_    0.146235 0.872118 0.152729 0.144662
H7    H     H_    0.231784 0.781330 0.413060 0.151273
H8    H     H_    0.877522 0.072099 0.098039 0.179465
H9    H     H_    0.490634 0.276179 0.323940 0.153532
H10   H     H_    0.846987 0.132390 0.164196 0.144857
H11   H     H_    0.744008 0.037442 0.284629 0.189733
H12   H     H_    0.467585 0.314987 0.392426 0.180962
H13   H     H_    0.838326 0.548478 0.918368 0.129413
H14   H     H_    0.540012 0.821337 0.911808 0.132675
H15   H     H_    0.505020 0.660564 0.799472 0.137460
H16   H     H_    0.809444 0.584684 0.723524 0.129641
H17   H     H_    0.768279 0.467836 0.671782 0.134445
H18   H     H_    0.744737 0.463845 0.602455 0.173060
H19   H     H_    0.036036 0.571718 0.891260 0.136474
H20   H     H_    0.208512 0.514837 0.776079 0.119278
H21   H     H_    0.017065 0.843514 0.774685 0.144708
H22   H     H_    0.214077 0.769446 0.665758 0.160260
H23   H     H_    0.288579 0.732827 0.602270 0.163479
H24   H     H_    0.072745 0.555444 0.823165 0.117813
H25   H     H_    0.570820 0.014492 0.899508 0.140385
H26   H     H_    0.769738 0.166009 0.672139 0.134980
H27   H     H_    0.473018 0.274205 0.711105 0.124759
H28   H     H_    0.472092 0.257857 0.781097 0.127602
H29   H     H_    0.771639 0.989819 0.778028 0.149446
O1    O     O_R   0.324990 0.503440 0.453910 -0.440457
O2    O     O_R   0.639980 0.519500 0.542640 -0.515297
O3    O     O_R   0.500750 0.673190 0.545480 -0.445380
O4    O     O_R   0.336260 0.640450 0.538210 -0.496235
O5    O     O_3   0.499990 0.499990 0.500010 -0.279023
O6    O     O_R   0.834210 0.019400 0.034570 -0.515544
O7    O     O_R   0.002210 0.824620 0.031030 -0.483336
O8    O     O_R   0.024400 0.669340 0.039790 -0.520545
O9    O     O_R   0.830490 0.694950 0.045870 -0.500038
O10   O     O_R   0.675430 0.831160 0.051290 -0.501707
O11   O     O_R   0.698870 0.998880 0.039560 -0.438936
O12   O     O_R   0.522030 0.339050 0.458320 -0.518490
O13   O     O_R   0.811290 0.006780 0.950620 -0.505399
O14   O     O_R   0.980960 0.812920 0.953200 -0.435511
O15   O     O_R   0.001480 0.656720 0.955830 -0.533892
O16   O     O_R   0.809240 0.683250 0.968050 -0.503746
O17   O     O_R   0.652500 0.818540 0.967340 -0.516797
O18   O     O_R   0.677620 0.987170 0.961730 -0.496264
O19   O     O_3   0.833240 0.833660 0.999890 -0.264173
O20   O     O_R   0.676180 0.324490 0.458320 -0.434198
O21   O     O_R   0.643570 0.521510 0.464260 -0.434122
O22   O     O_R   0.504630 0.675350 0.460920 -0.532081
O23   O     O_R   0.339850 0.642450 0.459830 -0.520066
O24   O     O_R   0.321120 0.501280 0.538470 -0.516687
O25   O     O_R   0.518440 0.337050 0.536710 -0.523067
O26   O     O_R   0.672300 0.322330 0.542880 -0.439364
O27   O     O_3   0.805288 0.488977 0.428034 -0.665941
H30   H     H_    0.873041 0.451079 0.415751 0.324304
O28   O     O_3   0.119156 0.881154 0.078588 -0.687417
H31   H     H_    0.138505 0.853393 0.052197 0.340519
H32   H     H_    0.174590 0.837227 0.347210 0.136536
O29   O     O_3   0.341939 0.703893 0.280153 -0.672106
H33   H     H_    0.346968 0.689157 0.307914 0.329383
H34   H     H_    0.137683 0.593773 0.167898 0.143334
O30   O     O_3   0.001858 0.742215 0.291501 -0.662304
H35   H     H_    0.942702 0.754534 0.274562 0.338583
H36   H     H_    0.902314 0.601345 0.108311 0.143105
H37   H     H_    0.997932 0.758116 0.215002 0.111092
O31   O     O_3   0.209851 0.529745 0.310945 -0.676837
H38   H     H_    0.258574 0.458359 0.318663 0.327258
O32   O     O_3   0.250527 0.472113 0.390877 -0.698732
H39   H     H_    0.206983 0.452901 0.374966 0.333245
O33   O     O_3   0.546302 0.146408 0.077748 -0.673864
H40   H     H_    0.480419 0.179565 0.091295 0.375986
O34   O     O_3   0.584150 0.390109 0.278245 -0.629139
H41   H     H_    0.598447 0.386229 0.306272 0.319874
O35   O     O_3   0.596210 0.373348 0.201442 -0.631245
H42   H     H_    0.609077 0.357311 0.173758 0.325639
H43   H     H_    0.847023 0.532134 0.359119 0.111373
H44   H     H_    0.757612 0.022273 0.214673 0.163491
H45   H     H_    0.816907 0.140574 0.339021 0.105861
O36   O     O_3   0.813346 0.172255 0.415116 -0.661968
H46   H     H_    0.876751 0.135678 0.400011 0.322172
O37   O     O_3   0.509267 0.211645 0.154755 -0.696051
H47   H     H_    0.505770 0.237139 0.181381 0.349228
H48   H     H_    0.527579 0.781954 0.676052 0.121963
H49   H     H_    0.757573 0.515778 0.292676 0.149690
O38   O     O_3   0.473552 0.655597 0.726515 -0.709210
H50   H     H_    0.484110 0.632180 0.699403 0.330658
H51   H     H_    0.815684 0.504844 0.852346 0.116827
H52   H     H_    0.819481 0.589759 0.793574 0.117897
H53   H     H_    0.518545 0.778215 0.845698 0.108416
O39   O     O_3   0.487352 0.799534 0.600398 -0.674299
H54   H     H_    0.453332 0.856226 0.619281 0.319442
O40   O     O_3   0.101559 0.836971 0.906505 -0.681357
H55   H     H_    0.124022 0.875120 0.890197 0.320342
H56   H     H_    0.772071 0.526430 0.223523 0.156034
O41   O     O_3   0.074158 0.560993 0.642609 -0.701338
H57   H     H_    0.033684 0.595034 0.665716 0.331622
H58   H     H_    0.221679 0.513070 0.706304 0.141810
H59   H     H_    0.135808 0.804434 0.831350 0.102440
O42   O     O_3   0.014713 0.864735 0.701283 -0.661411
H60   H     H_    0.009796 0.853298 0.673375 0.336615
O43   O     O_3   0.554480 0.813475 0.181141 -0.663503
H61   H     H_    0.559532 0.787844 0.207533 0.348191
H62   H     H_    0.168182 0.529848 0.578635 0.161596
H63   H     H_    0.773388 0.140185 0.899850 0.162998
H64   H     H_    0.530308 0.056727 0.831326 0.126325
O44   O     O_3   0.790723 0.982016 0.704263 -0.669398
H65   H     H_    0.774397 0.984863 0.676389 0.334090
H66   H     H_    0.486460 0.171089 0.646051 0.130647
O45   O     O_3   0.705530 0.842363 0.311582 -0.649442
H67   H     H_    0.717892 0.822671 0.339018 0.327735
H68   H     H_    0.481209 0.236395 0.582129 0.144700
O46   O     O_3   0.742947 0.195604 0.829110 -0.698088
H69   H     H_    0.711960 0.219899 0.803255 0.336597
O47   O     O_3   0.783250 0.236548 0.604150 -0.677907
H70   H     H_    0.835020 0.216704 0.625343 0.320574
O48   O     O_3   0.721214 0.854124 0.235300 -0.657606
H71   H     H_    0.742617 0.843857 0.208193 0.317042
H72   H     H_    0.549555 0.794658 0.339050 0.159361

loop_
_geom_bond_atom_site_label_1
_geom_bond_atom_site_label_2
_ccdc_geom_bond_type
C15   C18   A    
C75   C76   A    
C101  C102  A    
C22   C98   S    
Cr1   O1    S    
C64   O33   S    
C41   C42   A    
C14   C18   A    
C105  C106  A    
C95   C96   A    
C3    C11   S    
C94   O39   S    
C72   C76   A    
Cr6   O10   S    
C25   C118  S    
C33   O21   A    
C92   C93   A    
C90   H52   S    
O28   H31   S    
O39   H54   S    
C7    C8    A    
Cr1   O24   S    
C109  H21   S    
O38   H50   S    
O48   H71   S    
C70   H44   S    
C20   O10   A    
C74   H12   S    
O42   H60   S    
C59   C64   A    
C77   O24   A    
C60   C61   A    
C66   C97   S    
C115  O41   S    
C36   C37   A    
C100  C101  A    
C21   C59   S    
C77   C117  S    
C69   C70   A    
C109  C111  A    
C14   H68   S    
C83   H53   S    
C50   H37   S    
C98   C104  A    
C112  C116  A    
Cr4   O19   S    
C106  C107  A    
C1    O12   A    
C89   H16   S    
C20   O9    A    
C92   C96   A    
C108  C109  A    
C55   O25   A    
C45   O28   S    
C92   H17   S    
C2    C13   A    
O27   H30   S    
C112  C113  A    
C103  H24   S    
C118  C119  A    
Cr2   O26   S    
C2    C110  A    
C23   O17   A    
C47   C48   A    
C42   C43   A    
C44   C58   S    
C16   C17   A    
C65   C67   A    
Cr1   O5    S    
C12   C17   A    
C26   H56   S    
C48   C49   A    
C107  C108  A    
O33   H40   S    
C9    C10   A    
C46   H5    S    
C56   C57   A    
Cr6   O19   S    
Cr3   O22   S    
C42   C51   S    
C39   C45   A    
O31   H38   S    
C105  C111  A    
C15   O47   S    
C85   C91   A    
C59   C60   A    
Cr4   O13   S    
O45   H67   S    
C69   H11   S    
C1    C78   S    
C102  C111  S    
Cr5   O8    S    
C63   O37   S    
Cr3   O23   S    
Cr5   O19   S    
C29   O45   S    
O40   H55   S    
O43   H61   S    
C81   C82   A    
Cr1   O25   S    
Cr4   O7    S    
C25   O13   A    
C119  H25   S    
Cr1   O12   S    
C54   C56   A    
C106  H58   S    
C21   O6    A    
O35   H42   S    
Cr4   O14   S    
C63   C64   A    
C33   O22   A    
C102  C103  A    
C44   O1    A    
C113  H23   S    
C48   C57   S    
C35   C38   A    
C52   O31   S    
O41   H57   S    
O37   H47   S    
C67   O34   S    
C74   C75   A    
C44   O23   A    
C39   C40   A    
C88   C99   A    
C86   C87   A    
C8    C9    A    
C72   H45   S    
C49   O30   S    
C94   C97   A    
C85   C86   A    
C99   C110  A    
C46   C51   A    
C15   C16   A    
C21   O11   A    
O36   H46   S    
C13   C24   A    
C32   H72   S    
C2    C31   S    
C35   O27   S    
C35   C36   A    
C32   C34   A    
C67   C68   A    
O30   H35   S    
C29   C30   A    
C110  O43   S    
C25   O18   A    
C120  H64   S    
C43   C45   A    
C93   C97   A    
C83   C84   A    
C7    H27   S    
C115  C116  A    
C30   C31   A    
C73   C78   A    
C87   C96   S    
C62   C63   A    
C50   C51   A    
C55   O26   A    
C5    H63   S    
C94   C95   A    
C24   H36   S    
C19   O8    A    
C32   C37   A    
C119  C120  A    
Cr5   O15   S    
C24   C88   A    
C84   H14   S    
C22   O15   A    
Cr6   O18   S    
C19   C39   S    
C18   C55   S    
C77   O4    A    
C113  C117  A    
C40   C41   A    
Cr3   O3    S    
C56   H32   S    
C49   C50   A    
C98   C100  A    
C6    C11   A    
C26   C27   A    
C80   C81   A    
Cr5   O9    S    
C68   C76   S    
O44   H65   S    
C85   H15   S    
C3    C4    A    
C28   C29   A    
C60   H8    S    
C66   O3    A    
C70   C71   A    
C52   C53   A    
Cr4   O6    S    
C54   C58   A    
C3    C120  A    
C12   H66   S    
C40   H4    S    
C46   C47   A    
C1    O20   A    
C13   H3    S    
O47   H70   S    
C9    O44   S    
C34   C38   A    
C26   C31   A    
C104  H19   S    
C68   C69   A    
C33   C38   S    
C12   C14   A    
O32   H39   S    
Cr6   O11   S    
C10   H29   S    
C52   C57   A    
C99   H1    S    
C53   C58   A    
C16   H26   S    
C114  C115  A    
C6    C7    A    
C108  O42   S    
C4    O46   S    
C80   H13   S    
Cr2   O20   S    
C74   C78   A    
C114  H62   S    
C8    C17   S    
C41   H34   S    
C5    C118  A    
C95   H48   S    
C87   C89   A    
C86   O38   S    
O29   H33   S    
C65   C71   A    
C6    H28   S    
O46   H69   S    
C54   H7    S    
C90   C91   A    
C79   C84   A    
Cr3   O4    S    
C28   C37   S    
O34   H41   S    
C72   C73   A    
Cr2   O21   S    
C105  H20   S    
C20   C88   S    
C93   H18   S    
C27   H49   S    
Cr2   O2    S    
C43   H6    S    
C62   C71   S    
C75   H9    S    
C73   O36   S    
C61   C62   A    
Cr5   O16   S    
C107  C116  S    
C114  C117  A    
Cr6   O17   S    
C10   C11   A    
C82   C91   S    
C79   C80   A    
C81   H51   S    
C112  H22   S    
C4    C5    A    
C23   O16   A    
C100  O40   S    
C34   H2    S    
C82   C83   A    
Cr3   O5    S    
C22   O14   A    
C103  C104  A    
C53   O32   S    
Cr2   O5    S    
C101  H59   S    
C30   O48   S    
C36   H43   S    
C23   C79   S    
C89   C90   A    
C47   O29   S    
C19   O7    A    
C66   O2    A    
C65   O35   S    
C61   H10   S    
C27   C28   A    
