data_mof_unit_18734.cif
_audit_creation_date              2013-03-05T16:22:27-0500
_audit_creation_method            fapswitch 2.2
_symmetry_space_group_name_H-M    P1
_symmetry_Int_Tables_number       1
_space_group_crystal_system       triclinic
_cell_length_a                    15.750997
_cell_length_b                    10.536554
_cell_length_c                    9.783173
_cell_angle_alpha                 90.243583
_cell_angle_beta                  90.466262
_cell_angle_gamma                 89.616543
_cell_volume                      1623.52300739

loop_
_atom_site_label
_atom_site_type_symbol
_atom_site_description
_atom_site_fract_x
_atom_site_fract_y
_atom_site_fract_z
_atom_type_partial_charge
O1    O     O_R   0.500000 0.313960 0.616610 -0.578841
O2    O     O_R   0.500000 0.686040 0.383390 -0.578828
O3    O     O_R   0.500040 0.313950 0.383350 -0.646561
O4    O     O_R   0.499960 0.686050 0.616650 -0.646562
C1    C     C_R   0.499874 0.258106 0.499651 1.002508
C2    C     C_R   0.500123 0.741894 0.500349 1.002553
O5    O     O_R   0.376760 0.499990 0.616610 -0.596737
O6    O     O_R   0.623240 0.500010 0.383390 -0.596708
O7    O     O_R   0.376790 0.499980 0.383350 -0.626798
O8    O     O_R   0.623210 0.500020 0.616650 -0.626826
C3    C     C_R   0.338296 0.500219 0.499438 0.931724
C4    C     C_R   0.661704 0.499781 0.500562 0.931711
Zn1   Zn    Zn3+2 0.499980 0.500010 0.655740 1.001034
Zn2   Zn    Zn3+2 0.500020 0.499990 0.344260 1.001057
C5    C     C_3   0.973722 0.385722 0.534612 0.239224
C6    C     C_3   0.026279 0.614275 0.465391 0.239211
C7    C     C_3   0.028842 0.412244 0.407697 -0.334285
C8    C     C_3   0.971159 0.587753 0.592306 -0.334267
H1    H     H_    0.052126 0.341000 0.332680 0.227650
H2    H     H_    0.947875 0.658997 0.667323 0.227669
C9    C     C_1   0.249711 0.500432 0.498207 -0.055524
C10   C     C_1   0.750289 0.499567 0.501794 -0.055537
C11   C     C_3   0.029088 0.471951 0.623471 0.261183
C12   C     C_3   0.970914 0.528046 0.376532 0.261169
C13   C     C_3   0.084030 0.500563 0.498706 -0.116672
C14   C     C_3   0.915972 0.499434 0.501297 -0.116672
C15   C     C_1   0.174641 0.500614 0.497897 0.174666
C16   C     C_1   0.825359 0.499384 0.502105 0.174673
C17   C     C_3   0.569357 0.041798 0.562114 0.236328
C18   C     C_3   0.430633 0.958203 0.437886 0.236300
C19   C     C_3   0.568038 0.958618 0.434037 0.272207
C20   C     C_3   0.431954 0.041384 0.565963 0.272230
C21   C     C_3   0.500805 0.876011 0.501138 -0.262024
C22   C     C_3   0.499186 0.123990 0.498863 -0.262031
C23   C     C_3   0.502218 0.958911 0.632383 -0.362391
C24   C     C_3   0.497773 0.041089 0.367617 -0.362431
H3    H     H_    0.504138 0.924939 0.739638 0.198899
H4    H     H_    0.495851 0.075066 0.260364 0.198922
C25   C     C_3   0.444339 0.423386 0.046134 0.165697
C26   C     C_3   0.555661 0.576614 0.953866 0.165687
C27   C     C_3   0.517192 0.387838 0.950765 -0.091227
C28   C     C_3   0.482807 0.612161 0.049234 -0.091234
H5    H     H_    0.530908 0.293424 0.905156 0.185054
H6    H     H_    0.469086 0.706575 0.094842 0.185031
N1    N     N_3   0.499940 0.500030 0.863290 -0.107939
N2    N     N_3   0.500060 0.499970 0.136710 -0.107926
C29   C     C_3   0.426562 0.534848 0.950299 -0.088088
C30   C     C_3   0.573439 0.465152 0.049701 -0.088033
H7    H     H_    0.364770 0.563444 0.904087 0.174156
H8    H     H_    0.635231 0.436560 0.095913 0.174147
N3    N     N_R   0.946628 0.259654 0.575616 0.258592
O9    O     O_R   0.003059 0.171830 0.600006 -0.260836
O10   O     O_R   0.866479 0.234288 0.588882 -0.285558
N4    N     N_R   0.053374 0.740343 0.424386 0.258593
O11   O     O_R   0.996943 0.828168 0.400000 -0.260836
O12   O     O_R   0.133522 0.765704 0.411109 -0.285553
N5    N     N_R   0.940698 0.561571 0.240053 0.257865
O13   O     O_R   0.995091 0.583862 0.143962 -0.283736
O14   O     O_R   0.859840 0.569405 0.213280 -0.360226
N6    N     N_R   0.059304 0.438425 0.759950 0.257853
O15   O     O_R   0.004911 0.416134 0.856041 -0.283754
O16   O     O_R   0.140162 0.430585 0.786721 -0.360209
N7    N     N_R   0.643550 0.914626 0.362149 0.234384
O17   O     O_R   0.689167 0.995264 0.294969 -0.325059
O18   O     O_R   0.667629 0.796537 0.368637 -0.399406
N8    N     N_R   0.356444 0.085379 0.637854 0.234399
O19   O     O_R   0.310828 0.004745 0.705041 -0.325080
O20   O     O_R   0.332361 0.203461 0.631354 -0.399413
N9    N     N_R   0.645054 0.090045 0.630941 0.216446
O21   O     O_R   0.720161 0.056242 0.589727 -0.262827
O22   O     O_R   0.637675 0.158856 0.740869 -0.393236
N10   N     N_R   0.354932 0.909957 0.369070 0.216468
O23   O     O_R   0.279834 0.943800 0.410251 -0.262894
O24   O     O_R   0.362296 0.841020 0.259246 -0.393091
C31   C     C_3   0.377996 0.333007 0.102843 -0.435905
C32   C     C_3   0.333699 0.258894 0.987935 -0.379127
C33   C     C_3   0.266499 0.170423 0.045010 -0.608895
H9    H     H_    0.296068 0.101082 0.116616 0.266992
H10   H     H_    0.216986 0.226002 0.099698 0.262313
H11   H     H_    0.235799 0.117474 0.959795 0.297205
H12   H     H_    0.302758 0.326004 0.915321 0.282557
H13   H     H_    0.381187 0.201229 0.931067 0.249003
H14   H     H_    0.409639 0.265222 0.173391 0.225627
H15   H     H_    0.330120 0.389062 0.160311 0.240516
C34   C     C_3   0.621979 0.667029 0.897149 -0.435828
C35   C     C_3   0.666330 0.741074 0.012070 -0.379168
C36   C     C_3   0.733312 0.829884 0.954959 -0.609020
H16   H     H_    0.782707 0.774640 0.899663 0.262270
H17   H     H_    0.703495 0.899460 0.883921 0.267012
H18   H     H_    0.764203 0.882540 0.040193 0.297210
H19   H     H_    0.618846 0.798485 0.069243 0.249117
H20   H     H_    0.697470 0.673916 0.084415 0.282571
H21   H     H_    0.669838 0.611011 0.839589 0.240486
H22   H     H_    0.590296 0.734855 0.826680 0.225631

loop_
_geom_bond_atom_site_label_1
_geom_bond_atom_site_label_2
_geom_bond_distance
_ccdc_geom_bond_type
N8    O20   1.299955 A    
C36   H16   1.111262 S    
N7    O18   1.299997 A    
N10   O24   1.299892 A    
C8    C14   1.550972 S    
C31   C32   1.532125 S    
C29   H7    1.110183 S    
C33   H9    1.111739 S    
O5    C3    1.292202 A    
O1    C1    1.284472 A    
C25   C29   1.528858 S    
C23   H3    1.110221 S    
C12   C14   1.534102 S    
C35   H19   1.111762 S    
C31   H15   1.109831 S    
N5    O14   1.300306 A    
C4    C10   1.395254 S    
N6    O16   1.300310 A    
C28   N2    1.484629 S    
N1    C29   1.484144 S    
O4    Zn1   1.998769 S    
N9    O22   1.300010 A    
C26   C30   1.528857 S    
C21   C23   1.549957 S    
C34   H21   1.109897 S    
C12   N5    1.457895 S    
C19   C21   1.529201 S    
C25   C31   1.527686 S    
C18   C20   1.526130 S    
C22   C24   1.549965 S    
C5    C11   1.527501 S    
N8    O19   1.300268 A    
C9    C15   1.182392 T    
C6    C12   1.527500 S    
C10   C16   1.182395 T    
C27   H5    1.109200 S    
O2    C2    1.284475 A    
C28   H6    1.109202 S    
C17   N9    1.457924 S    
C33   H10   1.111491 S    
C11   N6    1.457896 S    
N4    O12   1.299785 A    
C7    C12   1.548544 S    
C8    C11   1.548546 S    
C20   C23   1.543514 S    
C19   N7    1.458626 S    
C32   C33   1.525898 S    
C25   C27   1.528492 S    
C32   H13   1.111751 S    
C35   C36   1.525830 S    
C5    C14   1.533976 S    
C34   C35   1.532244 S    
C17   C22   1.528106 S    
C3    C9    1.395248 S    
N3    O9    1.300259 A    
N6    O15   1.300227 A    
Zn2   N2    2.030501 S    
C20   C22   1.529192 S    
C26   C34   1.527682 S    
O7    Zn2   1.981362 S    
C34   H22   1.108545 S    
O6    C4    1.292205 A    
C1    C22   1.413225 S    
C30   H8    1.110183 S    
O7    C3    1.291746 A    
O3    Zn2   1.998770 S    
O8    C4    1.291747 A    
C25   N2    1.482357 S    
O4    C2    1.283180 A    
C5    N3    1.456844 S    
C36   H17   1.111480 S    
O1    Zn1   1.995756 S    
C20   N8    1.458625 S    
C33   H11   1.110489 S    
C6    C13   1.533974 S    
C5    C7    1.548304 S    
N4    O11   1.300262 A    
O6    Zn2   1.975174 S    
C18   C21   1.528118 S    
N10   O23   1.299814 A    
O3    C1    1.283181 A    
O8    Zn1   1.981364 S    
C32   H12   1.111849 S    
C18   N10   1.457929 S    
C13   C15   1.427316 S    
C17   C23   1.543677 S    
C14   C16   1.427322 S    
C2    C21   1.413227 S    
C18   C24   1.543681 S    
C7    C13   1.550970 S    
C24   H4    1.110220 S    
C17   C19   1.526126 S    
C35   H20   1.111842 S    
Zn1   N1    2.030502 S    
C31   H14   1.108471 S    
N5    O13   1.300228 A    
C26   C28   1.528497 S    
C7    H1    1.110241 S    
C27   C30   1.540890 S    
C8    H2    1.110242 S    
C28   C29   1.540864 S    
C11   C13   1.534102 S    
N9    O21   1.299940 A    
O2    Zn2   1.995754 S    
C6    N4    1.456845 S    
N7    O17   1.300281 A    
N2    C30   1.484156 S    
O5    Zn1   1.975172 S    
C26   N1    1.482357 S    
C6    C8    1.548306 S    
C36   H18   1.110393 S    
C27   N1    1.484633 S    
C19   C24   1.543518 S    
N3    O10   1.299792 A    
