data_mof_unit_33847.cif
_audit_creation_date              2012-12-10T19:47:23-0500
_audit_creation_method            fapswitch 2.2
_symmetry_space_group_name_H-M    P1
_symmetry_Int_Tables_number       1
_space_group_crystal_system       triclinic
_cell_length_a                    10.865514
_cell_length_b                    10.827722
_cell_length_c                    12.720916
_cell_angle_alpha                 92.019905
_cell_angle_beta                  92.342303
_cell_angle_gamma                 90.114849
_cell_volume                      1494.4115953

loop_
_atom_site_label
_atom_site_type_symbol
_atom_type_description
_atom_site_fract_x
_atom_site_fract_y
_atom_site_fract_z
_atom_type_partial_charge
C1    C     C_R   0.261910 0.502310 0.501100 0.784007
C2    C     C_R   0.738090 0.497709 0.498899 0.784061
C3    C     C_R   0.495333 0.871591 0.497486 -0.077091
C4    C     C_R   0.504646 0.128409 0.502512 -0.077082
C5    C     C_R   0.432298 0.936092 0.417425 -0.000883
C6    C     C_R   0.567688 0.063908 0.582566 -0.000890
C7    C     C_R   0.187826 0.567027 0.874675 -0.116771
C8    C     C_R   0.812092 0.433358 0.125333 -0.116744
C9    C     C_R   0.124922 0.524002 0.782583 -0.129772
C10   C     C_R   0.874930 0.476348 0.217465 -0.129660
C11   C     C_R   0.127777 0.592049 0.690740 0.122441
C12   C     C_R   0.872234 0.408125 0.309220 0.122517
C13   C     C_R   0.191845 0.705016 0.692840 -0.093744
C14   C     C_R   0.808368 0.295040 0.306999 -0.093948
C15   C     C_R   0.255106 0.747429 0.785034 -0.124661
C16   C     C_R   0.745178 0.252657 0.214761 -0.124804
C17   C     C_R   0.253364 0.678167 0.875605 -0.154446
C18   C     C_R   0.746777 0.322080 0.124274 -0.154460
C19   C     C_R   0.937485 0.538665 0.588724 -0.254772
C20   C     C_R   0.062515 0.461407 0.411267 -0.254769
C21   C     C_R   0.871755 0.496180 0.497463 -0.081215
C22   C     C_R   0.128245 0.503881 0.502529 -0.081222
C23   C     C_R   0.503070 0.262032 0.501207 0.784886
C24   C     C_R   0.496922 0.737967 0.498792 0.784817
C25   C     C_R   0.935004 0.456412 0.407624 -0.005427
C26   C     C_R   0.064997 0.543685 0.592361 -0.005358
C27   C     C_2   0.475810 0.455585 0.029935 0.302463
C28   C     C_2   0.524189 0.544415 0.970065 0.302380
C29   C     C_1   0.521680 0.528429 0.852697 0.173444
C30   C     C_1   0.478316 0.471571 0.147303 0.173476
C31   C     C_R   0.816568 0.257696 0.727239 -0.119951
C32   C     C_R   0.183532 0.742255 0.272637 -0.119970
C33   C     C_R   0.741637 0.204675 0.645727 -0.089306
C34   C     C_R   0.258423 0.795265 0.354180 -0.089189
C35   C     C_R   0.644601 0.125071 0.668442 0.118085
C36   C     C_R   0.355426 0.874934 0.331516 0.118060
C37   C     C_R   0.625825 0.097306 0.773713 -0.129489
C38   C     C_R   0.374201 0.902777 0.226261 -0.129535
C39   C     C_R   0.702085 0.148937 0.854712 -0.119253
C40   C     C_R   0.297975 0.851162 0.145232 -0.119175
C41   C     C_R   0.796843 0.229915 0.831687 -0.135843
C42   C     C_R   0.203255 0.770116 0.168208 -0.135846
C43   C     C_R   0.561370 0.935732 0.579015 -0.241273
C44   C     C_R   0.438605 0.064270 0.420986 -0.241239
Cu1   Cu    Cu3+1 0.492140 0.492110 0.395880 0.988979
Cu2   Cu    Cu3+1 0.507860 0.507890 0.604120 0.988980
H1    H     H_    0.855729 0.270126 0.894583 0.122942
H2    H     H_    0.144396 0.729916 0.105288 0.122922
H3    H     H_    0.194327 0.758866 0.622860 0.095975
H4    H     H_    0.806012 0.241058 0.376912 0.096082
H5    H     H_    0.306297 0.833363 0.786039 0.119181
H6    H     H_    0.694162 0.166613 0.213652 0.119163
H7    H     H_    0.889400 0.570668 0.657575 0.160932
H8    H     H_    0.110598 0.429406 0.342413 0.160959
H9    H     H_    0.890825 0.319101 0.709282 0.126479
H10   H     H_    0.109305 0.680794 0.290556 0.126450
H11   H     H_    0.759734 0.224921 0.565098 0.084694
H12   H     H_    0.240320 0.774958 0.434793 0.084656
H13   H     H_    0.552717 0.034836 0.792973 0.114724
H14   H     H_    0.447279 0.965300 0.207037 0.114734
H15   H     H_    0.688067 0.124805 0.935109 0.117209
H16   H     H_    0.311988 0.875359 0.064850 0.117214
H17   H     H_    0.611857 0.885233 0.638954 0.152127
H18   H     H_    0.388119 0.114773 0.361048 0.152121
H19   H     H_    0.304263 0.709463 0.946142 0.135090
H20   H     H_    0.695940 0.290801 0.053702 0.135006
H21   H     H_    0.186985 0.513592 0.944987 0.140098
H22   H     H_    0.812816 0.486921 0.055087 0.140175
H23   H     H_    0.075904 0.436836 0.782286 0.115014
H24   H     H_    0.923782 0.563615 0.217862 0.115011
N1    N     N_1   0.480320 0.480250 0.239400 -0.155343
N2    N     N_1   0.519680 0.519750 0.760600 -0.155338
O1    O     O_R   0.313000 0.493330 0.412070 -0.587045
O2    O     O_R   0.687000 0.506670 0.587930 -0.587029
O3    O     O_R   0.326280 0.506660 0.587930 -0.560443
O4    O     O_R   0.673720 0.493340 0.412070 -0.560458
O5    O     O_R   0.493370 0.312980 0.412070 -0.590036
O6    O     O_R   0.506630 0.687020 0.587930 -0.590057
O7    O     O_R   0.506650 0.326310 0.587930 -0.557070
O8    O     O_R   0.493350 0.673690 0.412070 -0.557081
O9    O     O_3   0.574559 0.649346 0.023210 -0.597317
C45   C     C_3   0.612900 0.740218 0.954653 -0.347225
H25   H     H_    0.534428 0.772685 0.904000 0.154971
H26   H     H_    0.689369 0.705519 0.906252 0.164040
H27   H     H_    0.648270 0.821166 0.002665 0.190532
O10   O     O_3   0.425408 0.350669 0.976792 -0.597273
C46   C     C_3   0.387425 0.259638 0.045348 -0.347109
H28   H     H_    0.311002 0.294123 0.093903 0.164116
H29   H     H_    0.466076 0.227281 0.095853 0.154889
H30   H     H_    0.352119 0.178666 0.997332 0.190507

loop_
_geom_bond_atom_site_label_1
_geom_bond_atom_site_label_2
_ccdc_geom_bond_type
C46   H28   S    
Cu1   N1    S    
O9    C45   S    
C43   H17   S    
C39   C41   A    
Cu1   Cu2   S    
C44   H18   S    
C3    C43   A    
Cu1   O4    S    
C28   C29   S    
C35   C37   A    
C9    H23   S    
Cu2   O7    S    
C20   C25   A    
C5    C36   S    
C40   H16   S    
C6    C35   S    
Cu1   O1    S    
C19   C26   A    
C24   O8    A    
C7    C17   A    
C31   C33   A    
C15   H5    S    
Cu2   N2    S    
C2    O2    A    
C29   N2    T    
C19   H7    S    
C40   C42   A    
C1    C22   S    
C27   C30   S    
C3    C24   S    
Cu2   O3    S    
C30   N1    T    
C39   H15   S    
C1    O3    A    
C20   H8    S    
Cu2   O6    S    
C4    C23   S    
O10   C46   S    
C4    C44   A    
C11   C26   S    
C8    C18   A    
C32   C34   A    
C27   O10   S    
C2    C21   S    
C41   H1    S    
C16   C18   A    
C42   H2    S    
C23   O5    A    
C13   H3    S    
C9    C11   A    
C37   H13   S    
C10   C12   A    
C38   H14   S    
C10   H24   S    
C4    C6    A    
C5    C44   A    
C12   C14   A    
C8    H22   S    
C45   H26   S    
C6    C43   A    
C13   C15   A    
C14   C16   A    
Cu2   O2    S    
C2    O4    A    
C24   O6    A    
C15   C17   A    
C21   C25   A    
C33   H11   S    
C31   C41   A    
C19   C21   A    
C28   O9    S    
C16   H6    S    
C20   C22   A    
C3    C5    A    
C23   O7    A    
C18   H20   S    
C45   H27   S    
C17   H19   S    
C12   C25   S    
C1    O1    A    
C46   H29   S    
C37   C39   A    
C38   C40   A    
C11   C13   A    
C14   H4    S    
C36   C38   A    
C33   C35   A    
Cu1   O8    S    
C34   C36   A    
C7    H21   S    
C7    C9    A    
C8    C10   A    
C45   H25   S    
C22   C26   A    
C46   H30   S    
C27   C28   D    
C34   H12   S    
C32   C42   A    
Cu1   O5    S    
C31   H9    S    
C32   H10   S    
