data_mof_unit_31539.cif
_audit_creation_date              2012-10-26T19:57:55-0400
_audit_creation_method            fapswitch 2.2
_symmetry_space_group_name_H-M    P1
_symmetry_Int_Tables_number       1
_space_group_crystal_system       triclinic
_cell_length_a                    7.457735
_cell_length_b                    8.680914
_cell_length_c                    12.975342
_cell_angle_alpha                 88.0567
_cell_angle_beta                  78.651573
_cell_angle_gamma                 102.681187
_cell_volume                      800.894241041

loop_
_atom_site_label
_atom_site_type_symbol
_atom_type_description
_atom_site_fract_x
_atom_site_fract_y
_atom_site_fract_z
_atom_type_partial_charge
C1    C     C_R   0.452844 0.199690 0.503208 0.551959
C2    C     C_R   0.734850 0.582173 0.114888 0.229792
C3    C     C_R   0.600884 0.536757 0.857728 -0.133120
C4    C     C_R   0.399116 0.463243 0.142272 -0.133120
C5    C     C_R   0.587645 0.530894 0.965871 0.005313
C6    C     C_R   0.412355 0.469106 0.034129 0.005313
C7    C     C_2   0.426161 0.031930 0.504757 -0.135003
C8    C     C_2   0.573839 0.968070 0.495243 -0.135004
C9    C     C_R   0.547155 0.800310 0.496792 0.551959
C10   C     C_R   0.464368 0.491362 0.701804 0.568724
C11   C     C_R   0.535632 0.508638 0.298196 0.568724
C12   C     C_R   0.558684 0.518625 0.183724 0.015524
C13   C     C_R   0.441316 0.481374 0.816276 0.015524
C14   C     C_R   0.252549 0.413125 0.993494 -0.050081
C15   C     C_R   0.747451 0.586875 0.006506 -0.050081
C16   C     C_R   0.265150 0.417827 0.885112 0.229793
Cl1   Cl    Cl    0.943432 0.663429 0.157974 -0.602258
Cl2   Cl    Cl    0.056568 0.336571 0.842026 -0.602258
Cu1   Cu    Cu3+1 0.686350 0.517570 0.488220 1.030613
Cu2   Cu    Cu3+1 0.313650 0.482430 0.511780 1.030613
H1    H     H_    0.263876 0.414135 0.194204 0.159776
H2    H     H_    0.736124 0.585865 0.805796 0.159776
H3    H     H_    0.117837 0.364587 0.046014 0.172722
H4    H     H_    0.882163 0.635413 0.953986 0.172722
H5    H     H_    0.933493 0.376118 0.583299 0.260016
H6    H     H_    0.066506 0.623881 0.416701 0.260016
H7    H     H_    0.283692 0.960594 0.513729 0.141877
H8    H     H_    0.716308 0.039406 0.486270 0.141877
N1    N     N_2   0.033570 0.455950 0.529530 -0.250205
N2    N     N_2   0.966430 0.544050 0.470470 -0.250205
O1    O     O_R   0.621060 0.286250 0.492350 -0.512642
O2    O     O_R   0.378940 0.713750 0.507650 -0.512642
O3    O     O_R   0.306310 0.256580 0.512240 -0.490712
O4    O     O_R   0.693690 0.743420 0.487760 -0.490712
O5    O     O_R   0.631800 0.512400 0.642670 -0.522104
O6    O     O_R   0.368200 0.487600 0.357330 -0.522104
O7    O     O_R   0.317060 0.482730 0.662570 -0.440190
O8    O     O_R   0.682940 0.517270 0.337430 -0.440190

loop_
_geom_bond_atom_site_label_1
_geom_bond_atom_site_label_2
_ccdc_geom_bond_type
C14   H3    S    
C11   O8    A    
C11   C12   S    
C10   O5    A    
Cu2   O7    S    
Cu1   O8    S    
C4    C12   A    
Cu1   Cu2   S    
C3    C13   A    
C2    C15   A    
C2    C12   A    
Cu1   O1    S    
C7    C8    D    
Cu1   O5    S    
C2    Cl1   S    
C4    H1    S    
N1    N2    D    
C10   O7    A    
Cu2   O3    S    
C4    C6    A    
C11   O6    A    
C9    O4    A    
H6    N2    S    
Cu2   N1    S    
H5    N1    S    
C5    C6    A    
C8    H8    S    
C14   C16   A    
C5    C15   A    
C6    C14   A    
C1    O3    A    
Cu2   O6    S    
C1    O1    A    
C7    H7    S    
C16   Cl2   S    
Cu2   O2    S    
C13   C16   A    
C15   H4    S    
C3    H2    S    
C9    O2    A    
C1    C7    S    
Cu1   N2    S    
Cu1   O4    S    
C8    C9    S    
C3    C5    A    
C10   C13   S    
