data_mof_unit_31147.cif
_audit_creation_date              2012-12-10T21:00:42-0500
_audit_creation_method            fapswitch 2.2
_symmetry_space_group_name_H-M    P1
_symmetry_Int_Tables_number       1
_space_group_crystal_system       triclinic
_cell_length_a                    18.215666
_cell_length_b                    18.034337
_cell_length_c                    18.300659
_cell_angle_alpha                 119.302968
_cell_angle_beta                  90.104879
_cell_angle_gamma                 120.022026
_cell_volume                      4290.10579794

loop_
_atom_site_label
_atom_site_type_symbol
_atom_type_description
_atom_site_fract_x
_atom_site_fract_y
_atom_site_fract_z
_atom_type_partial_charge
C1    C     C_R   0.112218 0.220039 0.610202 0.792151
C2    C     C_R   0.887799 0.779956 0.389794 0.790765
C3    C     C_3   0.007576 0.459077 0.418385 -0.248031
C4    C     C_3   0.992089 0.540675 0.581670 -0.191989
C5    C     C_3   0.412818 0.964359 0.985627 -0.292858
C6    C     C_3   0.587219 0.035607 0.014899 -0.295651
C7    C     C_3   0.480604 0.038190 0.961609 -0.278629
C8    C     C_3   0.519446 0.961726 0.038858 -0.249668
C9    C     C_3   0.550686 0.103063 0.052998 -0.130075
C10   C     C_3   0.449344 0.896890 0.947481 -0.114336
C11   C     C_3   0.483987 0.030026 0.076386 0.457273
C12   C     C_3   0.516085 0.969914 0.924135 0.487059
C13   C     C_3   0.414126 0.418599 0.449701 -0.077045
C14   C     C_3   0.585807 0.581453 0.550250 -0.077997
C15   C     C_3   0.494275 0.412091 0.461046 0.110356
C16   C     C_3   0.505630 0.587924 0.538858 0.105556
C17   C     C_3   0.550924 0.500491 0.449275 -0.078917
C18   C     C_3   0.449019 0.499547 0.550667 -0.079745
C19   C     C_3   0.471706 0.508105 0.437666 -0.151898
C20   C     C_3   0.528231 0.491906 0.562252 -0.154002
C21   C     C_R   0.227777 0.165533 0.787331 -0.183513
C22   C     C_R   0.772931 0.834517 0.212150 -0.184743
C23   C     C_R   0.392494 0.780870 0.888221 0.890172
C24   C     C_R   0.607508 0.219115 0.111935 0.883011
C25   C     C_R   0.184603 0.138749 0.706897 -0.093828
C26   C     C_R   0.815857 0.861815 0.292950 -0.097135
C27   C     C_R   0.092099 0.091522 0.680453 0.132367
C28   C     C_R   0.908224 0.908332 0.319416 0.131608
C29   C     C_R   0.043287 0.071441 0.735471 -0.221391
C30   C     C_R   0.957163 0.927164 0.264076 -0.218560
C31   C     C_R   0.085942 0.097401 0.816417 0.195699
C32   C     C_R   0.914748 0.900566 0.182704 0.197411
C33   C     C_R   0.179326 0.145802 0.842284 -0.115068
C34   C     C_R   0.821492 0.852976 0.156839 -0.115586
C35   C     C_R   0.987243 0.941196 0.533212 -0.231217
C36   C     C_R   0.012828 0.058776 0.466749 -0.230393
C37   C     C_R   0.943300 0.892274 0.444333 -0.052370
C38   C     C_R   0.056759 0.107714 0.555651 -0.053283
C39   C     C_R   0.955994 0.951759 0.410434 0.003370
C40   C     C_R   0.044110 0.048215 0.589541 0.003341
C41   C     C_R   0.671339 0.768104 0.918887 0.479440
C42   C     C_R   0.328860 0.230196 0.079419 0.460223
C43   C     C_R   0.627089 0.675248 0.916499 0.062295
C44   C     C_R   0.372588 0.323301 0.082255 0.073798
C45   C     C_R   0.105590 0.494710 0.884719 0.866098
C46   C     C_R   0.894489 0.505375 0.115360 0.857675
C47   C     C_R   0.589924 0.674276 0.984590 0.062404
C48   C     C_R   0.410312 0.325262 0.014695 0.061300
C49   C     C_R   0.597985 0.763488 0.052578 -0.202568
C50   C     C_R   0.402963 0.236610 0.946600 -0.195270
C51   C     C_R   0.643944 0.854348 0.055568 -0.236547
C52   C     C_R   0.357190 0.145359 0.942998 -0.229880
C53   C     C_R   0.679453 0.856431 0.988900 -0.211297
C54   C     C_R   0.321341 0.142401 0.009270 -0.254922
C55   C     C_R   0.592197 0.575601 0.038714 -0.277500
C56   C     C_R   0.407867 0.424349 0.961177 -0.280450
C57   C     C_R   0.550775 0.496161 0.052024 -0.049312
C58   C     C_R   0.449262 0.503843 0.947942 -0.050590
C59   C     C_R   0.457513 0.418552 0.012108 0.034952
C60   C     C_R   0.542550 0.581394 0.987777 0.035886
C61   C     C_R   0.051511 0.725520 0.879733 0.083604
C62   C     C_R   0.947437 0.273639 0.119551 0.094450
C63   C     C_R   0.066824 0.686201 0.923653 -0.263942
C64   C     C_R   0.932722 0.313572 0.075962 -0.268244
C65   C     C_R   0.001904 0.585600 0.900984 -0.017134
C66   C     C_R   0.998022 0.414273 0.099060 0.020774
C67   C     C_R   0.392236 0.499762 0.607866 0.803007
C68   C     C_R   0.607755 0.500260 0.392125 0.805620
C69   C     C_R   0.922247 0.520666 0.828864 0.427972
C70   C     C_R   0.077433 0.478708 0.171326 0.361873
C71   C     C_R   0.905918 0.560823 0.786775 -0.367587
C72   C     C_R   0.093345 0.437782 0.212810 -0.419081
C73   C     C_R   0.968053 0.663502 0.813185 0.392374
C74   C     C_R   0.030837 0.334994 0.185959 0.415727
C75   C     C_R   0.977642 0.572680 0.029077 0.174400
C76   C     C_R   0.022727 0.427731 0.971256 0.139649
C77   C     C_R   0.956862 0.511890 0.064065 -0.078166
C78   C     C_R   0.043506 0.488520 0.936293 -0.071447
C79   C     C_R   0.987702 0.447738 0.041457 0.017433
C80   C     C_R   0.012781 0.552773 0.958963 0.033123
C81   C     C_R   0.393627 0.501676 0.890586 0.791984
C82   C     C_R   0.606380 0.498321 0.109404 0.800289
C83   C     C_R   0.108561 0.499857 0.608051 0.912980
C84   C     C_R   0.891363 0.500077 0.391953 0.906010
C85   C     C_3   0.084220 0.556360 0.505526 0.397580
C86   C     C_3   0.915434 0.443421 0.494530 0.493880
C87   C     C_3   0.026490 0.598356 0.535119 -0.237387
C88   C     C_3   0.973162 0.401392 0.464940 -0.200172
C89   C     C_3   0.949177 0.499981 0.448604 -0.188216
C90   C     C_3   0.050539 0.499796 0.551440 -0.166716
H1    H     H_    0.048910 0.679181 0.562439 0.212054
H2    H     H_    0.950729 0.320566 0.437637 0.208195
H3    H     H_    0.215213 0.167928 0.904177 0.154513
H4    H     H_    0.785779 0.830470 0.094659 0.152111
H5    H     H_    0.298994 0.200550 0.806299 0.147240
H6    H     H_    0.701822 0.800030 0.193142 0.146695
H7    H     H_    0.222710 0.152009 0.664044 0.118847
H8    H     H_    0.777676 0.849432 0.336012 0.118576
H9    H     H_    0.971253 0.032550 0.713826 0.139330
H10   H     H_    0.029101 0.965450 0.285721 0.142207
H11   H     H_    0.979519 0.895769 0.559025 0.178867
H12   H     H_    0.020590 0.104164 0.440882 0.179020
H13   H     H_    0.712642 0.927421 0.991620 0.186169
H14   H     H_    0.288274 0.071129 0.006063 0.198796
H15   H     H_    0.569515 0.762937 0.104387 0.159291
H16   H     H_    0.431747 0.237864 0.895116 0.160913
H17   H     H_    0.651823 0.923452 0.109818 0.176369
H18   H     H_    0.349649 0.076605 0.888547 0.178749
H19   H     H_    0.663814 0.634256 0.068482 0.177116
H20   H     H_    0.336277 0.365565 0.931252 0.178074
H21   H     H_    0.129096 0.734799 0.977185 0.191714
H22   H     H_    0.870553 0.265446 0.022445 0.173872
H23   H     H_    0.843244 0.512219 0.734071 0.256372
H24   H     H_    0.155963 0.485892 0.265427 0.251748
H25   H     H_    0.014191 0.428302 0.351557 0.210657
H26   H     H_    0.985536 0.571428 0.648507 0.213476
H27   H     H_    0.467005 0.069971 0.928902 0.184001
H28   H     H_    0.533165 0.929939 0.071501 0.178856
H29   H     H_    0.341907 0.937199 0.977298 0.186866
H30   H     H_    0.658204 0.063082 0.023530 0.165291
H31   H     H_    0.343222 0.351766 0.409572 0.203774
H32   H     H_    0.656697 0.648286 0.590444 0.202273
H33   H     H_    0.449776 0.515578 0.386464 0.168823
H34   H     H_    0.550178 0.484413 0.613424 0.166505
O1    O     O_3   0.251620 0.500000 0.748430 -0.502842
O2    O     O_3   0.748380 0.500000 0.251570 -0.497875
O3    O     O_R   0.134680 0.560740 0.864590 -0.642845
O4    O     O_R   0.865320 0.439260 0.135410 -0.647597
O5    O     O_R   0.306670 0.439270 0.571150 -0.629390
O6    O     O_R   0.693330 0.560730 0.428850 -0.626457
O7    O     O_R   0.135450 0.268370 0.694460 -0.642494
O8    O     O_R   0.864550 0.731630 0.305540 -0.642896
O9    O     O_R   0.429670 0.731610 0.863510 -0.599587
O10   O     O_R   0.570330 0.268390 0.136490 -0.637672
O11   O     O_R   0.134680 0.268390 0.572240 -0.650023
O12   O     O_R   0.865320 0.731610 0.427760 -0.651089
O13   O     O_R   0.306670 0.731630 0.863510 -0.660011
O14   O     O_R   0.693330 0.268370 0.136490 -0.651965
O15   O     O_R   0.135450 0.439270 0.865360 -0.646947
O16   O     O_R   0.864550 0.560730 0.134640 -0.642711
O17   O     O_R   0.429670 0.560710 0.692610 -0.609439
O18   O     O_R   0.570330 0.439290 0.307390 -0.619088
O19   O     O_R   0.308540 0.439240 0.865360 -0.655668
O20   O     O_R   0.691460 0.560760 0.134640 -0.652803
O21   O     O_R   0.133580 0.439310 0.571150 -0.607677
O22   O     O_R   0.866420 0.560690 0.428850 -0.604067
O23   O     O_R   0.430770 0.560690 0.864590 -0.651903
O24   O     O_R   0.569230 0.439310 0.135410 -0.652315
O25   O     O_R   0.133580 0.560760 0.692610 -0.647905
O26   O     O_R   0.866420 0.439240 0.307390 -0.648925
Zn1   Zn    Zn3+2 0.207400 0.586780 0.791530 1.006943
Zn2   Zn    Zn3+2 0.792600 0.413220 0.208470 1.001007
Zn3   Zn    Zn3+2 0.208510 0.413230 0.792630 0.960281
Zn4   Zn    Zn3+2 0.791490 0.586770 0.207370 0.965611
Zn5   Zn    Zn3+2 0.383150 0.586740 0.791530 1.026001
Zn6   Zn    Zn3+2 0.616850 0.413260 0.208470 1.003045
Zn7   Zn    Zn3+2 0.207400 0.413250 0.618010 1.023876
Zn8   Zn    Zn3+2 0.792600 0.586750 0.381990 1.023506
C91   C     C_3   0.028255 0.069729 0.870607 -0.466118
C92   C     C_3   0.077165 0.092379 0.954488 -0.688600
H35   H     H_    0.108322 0.049132 0.937918 0.258605
H36   H     H_    0.129059 0.176953 0.001573 0.250959
H37   H     H_    0.028098 0.066741 0.987167 0.286601
H38   H     H_    0.996516 0.112541 0.889708 0.213507
H39   H     H_    0.973634 0.985255 0.828053 0.250451
C93   C     C_3   0.972566 0.926721 0.128072 -0.463963
C94   C     C_3   0.924023 0.903517 0.043695 -0.692752
H40   H     H_    0.871720 0.818974 0.997068 0.248993
H41   H     H_    0.893443 0.947319 0.059679 0.260866
H42   H     H_    0.973255 0.928170 0.010800 0.285630
H43   H     H_    0.027648 0.011049 0.170101 0.249988
H44   H     H_    0.003678 0.883256 0.109515 0.215062
S1    S     S_3+6 0.712416 0.776907 0.833884 0.002659
O27   O     O_2   0.757522 0.721998 0.802424 -0.243730
O28   O     O_2   0.634444 0.726809 0.757745 -0.306403
O29   O     O_3   0.786274 0.902141 0.870719 -0.599164
H45   H     H_    0.799065 0.900352 0.817510 0.382662
S2    S     S_3+6 0.286936 0.220532 0.163746 -0.008097
O30   O     O_2   0.364885 0.277447 0.243050 -0.339801
O31   O     O_2   0.235963 0.268617 0.189678 -0.238678
O32   O     O_3   0.218698 0.095332 0.129026 -0.570366
H46   H     H_    0.203504 0.097613 0.181702 0.389839
C95   C     C_3   0.615868 0.577144 0.841602 -0.346641
C96   C     C_3   0.691986 0.570297 0.864714 -0.786430
H47   H     H_    0.758185 0.639810 0.881648 0.281796
H48   H     H_    0.690843 0.563510 0.921778 0.245299
H49   H     H_    0.683960 0.500568 0.807047 0.278608
H50   H     H_    0.551206 0.506834 0.826379 0.193835
H51   H     H_    0.611477 0.572198 0.778839 0.249366
C97   C     C_3   0.382587 0.420621 0.157099 -0.333579
C98   C     C_3   0.306691 0.427315 0.133005 -0.813829
H52   H     H_    0.308946 0.435114 0.076490 0.241140
H53   H     H_    0.240331 0.357319 0.114946 0.286410
H54   H     H_    0.313867 0.496443 0.190633 0.274971
H55   H     H_    0.385336 0.424461 0.219392 0.253203
H56   H     H_    0.447548 0.491442 0.173592 0.191423
S3    S     S_3+6 0.198308 0.633634 0.514036 0.066695
O33   O     O_2   0.253589 0.716848 0.610141 -0.246221
O34   O     O_2   0.232410 0.566882 0.474362 -0.251393
O35   O     O_3   0.206507 0.689484 0.460272 -0.458998
H57   H     H_    0.153133 0.635525 0.406072 0.350007
S4    S     S_3+6 0.801240 0.366567 0.485700 0.038634
O36   O     O_2   0.765650 0.432248 0.518432 -0.268740
O37   O     O_2   0.747241 0.277927 0.390324 -0.284251
O38   O     O_3   0.794674 0.319898 0.547314 -0.518659
H58   H     H_    0.729759 0.276001 0.537566 0.410399
S5    S     S_3+6 0.936133 0.713307 0.766150 0.012278
O39   O     O_2   0.843159 0.631010 0.699766 -0.218534
O40   O     O_2   0.937664 0.803470 0.839013 -0.307264
O41   O     O_3   0.007098 0.755104 0.715337 -0.600800
H59   H     H_    0.986727 0.786400 0.696211 0.387106
S6    S     S_3+6 0.062297 0.284202 0.232153 0.012270
O42   O     O_2   0.057633 0.191932 0.158520 -0.309092
O43   O     O_2   0.156387 0.364970 0.296375 -0.219050
O44   O     O_3   0.993185 0.245605 0.285571 -0.600638
H60   H     H_    0.013428 0.214147 0.304596 0.387513
C99   C     C_3   0.126001 0.832169 0.904061 -0.373990
C100  C     C_3   0.181252 0.823425 0.841611 -0.733404
H61   H     H_    0.214533 0.789563 0.849556 0.276639
H62   H     H_    0.138960 0.772339 0.771296 0.306405
H63   H     H_    0.233061 0.901448 0.857176 0.226941
H64   H     H_    0.099587 0.875224 0.902751 0.263528
H65   H     H_    0.171311 0.880102 0.973062 0.214473
C101  C     C_3   0.872400 0.167093 0.095027 -0.384101
C102  C     C_3   0.818176 0.176217 0.158467 -0.733977
H66   H     H_    0.765970 0.098169 0.142602 0.226483
H67   H     H_    0.861024 0.226445 0.228438 0.307635
H68   H     H_    0.785462 0.211237 0.151938 0.278109
H69   H     H_    0.826463 0.119996 0.026495 0.192027
H70   H     H_    0.898141 0.122936 0.094940 0.265871
S7    S     S_3+6 0.840995 0.389794 0.791188 0.023617
O45   O     O_2   0.760064 0.341036 0.718749 -0.255462
O46   O     O_2   0.882083 0.330193 0.755917 -0.324860
O47   O     O_3   0.808450 0.383997 0.875224 -0.595342
H71   H     H_    0.782844 0.311935 0.856510 0.388971
S8    S     S_3+6 0.158746 0.610013 0.210169 0.024392
O48   O     O_2   0.117322 0.669302 0.244050 -0.286362
O49   O     O_2   0.238409 0.659231 0.284363 -0.258607
O50   O     O_3   0.193569 0.617873 0.127647 -0.551159
H72   H     H_    0.242991 0.608914 0.127101 0.355858
C103  C     C_3   0.971646 0.665931 0.070897 -0.352060
C104  C     C_3   0.883281 0.639312 0.025049 -0.749208
H73   H     H_    0.825990 0.559502 0.001073 0.299532
H74   H     H_    0.888116 0.646187 0.968025 0.233178
H75   H     H_    0.868891 0.694582 0.072348 0.242929
H76   H     H_    0.983562 0.702320 0.143073 0.230866
H77   H     H_    0.028241 0.730283 0.070165 0.188095
C105  C     C_3   0.027102 0.333287 0.928283 -0.349315
C106  C     C_3   0.114577 0.357537 0.973164 -0.774305
H78   H     H_    0.126059 0.299118 0.926118 0.249245
H79   H     H_    0.173207 0.435410 0.994356 0.271665
H80   H     H_    0.110629 0.353785 0.031790 0.237317
H81   H     H_    0.969824 0.269095 0.928653 0.182396
H82   H     H_    0.015223 0.297575 0.856180 0.230360
S9    S     S_3+6 0.460534 0.068179 0.178233 0.031929
O51   O     O_2   0.417467 0.978387 0.187276 -0.241651
O52   O     O_2   0.546033 0.158489 0.254626 -0.287300
O53   O     O_3   0.389621 0.101812 0.178329 -0.509598
H83   H     H_    0.413584 0.146028 0.155490 0.370288
S10   S     S_3+6 0.539662 0.931443 0.822427 0.023032
O54   O     O_2   0.453450 0.844772 0.746191 -0.253601
O55   O     O_2   0.587317 0.022036 0.814466 -0.297862
O56   O     O_3   0.604998 0.890392 0.820303 -0.512593
H84   H     H_    0.663034 0.953283 0.866847 0.358320
C107  C     C_3   0.491003 0.312921 0.415853 -0.308207
C108  C     C_3   0.424007 0.236869 0.435860 -0.747451
H85   H     H_    0.442690 0.272829 0.508407 0.232124
H86   H     H_    0.355333 0.213436 0.410733 0.251327
H87   H     H_    0.424034 0.166287 0.402585 0.300469
H88   H     H_    0.471615 0.275520 0.343232 0.286026
H89   H     H_    0.558865 0.333398 0.439240 0.242857
C109  C     C_3   0.508468 0.686801 0.583555 -0.298607
C110  C     C_3   0.576626 0.763641 0.564859 -0.753236
H90   H     H_    0.645110 0.787529 0.591470 0.247813
H91   H     H_    0.559497 0.728152 0.492387 0.235567
H92   H     H_    0.576101 0.833881 0.597556 0.299906
H93   H     H_    0.440800 0.666046 0.558877 0.245584
H94   H     H_    0.526344 0.723619 0.656057 0.297480

loop_
_geom_bond_atom_site_label_1
_geom_bond_atom_site_label_2
_ccdc_geom_bond_type
C99   H65   S    
C38   C40   A    
C63   C65   A    
C93   H44   S    
C97   C98   S    
O11   Zn7   S    
C32   C93   S    
C92   H36   S    
C27   C29   A    
O13   Zn1   S    
C7    H27   S    
C53   H13   S    
O50   H72   S    
C76   C79   A    
C35   H11   S    
C107  H88   S    
C101  C102  S    
C110  H92   S    
C6    C9    S    
O5    Zn7   S    
S2    O30   D    
C8    H28   S    
O56   H84   S    
C47   C49   A    
C4    C87   S    
C76   C105  S    
O38   H58   S    
C96   H47   S    
C66   C79   S    
C19   H33   S    
C106  H78   S    
C109  H93   S    
C81   O19   A    
S4    O37   D    
C13   C18   S    
C5    H29   S    
C14   H32   S    
C54   H14   S    
C35   C37   A    
C76   C78   A    
C5    C11   S    
C87   H1    S    
O25   Zn1   S    
C6    C12   S    
C8    C10   S    
C30   H10   S    
C105  H82   S    
S2    O31   D    
C64   H22   S    
C21   C33   A    
O15   Zn3   S    
C58   C60   A    
C57   C82   S    
C72   H24   S    
C45   O15   A    
C102  H68   S    
C13   H31   S    
S8    O48   D    
C71   H23   S    
C36   H12   S    
C103  C104  S    
C56   H20   S    
S3    O34   D    
C61   C99   S    
C62   C64   A    
O1    Zn1   S    
C110  H91   S    
C47   C60   S    
C83   O21   A    
C100  H62   S    
O4    Zn2   S    
O10   Zn6   S    
C46   O16   A    
C88   H2    S    
C56   C58   A    
O35   H57   S    
C49   C51   A    
S4    O38   S    
S5    O41   S    
C2    O8    A    
C31   C33   A    
C68   O18   A    
C45   C78   S    
C25   H7    S    
C62   C101  S    
O23   Zn5   S    
C75   C80   A    
C86   S4    S    
C18   C20   S    
C97   H56   S    
O12   Zn8   S    
S9    O52   D    
S1    O28   D    
C73   S5    S    
S9    O53   S    
C93   H43   S    
C50   H16   S    
C65   C80   S    
C103  H77   S    
C55   C60   A    
C55   H19   S    
C20   H34   S    
C63   H21   S    
C41   C43   A    
C14   C17   S    
O14   Zn2   S    
C67   O5    A    
C42   C44   A    
O8    Zn4   S    
S10   O56   S    
C95   H51   S    
C6    H30   S    
C16   C109  S    
C82   O20   A    
C52   C54   A    
C110  H90   S    
C94   H42   S    
C4    C90   S    
O2    Zn8   S    
C7    C12   S    
C22   C34   A    
C44   C97   S    
C106  H79   S    
C104  H75   S    
C69   C71   A    
S4    O36   D    
C29   H9    S    
C86   C88   S    
C103  H76   S    
C92   H37   S    
C14   C20   S    
C101  H69   S    
O7    Zn3   S    
C72   C74   A    
O2    Zn6   S    
C108  H85   S    
C58   C81   S    
C104  H74   S    
C71   C73   A    
O2    Zn2   S    
C23   O9    A    
C105  H81   S    
C109  C110  S    
C13   C19   S    
C6    C8    S    
C21   H5    S    
C28   C39   S    
C1    O7    A    
C18   C67   S    
O32   H46   S    
C108  H87   S    
C2    O12   A    
S5    O39   D    
C94   H41   S    
C74   S6    S    
C15   C20   S    
C51   C53   A    
C64   C66   A    
S3    O35   S    
O44   H60   S    
C98   H53   S    
C95   C96   S    
C75   C103  S    
O26   Zn2   S    
C101  H70   S    
C37   C39   A    
O21   Zn7   S    
O47   H71   S    
C107  H89   S    
C50   C52   A    
C91   C92   S    
S6    O44   S    
C8    C11   S    
C27   C40   S    
C43   C95   S    
O3    Zn1   S    
C61   C63   A    
C102  H66   S    
C77   C79   A    
C48   C59   S    
S7    O46   D    
C16   C18   S    
C70   S8    S    
C68   O6    A    
C9    C11   S    
C41   C53   A    
C10   C12   S    
C97   H55   S    
C26   H8    S    
O2    Zn4   S    
S10   O55   D    
O29   H45   S    
S6    O43   D    
C49   H15   S    
C55   C57   A    
C93   C94   S    
C14   C16   S    
C3    C85   S    
C57   C59   A    
C84   C89   S    
C17   C19   S    
S9    O51   D    
C67   O17   A    
C1    C38   S    
C78   C80   A    
C94   H40   S    
O1    Zn5   S    
C105  C106  S    
C100  H63   S    
C5    C7    S    
C107  C108  S    
S1    O29   S    
C24   O10   A    
C98   H52   S    
C7    C9    S    
C83   C90   S    
C21   C25   A    
C99   H64   S    
C17   C68   S    
C109  H94   S    
C61   C73   A    
C3    C88   S    
O9    Zn5   S    
C22   H6    S    
C23   O13   A    
C36   C39   A    
O17   Zn5   S    
C34   H4    S    
C88   C90   S    
S10   O54   D    
C15   C107  S    
C86   C89   S    
C33   H3    S    
C46   C77   S    
C82   O24   A    
C85   C90   S    
C96   H49   S    
C9    C24   S    
C15   C17   S    
O22   Zn8   S    
C84   O22   A    
C10   C23   S    
C25   C27   A    
O24   Zn6   S    
C26   C28   A    
C96   H48   S    
C56   C59   A    
C3    C89   S    
C85   S3    S    
C24   O14   A    
C92   H35   S    
O1    Zn3   S    
C13   C15   S    
O53   H83   S    
C99   C100  S    
C98   H54   S    
C4    H26   S    
C28   C30   A    
C29   C31   A    
C44   C48   A    
C3    H25   S    
C95   H50   S    
C42   C54   A    
C36   C38   A    
C30   C32   A    
C2    C37   S    
C81   O23   A    
C100  H61   S    
C66   C70   A    
C45   O3    A    
C16   C19   S    
C65   C69   A    
C104  H73   S    
C48   C50   A    
C102  H67   S    
S8    O49   D    
C35   C40   A    
S7    O47   S    
O1    Zn7   S    
C11   S9    S    
O20   Zn4   S    
S3    O33   D    
C46   O4    A    
C106  H80   S    
S2    O32   S    
O19   Zn3   S    
C108  H86   S    
S1    O27   D    
C91   H39   S    
C85   C87   S    
C5    C10   S    
C4    C86   S    
S6    O42   D    
C52   H18   S    
C41   S1    S    
C51   H17   S    
O41   H59   S    
C22   C26   A    
C75   C77   A    
O16   Zn4   S    
S7    O45   D    
S5    O40   D    
C87   C89   S    
C91   H38   S    
C62   C74   A    
C70   C72   A    
C12   S10   S    
O18   Zn6   S    
C42   S2    S    
C1    O11   A    
C43   C47   A    
S8    O50   S    
C31   C91   S    
O6    Zn8   S    
C32   C34   A    
C83   O25   A    
C69   S7    S    
C84   O26   A    
