data_mof_unit_25236.cif
_audit_creation_date              2012-12-10T17:30:19-0500
_audit_creation_method            fapswitch 2.2
_symmetry_space_group_name_H-M    P1
_symmetry_Int_Tables_number       1
_space_group_crystal_system       triclinic
_cell_length_a                    11.979101
_cell_length_b                    12.891729
_cell_length_c                    14.953457
_cell_angle_alpha                 89.857348
_cell_angle_beta                  87.073282
_cell_angle_gamma                 93.372152
_cell_volume                      2302.24188987

loop_
_atom_site_label
_atom_site_type_symbol
_atom_type_description
_atom_site_fract_x
_atom_site_fract_y
_atom_site_fract_z
_atom_type_partial_charge
C1    C     C_R   0.521780 0.699889 0.495793 0.874954
C2    C     C_R   0.391683 0.145725 0.443333 -0.254285
C3    C     C_R   0.462751 0.871007 0.449159 0.093659
C4    C     C_R   0.537247 0.128993 0.550843 0.093661
C5    C     C_R   0.463368 0.977973 0.467852 0.122917
C6    C     C_R   0.536629 0.022027 0.532150 0.122911
C7    C     C_R   0.954406 0.409870 0.411098 -0.333509
C8    C     C_R   0.045594 0.590130 0.588901 -0.333512
C9    C     C_R   0.838101 0.417781 0.420092 0.006906
C10   C     C_R   0.161899 0.582219 0.579907 0.006917
C11   C     C_R   0.858298 0.537614 0.539140 -0.046512
C12   C     C_R   0.478219 0.300111 0.504208 0.874956
C13   C     C_R   0.141702 0.462386 0.460860 -0.046516
C14   C     C_R   0.975744 0.532408 0.532497 0.094218
C15   C     C_R   0.024256 0.467592 0.467503 0.094217
C16   C     C_R   0.500276 0.494578 0.672898 0.876766
C17   C     C_R   0.499724 0.505422 0.327102 0.876767
C18   C     C_R   0.418889 0.449132 0.190873 -0.295050
C19   C     C_R   0.581113 0.550865 0.809126 -0.295050
C20   C     C_R   0.498123 0.513613 0.231636 -0.110006
C21   C     C_R   0.501878 0.486386 0.768363 -0.110005
C22   C     C_R   0.574477 0.581820 0.181616 0.099573
C23   C     C_R   0.663796 0.618118 0.941051 -0.220700
C24   C     C_R   0.425525 0.418177 0.818383 0.099566
C25   C     C_R   0.579729 0.571572 0.087642 0.112607
C26   C     C_R   0.420275 0.428422 0.912358 0.112609
C27   C     C_R   0.499382 0.504250 0.046699 0.026081
C28   C     C_R   0.500622 0.495745 0.953300 0.026079
C29   C     C_R   0.417451 0.445440 0.098953 0.124289
C30   C     C_R   0.582553 0.554555 0.901047 0.124290
C31   C     C_R   0.663326 0.625742 0.033380 -0.215840
C32   C     C_R   0.336679 0.374250 0.966620 -0.215828
C33   C     C_3   0.642724 0.668763 0.227369 -0.403635
C34   C     C_R   0.336209 0.381875 0.058948 -0.220702
C35   C     C_3   0.604774 0.776137 0.202828 -0.904798
C36   C     C_3   0.357281 0.331233 0.772630 -0.403630
C37   C     C_3   0.395233 0.223860 0.797169 -0.904803
C38   C     C_3   0.611267 0.178578 0.621677 -0.410120
C39   C     C_3   0.734010 0.195906 0.587859 -0.794927
C40   C     C_3   0.388729 0.821421 0.378327 -0.410123
C41   C     C_3   0.265988 0.804091 0.412150 -0.794909
C42   C     C_R   0.465265 0.189351 0.503486 -0.079023
C43   C     C_R   0.534735 0.810649 0.496515 -0.079022
C44   C     C_R   0.608352 0.958267 0.575383 -0.222762
C45   C     C_R   0.391645 0.041733 0.424621 -0.222752
C46   C     C_R   0.608315 0.854275 0.556669 -0.254284
H1    H     H_    0.359283 0.399833 0.231332 0.152336
H2    H     H_    0.661617 0.806277 0.593642 0.158114
H3    H     H_    0.663858 0.986091 0.625708 0.160194
H4    H     H_    0.336138 0.013908 0.374296 0.160189
H5    H     H_    0.180619 0.412769 0.411548 0.120763
H6    H     H_    0.819380 0.587231 0.588452 0.120763
H7    H     H_    0.215789 0.626473 0.623572 0.138806
H8    H     H_    0.784211 0.373527 0.376427 0.138810
H9    H     H_    0.633650 0.799322 0.133722 0.264340
H10   H     H_    0.512105 0.776449 0.208259 0.257560
H11   H     H_    0.639870 0.835267 0.249233 0.253804
H12   H     H_    0.640718 0.600165 0.768668 0.152336
H13   H     H_    0.633584 0.663842 0.301203 0.223367
H14   H     H_    0.733513 0.663614 0.210426 0.202102
H15   H     H_    0.487904 0.223556 0.791759 0.257568
H16   H     H_    0.366333 0.200663 0.866267 0.264336
H17   H     H_    0.360162 0.164733 0.750751 0.253801
H18   H     H_    0.266491 0.336380 0.789572 0.202102
H19   H     H_    0.366421 0.336156 0.698796 0.223363
H20   H     H_    0.741371 0.240098 0.524042 0.277171
H21   H     H_    0.781367 0.240683 0.638369 0.241035
H22   H     H_    0.774189 0.121579 0.576371 0.235299
H23   H     H_    0.989276 0.359358 0.360488 0.143065
H24   H     H_    0.580892 0.254347 0.644182 0.213136
H25   H     H_    0.605288 0.130614 0.683631 0.186430
H26   H     H_    0.218637 0.759284 0.361655 0.241041
H27   H     H_    0.258635 0.759928 0.475982 0.277163
H28   H     H_    0.225797 0.878417 0.423612 0.235287
H29   H     H_    0.394703 0.869385 0.316373 0.186427
H30   H     H_    0.419104 0.745653 0.355821 0.213131
H31   H     H_    0.010724 0.640643 0.639511 0.143065
H32   H     H_    0.729836 0.673741 0.061035 0.156529
H33   H     H_    0.270170 0.326252 0.938964 0.156525
H34   H     H_    0.728022 0.662100 0.900785 0.142254
H35   H     H_    0.271983 0.337893 0.099214 0.142253
H36   H     H_    0.338382 0.193723 0.406359 0.158114
N1    N     N_R   0.207800 0.519350 0.516680 -0.101852
N2    N     N_R   0.792200 0.480650 0.483320 -0.101855
O1    O     O_R   0.421700 0.658830 0.504450 -0.612553
O2    O     O_R   0.578300 0.341170 0.495550 -0.612556
O3    O     O_R   0.609310 0.646410 0.493750 -0.632293
O4    O     O_R   0.390690 0.353590 0.506250 -0.632293
O5    O     O_R   0.406180 0.506230 0.637500 -0.631086
O6    O     O_R   0.593820 0.493770 0.362500 -0.631086
O7    O     O_R   0.593800 0.493820 0.626800 -0.621192
O8    O     O_R   0.406200 0.506180 0.373200 -0.621192
Zn1   Zn    Zn3+2 0.374730 0.508290 0.507150 0.931869
Zn2   Zn    Zn3+2 0.625270 0.491710 0.492850 0.931869

loop_
_geom_bond_atom_site_label_1
_geom_bond_atom_site_label_2
_ccdc_geom_bond_type
C44   H3    S    
C25   C31   A    
C38   H24   S    
C1    O3    A    
C16   C21   S    
C27   C29   A    
C39   H22   S    
C18   H1    S    
C37   H16   S    
C26   C32   A    
C3    C43   A    
C24   C36   S    
C36   C37   S    
C19   C21   A    
C24   C26   A    
C38   C39   S    
C11   C14   A    
N1    Zn1   S    
O3    Zn2   S    
C10   N1    A    
C17   C20   S    
C10   H7    S    
C12   C42   S    
C11   H6    S    
O2    Zn2   S    
C41   H28   S    
O4    Zn1   S    
O1    Zn1   S    
C1    C43   S    
C22   C25   A    
C34   H35   S    
C23   H34   S    
C7    C15   A    
C16   O5    A    
C33   H13   S    
C13   H5    S    
C17   O8    A    
C37   H17   S    
C44   C46   A    
O6    Zn2   S    
C19   H12   S    
C1    O1    A    
C46   H2    S    
C12   O4    A    
C35   H9    S    
C23   C30   A    
C4    C6    A    
C36   H19   S    
C5    C45   A    
C29   C34   A    
C40   H30   S    
C32   C34   A    
C18   C29   A    
N2    Zn2   S    
C41   H26   S    
C40   C41   S    
C20   C22   A    
C3    C40   S    
C33   H14   S    
C13   C15   A    
C8    H31   S    
C39   H20   S    
C2    H36   S    
C31   H32   S    
C7    C9    A    
C22   C33   S    
C38   H25   S    
C8    C14   A    
C35   H10   S    
C39   H21   S    
C17   O6    A    
C4    C38   S    
C3    C5    A    
C7    H23   S    
C37   H15   S    
C11   N2    A    
C25   C27   A    
C13   N1    A    
C26   C28   A    
C40   H29   S    
C12   O2    A    
C35   H11   S    
C28   C30   A    
O7    Zn2   S    
C5    C6    A    
C4    C42   A    
C45   H4    S    
C2    C42   A    
O8    Zn1   S    
C33   C35   S    
C18   C20   A    
O5    Zn1   S    
C43   C46   A    
C2    C45   A    
C9    N2    A    
C41   H27   S    
C16   O7    A    
C8    C10   A    
C21   C24   A    
C27   C28   A    
C14   C15   A    
C6    C44   A    
C9    H8    S    
C36   H18   S    
C19   C30   A    
C23   C31   A    
C32   H33   S    
