data_mof_unit_34116.cif
_audit_creation_date              2012-12-10T19:44:35-0500
_audit_creation_method            fapswitch 2.2
_symmetry_space_group_name_H-M    P1
_symmetry_Int_Tables_number       1
_space_group_crystal_system       triclinic
_cell_length_a                    8.553874
_cell_length_b                    14.945458
_cell_length_c                    14.284456
_cell_angle_alpha                 89.310128
_cell_angle_beta                  97.43954
_cell_angle_gamma                 91.368937
_cell_volume                      1810.18422972

loop_
_atom_site_label
_atom_site_type_symbol
_atom_type_description
_atom_site_fract_x
_atom_site_fract_y
_atom_site_fract_z
_atom_type_partial_charge
C1    C     C_R   0.503188 0.327866 0.500368 0.857835
C2    C     C_R   0.501457 0.671592 0.499658 0.855950
C3    C     C_R   0.390945 0.446427 0.098338 -0.275772
C4    C     C_R   0.568028 0.572341 0.898191 -0.275373
C5    C     C_R   0.395817 0.446183 0.197489 -0.009882
C6    C     C_R   0.569299 0.569565 0.799544 -0.005934
C7    C     C_R   0.601122 0.555698 0.210055 0.131603
C8    C     C_R   0.428740 0.431274 0.792736 0.130468
C9    C     C_R   0.603950 0.554443 0.111881 -0.310444
C10   C     C_R   0.432258 0.430111 0.891434 -0.308741
C11   C     C_R   0.497706 0.500546 0.053163 0.134154
C12   C     C_R   0.499614 0.501302 0.946732 0.133241
C13   C     C_R   0.201678 0.497489 0.475967 0.964963
C14   C     C_R   0.798308 0.502243 0.524078 0.965078
C15   C     C_2   0.037388 0.488044 0.464643 -0.375596
C16   C     C_2   0.962581 0.511181 0.535656 -0.386930
C17   C     C_R   0.595068 0.094203 0.577708 -0.196788
C18   C     C_R   0.399029 0.906342 0.446907 -0.182452
C19   C     C_R   0.586720 0.186503 0.579252 -0.204392
C20   C     C_R   0.390212 0.814100 0.447584 -0.224797
C21   C     C_R   0.516112 0.232078 0.499480 -0.003392
C22   C     C_R   0.510620 0.766634 0.499175 0.013252
C23   C     C_R   0.465442 0.186281 0.415762 -0.192946
C24   C     C_R   0.642008 0.809812 0.548378 -0.195958
C25   C     C_R   0.478760 0.094716 0.413095 -0.190815
C26   C     C_R   0.653765 0.902188 0.545223 -0.193131
C27   C     C_R   0.538325 0.047925 0.494933 0.123248
C28   C     C_R   0.531518 0.950834 0.495079 0.110353
H1    H     H_    0.978398 0.459642 0.399439 0.165404
H2    H     H_    0.021247 0.539784 0.600852 0.162522
H3    H     H_    0.641585 0.059196 0.641711 0.126832
H4    H     H_    0.301432 0.942685 0.409839 0.129243
H5    H     H_    0.633977 0.222013 0.642601 0.144671
H6    H     H_    0.288871 0.779797 0.409604 0.122660
H7    H     H_    0.414261 0.221080 0.352562 0.148685
H8    H     H_    0.736209 0.771949 0.587147 0.130915
H9    H     H_    0.439457 0.060370 0.347617 0.126430
H10   H     H_    0.757933 0.935358 0.581394 0.128528
H11   H     H_    0.301802 0.404937 0.058303 0.132776
H12   H     H_    0.618962 0.630957 0.934906 0.132906
H13   H     H_    0.313923 0.403726 0.230357 0.125840
H14   H     H_    0.623832 0.624263 0.764432 0.132950
H15   H     H_    0.690102 0.596682 0.082525 0.137106
H16   H     H_    0.379674 0.373062 0.923782 0.136448
N1    N     N_R   0.500000 0.499980 0.252470 -0.109123
N2    N     N_R   0.500000 0.500020 0.747530 -0.110810
O1    O     O_R   0.500010 0.369070 0.579480 -0.614053
O2    O     O_R   0.499990 0.630930 0.420520 -0.621349
O3    O     O_R   0.500010 0.369060 0.420520 -0.632340
O4    O     O_R   0.499990 0.630940 0.579480 -0.630389
O5    O     O_R   0.271750 0.500000 0.560890 -0.611869
O6    O     O_R   0.728250 0.500000 0.439110 -0.605015
O7    O     O_R   0.271750 0.499990 0.401930 -0.640113
O8    O     O_R   0.728250 0.500010 0.598070 -0.634201
Zn1   Zn    Zn3+2 0.500000 0.500010 0.606140 0.939008
Zn2   Zn    Zn3+2 0.500000 0.499990 0.393860 0.936296
C29   C     C_R   0.705564 0.622242 0.263347 0.153007
C30   C     C_R   0.867564 0.606823 0.283271 -0.140231
C31   C     C_R   0.969909 0.673295 0.325734 -0.138509
C32   C     C_R   0.911790 0.756637 0.345540 -0.141213
C33   C     C_R   0.752056 0.774275 0.320688 -0.140868
C34   C     C_R   0.649730 0.707869 0.278141 -0.116078
H17   H     H_    0.914553 0.543898 0.264387 0.119845
H18   H     H_    0.094468 0.660516 0.342124 0.140544
H19   H     H_    0.990883 0.808125 0.378342 0.125757
H20   H     H_    0.707677 0.839567 0.333762 0.147293
H21   H     H_    0.526793 0.722935 0.257277 0.127681
C35   C     C_R   0.335720 0.359209 0.740948 0.158537
C36   C     C_R   0.179584 0.374399 0.702139 -0.100130
C37   C     C_R   0.084743 0.304638 0.660027 -0.154581
C38   C     C_R   0.143424 0.218202 0.660182 -0.125240
C39   C     C_R   0.295776 0.201371 0.703940 -0.128904
C40   C     C_R   0.391323 0.271478 0.745003 -0.169705
H22   H     H_    0.130561 0.439777 0.707183 0.125720
H23   H     H_    0.964884 0.317219 0.629035 0.136660
H24   H     H_    0.069734 0.163984 0.628288 0.130148
H25   H     H_    0.339627 0.133945 0.706406 0.137997
H26   H     H_    0.508000 0.257478 0.780441 0.115504

loop_
_geom_bond_atom_site_label_1
_geom_bond_atom_site_label_2
_ccdc_geom_bond_type
C1    C21   S    
C29   C34   A    
C31   H18   S    
C24   H8    S    
C34   H21   S    
C7    N1    A    
C19   C21   A    
C24   C26   A    
C38   H24   S    
C16   H2    S    
C15   C16   D    
C7    C9    A    
C2    O4    A    
C25   H9    S    
C13   O5    A    
C33   H20   S    
C14   O6    A    
C4    H12   S    
N1    Zn2   S    
C35   C36   A    
N2    Zn1   S    
C2    C22   S    
C40   H26   S    
C37   C38   A    
C14   C16   S    
C4    C12   A    
C18   C20   A    
C20   H6    S    
C3    H11   S    
C31   C32   A    
C36   C37   A    
C15   H1    S    
C13   O7    A    
C9    H15   S    
C10   H16   S    
C17   C27   A    
C18   C28   A    
C4    C6    A    
C19   H5    S    
C26   H10   S    
C2    O2    A    
C30   C31   A    
C5    N1    A    
C32   C33   A    
C39   H25   S    
C36   H22   S    
C9    C11   A    
C10   C12   A    
C14   O8    A    
C20   C22   A    
C32   H19   S    
C8    C35   S    
C23   H7    S    
C21   C23   A    
C17   H3    S    
C22   C24   A    
C18   H4    S    
C27   C28   S    
O1    Zn1   S    
O7    Zn2   S    
C30   H17   S    
O2    Zn2   S    
C5    H13   S    
O8    Zn1   S    
C6    N2    A    
C1    O1    A    
C39   C40   A    
C3    C5    A    
C11   C12   S    
C25   C27   A    
O3    Zn2   S    
C26   C28   A    
O4    Zn1   S    
C13   C15   S    
C35   C40   A    
C38   C39   A    
C29   C30   A    
C17   C19   A    
O5    Zn1   S    
C23   C25   A    
C33   C34   A    
C8    N2    A    
C3    C11   A    
C8    C10   A    
C6    H14   S    
C37   H23   S    
C1    O3    A    
C7    C29   S    
O6    Zn2   S    
