data_mof_unit_33835.cif
_audit_creation_date              2012-12-10T17:07:51-0500
_audit_creation_method            fapswitch 2.2
_symmetry_space_group_name_H-M    P1
_symmetry_Int_Tables_number       1
_space_group_crystal_system       triclinic
_cell_length_a                    10.648895
_cell_length_b                    10.764055
_cell_length_c                    10.070817
_cell_angle_alpha                 90.349753
_cell_angle_beta                  90.481573
_cell_angle_gamma                 90.387463
_cell_volume                      1154.28125345

loop_
_atom_site_label
_atom_site_type_symbol
_atom_type_description
_atom_site_fract_x
_atom_site_fract_y
_atom_site_fract_z
_atom_type_partial_charge
C1    C     C_R   0.497196 0.262824 0.499143 0.929274
C2    C     C_2   0.600491 0.506660 0.076156 -0.103026
C3    C     C_R   0.257854 0.497271 0.499614 0.805295
C4    C     C_R   0.499379 0.736799 0.500023 0.787588
C5    C     C_R   0.741992 0.498197 0.500720 0.899756
C6    C     C_3   0.073253 0.494707 0.645024 -0.386558
C7    C     C_3   0.930297 0.492256 0.647231 0.294821
C8    C     C_3   0.071761 0.611553 0.430087 -0.493639
C9    C     C_3   0.068807 0.371184 0.427758 0.371069
C10   C     C_3   0.120944 0.492660 0.499072 -0.018030
C11   C     C_2   0.329809 0.880198 0.335091 0.373494
C12   C     C_3   0.878357 0.494715 0.502052 0.027108
C13   C     C_2   0.531221 0.094317 0.258987 0.565448
C14   C     C_2   0.697974 0.614081 0.882275 0.452651
C15   C     C_2   0.418905 0.403209 0.891621 0.560620
C16   C     C_2   0.113961 0.358229 0.285087 0.438087
C17   C     C_3   0.928120 0.612405 0.431465 -0.510678
C18   C     C_3   0.923230 0.377680 0.425916 -0.319652
C19   C     C_2   0.440838 0.932628 0.408154 -0.180727
C20   C     C_2   0.511080 0.868736 0.496278 0.230182
C21   C     C_2   0.474600 0.061167 0.388694 0.067561
C22   C     C_2   0.469680 0.133292 0.497683 -0.248011
C23   C     C_2   0.594255 0.535541 0.930707 0.026420
H1    H     H_    0.107021 0.580426 0.697154 0.144609
H2    H     H_    0.108022 0.695738 0.483043 0.202340
H3    H     H_    0.894896 0.697457 0.483591 0.206368
H4    H     H_    0.882075 0.292762 0.471454 0.252912
H5    H     H_    0.295132 0.787394 0.355343 0.068311
H6    H     H_    0.656317 0.863417 0.615796 0.377870
H7    H     H_    0.493068 0.053769 0.168253 0.105410
H8    H     H_    0.788540 0.612192 0.932492 -0.000191
H9    H     H_    0.321200 0.405360 0.860721 0.030046
H10   H     H_    0.898722 0.401800 0.810169 0.328258
H11   H     H_    0.090379 0.428488 0.212401 0.011693
H12   H     H_    0.885496 0.379703 0.322349 0.130071
H13   H     H_    0.196533 0.260465 0.503812 0.331772
H14   H     H_    0.105266 0.617659 0.326069 0.190865
H15   H     H_    0.892317 0.616155 0.327356 0.207213
H16   H     H_    0.435101 0.095125 0.590581 0.179827
H17   H     H_    0.691637 0.501009 0.124610 0.143881
H18   H     H_    0.111318 0.414381 0.701413 0.225806
H19   H     H_    0.417859 0.526109 0.103472 0.156133
H20   H     H_    0.897782 0.577092 0.700688 0.109647
N1    N     N_2   0.501360 0.501330 0.852150 -0.175045
N2    N     N_2   0.501390 0.501360 0.147810 -0.157414
O1    O     O_R   0.499980 0.319060 0.613040 -0.610513
O2    O     O_3   0.607567 0.926856 0.566991 -0.730327
O3    O     O_2   0.626231 0.158131 0.252934 -0.542410
O4    O     O_2   0.682210 0.687220 0.792064 -0.558251
O5    O     O_2   0.458096 0.312123 0.950480 -0.546472
O6    O     O_3   0.887879 0.385301 0.713617 -0.712010
O7    O     O_2   0.175656 0.268814 0.249809 -0.500243
O8    O     O_3   0.103467 0.264705 0.500529 -0.699608
O9    O     O_R   0.500020 0.319100 0.386900 -0.553677
O10   O     O_R   0.314770 0.499960 0.613070 -0.654399
O11   O     O_R   0.314820 0.500000 0.386930 -0.632685
O12   O     O_R   0.499980 0.680900 0.613100 -0.556651
O13   O     O_R   0.500020 0.680940 0.386960 -0.643012
O14   O     O_R   0.685180 0.500000 0.613070 -0.558857
O15   O     O_R   0.685230 0.500040 0.386930 -0.633115
O16   O     O_2   0.273695 0.942290 0.252995 -0.519595
Zn1   Zn    Zn3+2 0.499970 0.499970 0.650990 1.016882
Zn2   Zn    Zn3+2 0.500030 0.500030 0.349010 0.995506

loop_
_geom_bond_atom_site_label_1
_geom_bond_atom_site_label_2
_ccdc_geom_bond_type
C14   C23   S    
C6    C10   S    
C13   O3    D    
C1    O9    A    
C11   O16   D    
C6    C7    S    
C7    H20   S    
H10   O6    S    
C18   H12   S    
C9    C18   S    
C1    C22   S    
C19   C20   D    
C14   H8    S    
C18   H4    S    
C6    H18   S    
C6    H1    S    
C2    C23   S    
C12   C18   S    
O11   Zn2   S    
C13   C21   S    
O12   Zn1   S    
C3    C10   S    
C21   C22   D    
C12   C17   S    
C8    H2    S    
C11   C19   S    
C16   O7    D    
C11   H5    S    
O1    Zn1   S    
O15   Zn2   S    
C17   H3    S    
C9    C10   S    
C19   C21   S    
C9    C16   S    
H6    O2    S    
C15   N1    S    
C17   H15   S    
C2    N2    D    
C7    C12   S    
C1    O1    A    
C20   O2    S    
C9    O8    S    
C8    H14   S    
C22   H16   S    
C7    O6    S    
C14   O4    D    
O10   Zn1   S    
C2    H17   S    
C13   H7    S    
C15   H9    S    
C5    C12   S    
C8    C10   S    
C3    O11   A    
C15   O5    D    
C4    O13   A    
O13   Zn2   S    
C5    O14   A    
O9    Zn2   S    
O14   Zn1   S    
H13   O8    S    
C5    O15   A    
C16   H11   S    
C3    O10   A    
N2    Zn2   S    
C23   N1    D    
C8    C17   S    
C4    O12   A    
N1    Zn1   S    
H19   N2    S    
C4    C20   S    
