data_mof_unit_52989.cif
_audit_creation_date              2012-12-10T16:50:10-0500
_audit_creation_method            fapswitch 2.2
_symmetry_space_group_name_H-M    P1
_symmetry_Int_Tables_number       1
_space_group_crystal_system       triclinic
_cell_length_a                    7.823911
_cell_length_b                    8.567678
_cell_length_c                    10.704559
_cell_angle_alpha                 92.60002
_cell_angle_beta                  83.118528
_cell_angle_gamma                 93.533565
_cell_volume                      710.510076072

loop_
_atom_site_label
_atom_site_type_symbol
_atom_type_description
_atom_site_fract_x
_atom_site_fract_y
_atom_site_fract_z
_atom_type_partial_charge
C1    C     C_R   0.545608 0.794563 0.494923 0.935694
C2    C     C_R   0.454752 0.205476 0.501255 0.967294
C3    C     C_R   0.504335 0.513442 0.261234 0.854136
C4    C     C_R   0.190568 0.617541 0.921358 -0.187577
C5    C     C_R   0.075063 0.702767 0.003025 -0.157882
C6    C     C_R   0.118885 0.757226 0.119385 -0.151688
C7    C     C_R   0.271306 0.714246 0.158898 -0.155135
C8    C     C_R   0.380437 0.613127 0.082446 0.096338
C9    C     C_3   0.044972 0.776461 0.631756 0.190814
C10   C     C_3   0.927466 0.888644 0.709542 -0.885460
C11   C     C_3   0.960289 0.323308 0.282597 0.195704
C12   C     C_R   0.352614 0.580056 0.956854 0.095529
C13   C     C_3   0.073355 0.221038 0.191430 -0.897571
C14   C     C_R   0.487934 0.508675 0.875980 -0.119878
C15   C     C_R   0.630311 0.454243 0.924364 -0.202629
C16   C     C_R   0.639525 0.463878 0.050749 -0.237379
C17   C     C_R   0.512586 0.537856 0.129840 -0.119534
C18   C     C_2   0.570175 0.957764 0.488873 -0.403112
C19   C     C_2   0.431387 0.042249 0.499809 -0.383198
C20   C     C_R   0.496332 0.501391 0.740983 0.867281
H1    H     H_    0.732443 0.397769 0.864883 0.181385
H2    H     H_    0.162539 0.770027 0.679316 0.166643
H3    H     H_    0.882784 0.841354 0.803094 0.250340
H4    H     H_    0.998177 0.003607 0.722253 0.218878
H5    H     H_    0.812927 0.906182 0.661433 0.261203
H6    H     H_    0.950820 0.435933 0.236657 0.154220
H7    H     H_    0.832283 0.260513 0.302027 0.167847
H8    H     H_    0.092145 0.109472 0.235482 0.251314
H9    H     H_    0.011098 0.194859 0.104324 0.210255
H10   H     H_    0.201124 0.282444 0.165991 0.271880
H11   H     H_    0.141829 0.575750 0.835885 0.198262
H12   H     H_    0.950753 0.726603 0.976207 0.151809
H13   H     H_    0.031719 0.827688 0.180976 0.135078
H14   H     H_    0.301531 0.758543 0.250449 0.148008
H15   H     H_    0.742986 0.407935 0.086604 0.158463
H16   H     H_    0.701904 0.008177 0.477217 0.184239
H17   H     H_    0.300323 0.992659 0.509416 0.162021
H18   H     H_    0.075316 0.824040 0.536177 0.133676
N1    N     N_2   0.950330 0.457950 0.466250 0.159961
N2    N     N_2   0.049670 0.542050 0.533750 0.156751
O1    O     O_R   0.389250 0.738570 0.508280 -0.672335
O2    O     O_3   0.037228 0.349366 0.393783 -0.520174
O3    O     O_R   0.678390 0.711630 0.486650 -0.601556
O4    O     O_R   0.355400 0.513470 0.694050 -0.658443
O5    O     O_R   0.644540 0.486530 0.672420 -0.563304
O6    O     O_R   0.321610 0.288370 0.513350 -0.572068
O7    O     O_R   0.610750 0.261430 0.491720 -0.637062
O8    O     O_R   0.355460 0.513470 0.327580 -0.592530
O9    O     O_R   0.644600 0.486530 0.305950 -0.679543
O10   O     O_3   0.959746 0.628387 0.624215 -0.530970
Zn1   Zn    Zn3+2 0.306930 0.517990 0.514440 1.000699
Zn2   Zn    Zn3+2 0.693070 0.482010 0.485560 1.003302

loop_
_geom_bond_atom_site_label_1
_geom_bond_atom_site_label_2
_ccdc_geom_bond_type
C13   H8    S    
C6    C7    A    
O1    Zn1   S    
C10   H3    S    
C4    C12   A    
N2    Zn1   S    
C9    C10   S    
C3    O8    A    
C8    C17   A    
O5    Zn2   S    
C6    H13   S    
C11   H7    S    
C8    C12   A    
O9    Zn2   S    
C5    H12   S    
N1    Zn2   S    
C3    O9    A    
C7    C8    A    
C2    O6    A    
C11   C13   S    
C1    C18   S    
O7    Zn2   S    
N2    O10   S    
C10   H5    S    
C1    O1    A    
C9    H18   S    
C20   O4    A    
C12   C14   A    
C3    C17   S    
N1    O2    S    
C16   H15   S    
C5    C6    A    
C2    O7    A    
C7    H14   S    
O3    Zn2   S    
C4    H11   S    
C16   C17   A    
C15   C16   A    
C14   C20   S    
C13   H10   S    
C15   H1    S    
O4    Zn1   S    
C11   O2    S    
C9    H2    S    
C13   H9    S    
N1    N2    D    
C14   C15   A    
C18   C19   D    
C19   H17   S    
C11   H6    S    
C10   H4    S    
C2    C19   S    
C18   H16   S    
O6    Zn1   S    
C1    O3    A    
O8    Zn1   S    
C9    O10   S    
C20   O5    A    
C4    C5    A    
