data_mof_unit_46062.cif
_audit_creation_date              2012-12-10T18:50:53-0500
_audit_creation_method            fapswitch 2.2
_symmetry_space_group_name_H-M    P1
_symmetry_Int_Tables_number       1
_space_group_crystal_system       triclinic
_cell_length_a                    10.724301
_cell_length_b                    9.948137
_cell_length_c                    15.724523
_cell_angle_alpha                 89.954925
_cell_angle_beta                  91.431462
_cell_angle_gamma                 90.004034
_cell_volume                      1677.07522401

loop_
_atom_site_label
_atom_site_type_symbol
_atom_type_description
_atom_site_fract_x
_atom_site_fract_y
_atom_site_fract_z
_atom_type_partial_charge
C1    C     C_R   0.260171 0.500011 0.500288 0.885578
C2    C     C_R   0.936153 0.622646 0.500081 -0.133722
C3    C     C_R   0.872410 0.500107 0.499184 -0.034694
C4    C     C_R   0.127540 0.500079 0.500621 -0.036441
C5    C     C_R   0.559670 0.071637 0.563851 -0.036716
C6    C     C_R   0.559972 0.928122 0.563718 -0.036771
C7    C     C_R   0.499602 0.500068 0.338542 0.894975
C8    C     C_R   0.440066 0.928212 0.436203 -0.040771
C9    C     C_R   0.440653 0.071733 0.435921 -0.039023
C10   C     C_R   0.739773 0.500021 0.499656 0.891393
C11   C     C_R   0.499986 0.499954 0.661486 0.895770
C12   C     C_3   0.631981 0.523579 0.953028 -0.436955
C13   C     C_3   0.411445 0.613869 0.048525 -0.513148
C14   C     C_3   0.449896 0.363264 0.049501 -0.488050
C15   C     C_3   0.445678 0.363159 0.950870 -0.213042
C16   C     C_3   0.409027 0.613624 0.949797 -0.208815
C17   C     C_1   0.498772 0.499871 0.750308 -0.077581
C18   C     C_3   0.498423 0.500658 0.082914 0.073332
C19   C     C_3   0.497360 0.500210 0.917323 0.007686
C20   C     C_2   0.372926 0.856237 0.367173 0.973451
C21   C     C_2   0.375503 0.143438 0.365865 0.977509
C22   C     C_2   0.509734 0.239925 0.915575 0.982618
C23   C     C_3   0.632805 0.524413 0.051278 1.185359
C24   C     C_2   0.436778 0.752115 0.914359 0.978549
C25   C     C_2   0.626509 0.143274 0.633103 0.974210
C26   C     C_2   0.626691 0.856122 0.632990 0.971245
C27   C     C_1   0.497750 0.499952 0.825600 -0.039392
C28   C     C_1   0.498657 0.500619 0.174391 0.057679
C29   C     C_1   0.499052 0.500315 0.249702 -0.071317
C30   C     C_R   0.063775 0.377600 0.499935 -0.157772
C31   C     C_R   0.063875 0.622630 0.501018 -0.135780
C32   C     C_R   0.936106 0.377628 0.498422 -0.153417
F1    F     F_    0.677816 0.647032 0.080757 -0.622412
F2    F     F_    0.712076 0.424374 0.082019 -0.631432
H1    H     H_    0.312078 0.587969 0.928142 0.161504
H2    H     H_    0.112128 0.718266 0.502144 0.206290
H3    H     H_    0.887964 0.281991 0.496668 0.215287
H4    H     H_    0.887976 0.718305 0.500019 0.207002
H5    H     H_    0.368365 0.801155 0.243719 0.339716
H6    H     H_    0.222507 0.244673 0.325469 0.341473
H7    H     H_    0.665671 0.127087 0.909533 0.361492
H8    H     H_    0.550883 0.912981 0.912673 0.374173
H9    H     H_    0.781428 0.242287 0.672160 0.339552
H10   H     H_    0.631011 0.802024 0.756657 0.341218
H11   H     H_    0.345633 0.356333 0.930126 0.163941
H12   H     H_    0.315104 0.597769 0.071366 0.197236
H13   H     H_    0.354453 0.344275 0.073169 0.202976
H14   H     H_    0.510140 0.280936 0.075398 0.258665
H15   H     H_    0.442827 0.712597 0.074631 0.250833
H16   H     H_    0.670375 0.619425 0.928731 0.214219
H17   H     H_    0.696301 0.445219 0.929735 0.222207
H18   H     H_    0.111861 0.281926 0.500532 0.215146
N1    N     N_R   0.499970 0.857200 0.499980 -0.160240
N2    N     N_R   0.499970 0.142800 0.499980 -0.160261
O1    O     O_R   0.316750 0.614620 0.499990 -0.601912
O2    O     O_R   0.423364 0.851944 0.286100 -0.747346
O3    O     O_2   0.422331 0.148437 0.295817 -0.584468
O4    O     O_R   0.258010 0.199070 0.378428 -0.806355
O5    O     O_2   0.451616 0.164739 0.867558 -0.553734
O6    O     O_R   0.633465 0.210495 0.938720 -0.761566
O7    O     O_2   0.364517 0.802891 0.862207 -0.556196
O8    O     O_R   0.543042 0.822678 0.941826 -0.763270
O9    O     O_2   0.580681 0.149740 0.703365 -0.564185
O10   O     O_R   0.744670 0.196651 0.619637 -0.810642
O11   O     O_2   0.727720 0.804342 0.620267 -0.634855
O12   O     O_R   0.316750 0.385380 0.499990 -0.603389
O13   O     O_R   0.576346 0.852968 0.714110 -0.740967
O14   O     O_R   0.499990 0.614720 0.377140 -0.606072
O15   O     O_R   0.499990 0.385280 0.377140 -0.604736
O16   O     O_R   0.683220 0.614710 0.500000 -0.600754
O17   O     O_R   0.683220 0.385290 0.500000 -0.603122
O18   O     O_R   0.499980 0.614620 0.622860 -0.606620
O19   O     O_R   0.499980 0.385380 0.622860 -0.604174
O20   O     O_2   0.271503 0.805415 0.380065 -0.630609
Zn1   Zn    Zn3+2 0.499980 0.653120 0.500000 1.028284
Zn2   Zn    Zn3+2 0.499980 0.346880 0.500000 1.022161

loop_
_geom_bond_atom_site_label_1
_geom_bond_atom_site_label_2
_ccdc_geom_bond_type
C8    N1    A    
C7    O15   A    
C12   H16   S    
C21   O3    D    
C24   O7    D    
C7    C29   S    
C8    C9    A    
C30   C32   A    
C19   C27   S    
C14   C18   S    
H5    O2    S    
C20   O2    S    
C1    C4    S    
O1    Zn1   S    
C10   O17   A    
C23   F2    S    
C1    O12   A    
C1    O1    A    
C24   O8    S    
C20   O20   D    
C21   O4    S    
C16   C24   S    
C3    C10   S    
C8    C20   S    
C32   H3    S    
C2    H4    S    
O14   Zn1   S    
C15   C19   S    
C5    C6    A    
C26   O11   D    
C12   C23   S    
C9    C21   S    
C6    C26   S    
C13   C18   S    
O18   Zn1   S    
N2    Zn2   S    
C26   O13   S    
C10   O16   A    
C12   C19   S    
C28   C29   T    
C11   O18   A    
H9    O10   S    
C2    C3    A    
C5    N2    A    
C16   C19   S    
C16   H1    S    
C13   H15   S    
C3    C32   A    
O19   Zn2   S    
C5    C25   S    
C4    C31   A    
H6    O4    S    
C15   H11   S    
C6    N1    A    
C18   C23   S    
C17   C27   T    
C11   O19   A    
O17   Zn2   S    
C22   O5    D    
C12   H17   S    
C18   C28   S    
O16   Zn1   S    
O15   Zn2   S    
C25   O9    D    
C13   C16   S    
C13   H12   S    
C14   H14   S    
H8    O8    S    
C31   H2    S    
C2    C31   A    
H10   O13   S    
C30   H18   S    
C9    N2    A    
C22   O6    S    
C7    O14   A    
C14   C15   S    
C14   H13   S    
C15   C22   S    
C4    C30   A    
O12   Zn2   S    
H7    O6    S    
N1    Zn1   S    
C23   F1    S    
C25   O10   S    
C11   C17   S    
