data_mof_unit_58967.cif
_audit_creation_date              2012-12-10T20:50:10-0500
_audit_creation_method            fapswitch 2.2
_symmetry_space_group_name_H-M    P1
_symmetry_Int_Tables_number       1
_space_group_crystal_system       triclinic
_cell_length_a                    19.160356
_cell_length_b                    8.919601
_cell_length_c                    8.11257
_cell_angle_alpha                 89.857342
_cell_angle_beta                  90.00035
_cell_angle_gamma                 90.000149
_cell_volume                      1386.45606707

loop_
_atom_site_label
_atom_site_type_symbol
_atom_type_description
_atom_site_fract_x
_atom_site_fract_y
_atom_site_fract_z
_atom_type_partial_charge
C1    C     C_R   0.500000 0.218037 0.500130 0.972873
C2    C     C_R   0.254695 0.371833 0.443300 0.295369
C3    C     C_R   0.181350 0.625022 0.557253 0.358540
C4    C     C_R   0.818085 0.370594 0.444261 0.358919
C5    C     C_R   0.818650 0.625030 0.557235 0.358543
C6    C     C_R   0.181915 0.370597 0.444246 0.358917
C7    C     C_R   0.145531 0.497329 0.501013 -0.281291
C8    C     C_R   0.854468 0.497332 0.501010 -0.281299
C9    C     C_R   0.290305 0.499205 0.500062 -0.353462
C10   C     C_R   0.709696 0.499206 0.500065 -0.353465
C11   C     C_R   0.929960 0.496510 0.501175 0.445220
C12   C     C_R   0.500000 0.781964 0.499871 0.971976
C13   C     C_R   0.070039 0.496507 0.501177 0.445220
C14   C     C_R   0.365534 0.499976 0.500003 1.032851
C15   C     C_R   0.634465 0.499976 0.500003 1.032857
C16   C     C_1   0.500000 0.065223 0.500184 -0.067463
C17   C     C_1   0.500000 0.934777 0.499816 -0.068036
C18   C     C_R   0.254133 0.625648 0.557281 0.295598
C19   C     C_R   0.745304 0.371828 0.443317 0.295370
C20   C     C_R   0.745867 0.625654 0.557268 0.295597
Cl1   Cl    Cl    0.299984 0.786912 0.623752 -0.445743
Cl2   Cl    Cl    0.698740 0.211670 0.376385 -0.447546
Cl3   Cl    Cl    0.700017 0.786922 0.623728 -0.445738
Cl4   Cl    Cl    0.301259 0.211683 0.376346 -0.447548
Cl5   Cl    Cl    0.135377 0.786869 0.621410 -0.345497
Cl6   Cl    Cl    0.863328 0.207659 0.380544 -0.345411
Cl7   Cl    Cl    0.864624 0.786886 0.621368 -0.345486
Cl8   Cl    Cl    0.136671 0.207669 0.380507 -0.345418
N1    N     N_1   0.500000 0.500000 0.073640 0.002445
N2    N     N_1   0.500000 0.500000 0.926360 0.002368
N3    N     N_R   0.034616 0.480108 0.357946 -0.077029
N4    N     N_R   0.965382 0.512772 0.644432 -0.076780
N5    N     N_R   0.965383 0.480109 0.357945 -0.077031
N6    N     N_R   0.034617 0.512770 0.644433 -0.076776
O1    O     O_R   0.500000 0.285350 0.636850 -0.620250
O2    O     O_R   0.500000 0.714650 0.363150 -0.620032
O3    O     O_R   0.500000 0.714650 0.636850 -0.599550
O4    O     O_R   0.500000 0.285350 0.363150 -0.599028
O5    O     O_R   0.398140 0.500000 0.636920 -0.596963
O6    O     O_R   0.601860 0.500000 0.363080 -0.596673
O7    O     O_R   0.601860 0.500000 0.636920 -0.596967
O8    O     O_R   0.398140 0.500000 0.363080 -0.596666
Zn1   Zn    Zn3+2 0.500000 0.500000 0.682780 1.092052
Zn2   Zn    Zn3+2 0.500000 0.500000 0.317220 1.092431

loop_
_geom_bond_atom_site_label_1
_geom_bond_atom_site_label_2
_ccdc_geom_bond_type
C12   C17   S    
O3    Zn1   S    
C5    C8    A    
C4    Cl6   S    
C9    C14   S    
N3    N5    A    
O4    Zn2   S    
C6    C7    A    
C11   N5    A    
C12   O2    A    
C18   Cl1   S    
O1    Zn1   S    
O6    Zn2   S    
C4    C19   A    
C20   Cl3   S    
C14   O8    A    
C10   C19   A    
C4    C8    A    
C19   Cl2   S    
C13   N6    A    
C1    C16   S    
O7    Zn1   S    
C1    O1    A    
C2    C6    A    
O8    Zn2   S    
C1    O4    A    
C8    C11   S    
C11   N4    A    
C3    C7    A    
C10   C15   S    
N1    Zn2   S    
C2    Cl4   S    
N2    Zn1   S    
C15   O6    A    
O2    Zn2   S    
N1    N2    T    
C9    C18   A    
C7    C13   S    
C3    Cl5   S    
C15   O7    A    
C3    C18   A    
C12   O3    A    
C5    C20   A    
O5    Zn1   S    
C14   O5    A    
C5    Cl7   S    
C2    C9    A    
C13   N3    A    
C6    Cl8   S    
C10   C20   A    
C16   C17   T    
N4    N6    A    
