data_mof_unit_58067.cif
_audit_creation_date              2012-12-10T19:10:05-0500
_audit_creation_method            fapswitch 2.2
_symmetry_space_group_name_H-M    P1
_symmetry_Int_Tables_number       1
_space_group_crystal_system       triclinic
_cell_length_a                    10.828269
_cell_length_b                    10.824238
_cell_length_c                    9.529609
_cell_angle_alpha                 89.915931
_cell_angle_beta                  89.975134
_cell_angle_gamma                 90.265854
_cell_volume                      1116.93079739

loop_
_atom_site_label
_atom_site_type_symbol
_atom_type_description
_atom_site_fract_x
_atom_site_fract_y
_atom_site_fract_z
_atom_type_partial_charge
C1    C     C_R   0.501287 0.262287 0.499985 0.839474
C2    C     C_R   0.242728 0.732388 0.039894 -0.122600
C3    C     C_R   0.933714 0.548288 0.388075 -0.256160
C4    C     C_R   0.871685 0.493016 0.500852 -0.042630
C5    C     C_R   0.938649 0.441058 0.613699 0.064384
C6    C     C_R   0.066658 0.449327 0.612266 -0.243703
C7    C     C_R   0.128444 0.504719 0.499439 -0.081881
C8    C     C_R   0.061585 0.555355 0.386149 0.003131
C9    C     C_R   0.892719 0.418529 0.869587 -0.282877
C10   C     C_R   0.836171 0.357051 0.981815 -0.119200
C11   C     C_R   0.767960 0.249334 0.957932 -0.188449
C12   C     C_R   0.262339 0.502801 0.499828 0.788031
C13   C     C_R   0.756933 0.202476 0.821961 -0.202690
C14   C     C_R   0.812002 0.264416 0.708932 0.641569
C15   C     C_R   0.879327 0.374027 0.732011 0.020424
C16   C     C_R   0.510390 0.063296 0.625386 0.149814
C17   C     C_R   0.511734 0.129213 0.499565 -0.050481
C18   C     C_R   0.529212 0.064762 0.373136 -0.188744
C19   C     C_R   0.528995 0.936003 0.373034 -0.230070
C20   C     C_R   0.512006 0.870869 0.499387 -0.096193
C21   C     C_R   0.510923 0.936221 0.625384 0.131340
C22   C     C_3   0.422531 0.928917 0.745480 -0.483770
C23   C     C_R   0.501477 0.737714 0.499814 0.792224
C24   C     C_3   0.422235 0.069091 0.745718 -0.507371
C25   C     C_R   0.538347 0.602012 0.073305 0.276277
C26   C     C_R   0.448968 0.405168 0.074624 -0.066478
C27   C     C_R   0.448928 0.405210 0.925699 -0.078252
C28   C     C_R   0.537178 0.602490 0.925961 0.251003
C29   C     C_3   0.659747 0.664963 0.918113 -0.496638
C30   C     C_3   0.662639 0.661852 0.077435 -0.513799
C31   C     C_R   0.737695 0.496276 0.500278 0.842582
C32   C     C_R   0.247004 0.786367 0.172988 -0.118835
C33   C     C_R   0.186723 0.729728 0.286015 -0.103482
C34   C     C_R   0.121851 0.618406 0.266125 0.132366
C35   C     C_R   0.117748 0.564921 0.132076 -0.148617
C36   C     C_R   0.178325 0.621727 0.019425 -0.141547
Cu1   Cu    Cu3+1 0.499990 0.499980 0.640670 0.946177
Cu2   Cu    Cu3+1 0.500010 0.500020 0.359330 0.956297
H1    H     H_    0.289789 0.775880 0.952750 0.120954
H2    H     H_    0.724435 0.201633 0.044910 0.152531
H3    H     H_    0.706362 0.117552 0.804575 0.146938
H4    H     H_    0.537367 0.113094 0.273919 0.151265
H5    H     H_    0.536313 0.888223 0.273751 0.153252
H6    H     H_    0.332148 0.887528 0.715410 0.197436
H7    H     H_    0.465709 0.888929 0.840922 0.188111
H8    H     H_    0.331631 0.109522 0.716193 0.198607
H9    H     H_    0.465592 0.109018 0.841222 0.190640
H10   H     H_    0.409293 0.327483 0.130310 0.134264
H11   H     H_    0.297385 0.871825 0.188643 0.124420
H12   H     H_    0.408815 0.327937 0.870225 0.134657
H13   H     H_    0.731374 0.607052 0.868207 0.231315
H14   H     H_    0.652948 0.760008 0.874718 0.189961
H15   H     H_    0.734837 0.599611 0.119622 0.209125
H16   H     H_    0.660216 0.755253 0.125309 0.189627
H17   H     H_    0.191449 0.771728 0.388993 0.102660
H18   H     H_    0.069742 0.478202 0.115759 0.125638
H19   H     H_    0.176077 0.579602 0.916488 0.135995
H20   H     H_    0.882394 0.589853 0.302820 0.145274
H21   H     H_    0.118527 0.408143 0.697622 0.150848
H22   H     H_    0.944680 0.502393 0.889247 0.150509
H23   H     H_    0.845250 0.392842 0.087320 0.151335
N1    N     N_R   0.500790 0.500930 0.147930 -0.180921
N2    N     N_R   0.500790 0.500890 0.852020 -0.181546
O1    O     O_R   0.500000 0.319640 0.618810 -0.583942
O2    O     O_R   0.500010 0.319680 0.381230 -0.595784
O3    O     O_R   0.319640 0.499990 0.618790 -0.595823
O4    O     O_R   0.319650 0.500030 0.381210 -0.567185
O5    O     O_R   0.499990 0.680320 0.618770 -0.583146
O6    O     O_R   0.500000 0.680360 0.381190 -0.584843
O7    O     O_R   0.680350 0.499970 0.618790 -0.586080
O8    O     O_R   0.680360 0.500010 0.381210 -0.584554
F1    F     F_    0.801172 0.216913 0.577761 -0.702161

loop_
_geom_bond_atom_site_label_1
_geom_bond_atom_site_label_2
_ccdc_geom_bond_type
C23   O5    A    
C33   H17   S    
Cu2   O4    S    
C1    O2    A    
C3    H20   S    
C12   O3    A    
C16   C21   A    
C11   C13   A    
C9    C10   A    
C23   O6    A    
C1    C17   S    
C19   C20   A    
C20   C23   S    
C26   H10   S    
C9    H22   S    
C24   H8    S    
C32   C33   A    
Cu1   O1    S    
Cu1   O5    S    
C13   H3    S    
C33   C34   A    
C26   N1    A    
Cu2   O6    S    
C7    C8    A    
C16   C24   S    
C17   C18   A    
C8    C34   S    
C13   C14   A    
Cu1   O3    S    
C25   C28   A    
C30   H16   S    
C26   C27   A    
C29   C30   S    
C27   N2    A    
C5    C6    A    
C6    H21   S    
C31   O8    A    
C28   C29   S    
C12   O4    A    
Cu1   Cu2   S    
C19   H5    S    
C34   C35   A    
C6    C7    A    
C25   N1    A    
C18   H4    S    
C9    C15   A    
C11   H2    S    
C32   H11   S    
C30   H15   S    
C22   C24   S    
C7    C12   S    
C5    C15   S    
C10   H23   S    
C16   C17   A    
C10   C11   A    
C2    H1    S    
C24   H9    S    
C3    C4    A    
C4    C31   S    
C28   N2    A    
C35   H18   S    
C22   H7    S    
C20   C21   A    
C36   H19   S    
C27   H12   S    
C2    C32   A    
C3    C8    A    
C29   H13   S    
C2    C36   A    
C25   C30   S    
C14   C15   A    
C18   C19   A    
Cu1   N2    S    
C21   C22   S    
Cu1   O7    S    
Cu2   O2    S    
C14   F1    S    
C1    O1    A    
C29   H14   S    
C31   O7    A    
C22   H6    S    
Cu2   O8    S    
C4    C5    A    
Cu2   N1    S    
C35   C36   A    
