data_mof_unit_27461.cif
_audit_creation_date              2012-12-10T16:57:08-0500
_audit_creation_method            fapswitch 2.2
_symmetry_space_group_name_H-M    P1
_symmetry_Int_Tables_number       1
_space_group_crystal_system       triclinic
_cell_length_a                    7.789971
_cell_length_b                    8.566515
_cell_length_c                    16.774215
_cell_angle_alpha                 92.235521
_cell_angle_beta                  80.474887
_cell_angle_gamma                 93.66685
_cell_volume                      1101.23960698

loop_
_atom_site_label
_atom_site_type_symbol
_atom_type_description
_atom_site_fract_x
_atom_site_fract_y
_atom_site_fract_z
_atom_type_partial_charge
C1    C     C_R   0.546043 0.794697 0.497990 0.942175
C2    C     C_R   0.410465 0.601885 0.230518 -0.158297
C3    C     C_R   0.570530 0.351964 0.847906 -0.114887
C4    C     C_R   0.422353 0.620558 0.148255 -0.114432
C5    C     C_R   0.432364 0.410587 0.902089 0.163179
C6    C     C_R   0.562478 0.561281 0.095579 0.164367
C7    C     C_R   0.300121 0.486123 0.874891 -0.120618
C8    C     C_R   0.697555 0.493736 0.124646 -0.119936
C9    C     C_R   0.312569 0.512753 0.793037 -0.167702
C10   C     C_R   0.686910 0.476613 0.207234 -0.170292
C11   C     C_2   0.447916 0.424986 0.986395 0.048003
C12   C     C_R   0.453955 0.205303 0.502026 0.940757
C13   C     C_2   0.550359 0.543557 0.011021 0.048400
C14   C     C_2   0.570349 0.958152 0.496800 -0.353099
C15   C     C_2   0.429646 0.041853 0.503250 -0.352222
C16   C     C_R   0.476198 0.495918 0.653830 0.845850
C17   C     C_R   0.523614 0.502908 0.346093 0.845897
C18   C     C_R   0.458377 0.465133 0.739119 -0.033478
C19   C     C_R   0.540154 0.525789 0.260057 -0.035166
C20   C     C_R   0.584344 0.380254 0.766431 -0.160210
F1    F     F_    0.040743 0.354133 0.428485 -0.565929
F2    F     F_    0.959259 0.645877 0.571508 -0.565004
H1    H     H_    0.695072 0.338504 0.725157 0.170332
H2    H     H_    0.296715 0.990942 0.509435 0.207460
H3    H     H_    0.298509 0.644207 0.270723 0.171214
H4    H     H_    0.789287 0.419757 0.229408 0.182193
H5    H     H_    0.212724 0.575836 0.772438 0.181916
H6    H     H_    0.194227 0.532930 0.917379 0.161384
H7    H     H_    0.805230 0.446794 0.083339 0.161375
H8    H     H_    0.317467 0.672015 0.125229 0.159821
H9    H     H_    0.673542 0.294745 0.869447 0.161317
H10   H     H_    0.703279 0.009064 0.490619 0.207394
I1    I     I_    0.694088 0.714190 0.933360 -0.340065
I2    I     I_    0.304920 0.254209 0.064066 -0.338835
N1    N     N_2   0.953500 0.457650 0.478520 0.251594
N2    N     N_2   0.046500 0.542350 0.521480 0.252135
O1    O     O_R   0.388470 0.738640 0.505270 -0.609904
O2    O     O_R   0.611530 0.261360 0.494730 -0.610569
O3    O     O_R   0.679650 0.711510 0.491500 -0.579315
O4    O     O_R   0.320350 0.288490 0.508500 -0.579506
O5    O     O_R   0.337210 0.515200 0.623500 -0.614919
O6    O     O_R   0.662790 0.484800 0.376500 -0.615501
O7    O     O_R   0.628380 0.488060 0.609730 -0.583212
O8    O     O_R   0.371620 0.511940 0.390270 -0.583839
Zn1   Zn    Zn3+2 0.305580 0.518120 0.509190 1.110384
Zn2   Zn    Zn3+2 0.694420 0.481880 0.490810 1.109790

loop_
_geom_bond_atom_site_label_1
_geom_bond_atom_site_label_2
_ccdc_geom_bond_type
C12   O4    A    
C2    C4    A    
C20   H1    S    
C13   I1    S    
F1    N1    S    
F2    N2    S    
N1    N2    D    
C12   C15   S    
C1    O1    A    
C10   C19   A    
C10   H4    S    
C17   O8    A    
N2    Zn1   S    
C6    C13   S    
C3    H9    S    
C11   C13   D    
C16   O7    A    
O3    Zn2   S    
C8    H7    S    
C16   C18   S    
C15   H2    S    
C17   C19   S    
C5    C11   S    
C2    H3    S    
C18   C20   A    
C12   O2    A    
O4    Zn1   S    
O7    Zn2   S    
O2    Zn2   S    
C4    C6    A    
C1    O3    A    
O1    Zn1   S    
C7    C9    A    
C9    C18   A    
C3    C20   A    
O8    Zn1   S    
C9    H5    S    
C8    C10   A    
O6    Zn2   S    
C5    C7    A    
O5    Zn1   S    
C14   C15   D    
C6    C8    A    
C1    C14   S    
C2    C19   A    
C17   O6    A    
N1    Zn2   S    
C16   O5    A    
C11   I2    S    
C4    H8    S    
C7    H6    S    
C14   H10   S    
C3    C5    A    
