data_mof_unit_23842.cif
_audit_creation_date              2012-12-11T15:11:51-0500
_audit_creation_method            fapswitch 2.2
_symmetry_space_group_name_H-M    P1
_symmetry_Int_Tables_number       1
_space_group_crystal_system       triclinic
_cell_length_a                    20.394501
_cell_length_b                    7.521834
_cell_length_c                    14.374827
_cell_angle_alpha                 90.113058
_cell_angle_beta                  102.277165
_cell_angle_gamma                 89.870145
_cell_volume                      2154.71759803

loop_
_atom_site_label
_atom_site_type_symbol
_atom_type_description
_atom_site_fract_x
_atom_site_fract_y
_atom_site_fract_z
_atom_type_partial_charge
O1    O     O_R   0.449830 0.506740 0.599960 -0.543022
O2    O     O_R   0.550170 0.006740 0.400040 -0.545297
O3    O     O_R   0.588980 0.179860 0.596720 -0.550313
O4    O     O_R   0.411020 0.679860 0.403280 -0.552441
C1    C     C_R   0.615140 0.342142 0.617211 0.754096
C2    C     C_R   0.385164 0.842296 0.382104 0.769204
O5    O     O_R   0.452740 0.177340 0.612040 -0.492075
O6    O     O_R   0.547260 0.677340 0.387960 -0.492557
O7    O     O_R   0.412960 0.002070 0.415460 -0.506560
O8    O     O_R   0.587040 0.502070 0.584540 -0.504674
C3    C     C_R   0.434650 0.344720 0.633765 0.710806
C4    C     C_R   0.565240 0.844370 0.366033 0.711880
O9    O     O_3   0.487110 0.337570 0.435490 -0.361150
O10   O     O_3   0.512890 0.837570 0.564510 -0.358384
V1    V     V_3+5 0.502390 0.064650 0.511970 1.694368
V2    V     V_3+5 0.497610 0.564650 0.488030 1.693699
C5    C     C_R   0.612985 0.827925 0.126000 -0.063725
C6    C     C_R   0.386496 0.328519 0.873445 -0.058802
H1    H     H_    0.697401 0.721505 0.024548 0.185479
H2    H     H_    0.302301 0.219879 0.974354 0.185668
C7    C     C_R   0.607728 0.849085 0.292456 -0.105241
C8    C     C_R   0.392003 0.350079 0.707086 -0.109629
C9    C     C_R   0.929180 0.934272 0.304550 -0.116252
C10   C     C_R   0.069973 0.438837 0.696673 -0.089571
C11   C     C_R   0.891872 0.020996 0.363617 -0.060046
C12   C     C_R   0.107179 0.523589 0.637241 -0.058202
C13   C     C_R   0.821956 0.029437 0.335868 -0.086783
C14   C     C_R   0.177190 0.529063 0.663958 -0.098985
C15   C     C_R   0.787625 0.927769 0.259245 0.084317
C16   C     C_R   0.211662 0.426104 0.739918 0.085297
C17   C     C_R   0.825270 0.866449 0.192463 0.014655
C18   C     C_R   0.174181 0.364135 0.806589 0.013898
C19   C     C_R   0.716433 0.894262 0.243370 0.079891
C20   C     C_R   0.282932 0.392884 0.755700 0.080504
C21   C     C_R   0.683255 0.846961 0.150127 0.039699
C22   C     C_R   0.316161 0.345714 0.848946 0.036062
C23   C     C_R   0.721422 0.792063 0.085880 -0.124255
C24   C     C_R   0.278123 0.289797 0.912937 -0.123011
C25   C     C_R   0.790730 0.797116 0.106715 -0.125104
C26   C     C_R   0.208850 0.294105 0.892013 -0.122660
C27   C     C_R   0.677772 0.889370 0.316249 -0.143148
C28   C     C_R   0.321758 0.388892 0.682943 -0.113166
C29   C     C_R   0.579332 0.795594 0.199004 -0.039577
C30   C     C_R   0.420587 0.298178 0.800671 -0.042785
C31   C     C_R   0.896506 0.874762 0.213086 -0.096889
C32   C     C_R   0.103006 0.374434 0.786764 -0.089893
H3    H     H_    0.794089 0.106227 0.377914 0.171896
H4    H     H_    0.204921 0.605613 0.621876 0.181706
H5    H     H_    0.817405 0.743750 0.055925 0.147014
H6    H     H_    0.182314 0.240999 0.942850 0.146081
C33   C     C_3   0.218477 0.667003 0.188347 -0.166277
C34   C     C_3   0.782236 0.166065 0.810335 -0.162815
C35   C     C_3   0.297224 0.668365 0.245326 -0.246640
C36   C     C_3   0.703533 0.168067 0.753387 -0.248408
H7    H     H_    0.304746 0.561406 0.297263 0.148708
H8    H     H_    0.696255 0.060848 0.701477 0.146078
H9    H     H_    0.149429 0.820394 0.313804 0.206605
H10   H     H_    0.849970 0.315667 0.685753 0.181412
C37   C     C_3   0.186742 0.910520 0.295060 -0.219856
C38   C     C_3   0.813903 0.409974 0.704110 -0.204425
C39   C     C_3   0.245336 0.996022 0.153493 -0.166229
C40   C     C_3   0.755067 0.495344 0.845706 -0.145830
C41   C     C_3   0.189810 0.865029 0.186965 -0.167097
C42   C     C_3   0.810641 0.364155 0.812105 -0.209100
C43   C     C_3   0.316092 0.846724 0.308123 -0.169594
C44   C     C_3   0.684438 0.346640 0.690809 -0.183375
C45   C     C_3   0.256667 0.871452 0.367740 -0.148915
C46   C     C_3   0.743791 0.372197 0.630956 -0.099430
C47   C     C_3   0.318894 0.994422 0.229489 -0.191003
C48   C     C_3   0.681617 0.494311 0.769664 -0.186996
O11   O     O_R   0.912980 0.203550 0.915410 -0.487562
O12   O     O_R   0.087020 0.703550 0.084590 -0.495463
O13   O     O_R   0.047270 0.535570 0.887960 -0.553439
O14   O     O_R   0.952730 0.035570 0.112040 -0.532088
C49   C     C_R   0.064613 0.369621 0.865128 0.763381
C50   C     C_R   0.935438 0.869888 0.135101 0.788950
O15   O     O_R   0.911030 0.532970 0.903270 -0.537829
O16   O     O_R   0.088970 0.032970 0.096730 -0.494135
O17   O     O_R   0.949820 0.708150 0.099970 -0.535253
O18   O     O_R   0.050180 0.208150 0.900030 -0.536987
C51   C     C_R   0.884385 0.366686 0.881815 0.630220
C52   C     C_R   0.115812 0.866853 0.117806 0.709919
O19   O     O_3   0.012900 0.375230 0.064480 -0.353964
O20   O     O_3   0.987100 0.875230 0.935520 -0.379698
V3    V     V_3+5 0.997610 0.648190 0.988040 1.608379
V4    V     V_3+5 0.002390 0.148190 0.011960 1.678948
C53   C     C_2   0.528345 0.654459 0.181052 0.598560
H11   H     H_    0.484399 0.670340 0.125798 0.089985
O21   O     O_2   0.538602 0.512039 0.222268 -0.473176
C54   C     C_2   0.473272 0.161235 0.819102 0.600968
H12   H     H_    0.518111 0.183922 0.871912 0.088079
O22   O     O_2   0.463817 0.015665 0.780899 -0.470653
C55   C     C_2   0.207036 0.598903 0.083303 0.428601
H13   H     H_    0.233458 0.642474 0.031581 0.157978
O23   O     O_2   0.163748 0.491839 0.049583 -0.512456
C56   C     C_2   0.793570 0.098033 0.915228 0.439787
H14   H     H_    0.767370 0.142714 0.967122 0.156166
O24   O     O_2   0.836710 0.990008 0.948654 -0.515944
C57   C     C_2   0.350248 0.611140 0.190089 0.831913
O25   O     O_2   0.404575 0.558675 0.233846 -0.499659
O26   O     O_R   0.341101 0.630416 0.092145 -0.655933
H15   H     H_    0.382857 0.616317 0.066279 0.298161
C58   C     C_2   0.650536 0.111566 0.808694 0.832126
O27   O     O_2   0.596292 0.058881 0.765004 -0.498642
O28   O     O_R   0.659657 0.131096 0.906663 -0.655465
H16   H     H_    0.618224 0.112968 0.932771 0.296799
C59   C     C_2   0.252457 0.702630 0.423178 0.376238
H17   H     H_    0.297444 0.626647 0.447131 0.033121
O29   O     O_2   0.201644 0.660451 0.449845 -0.511587
C60   C     C_2   0.747787 0.202231 0.575856 0.324223
H18   H     H_    0.702616 0.127484 0.551784 0.031644
O30   O     O_2   0.798555 0.157940 0.549423 -0.498691
C61   C     C_2   0.226024 0.186475 0.143799 0.795924
O31   O     O_2   0.172606 0.237121 0.155793 -0.481413
O32   O     O_R   0.269735 0.311127 0.119875 -0.677710
H19   H     H_    0.316000 0.271186 0.117840 0.280007
C62   C     C_2   0.774372 0.685468 0.855188 0.791984
O33   O     O_2   0.827185 0.735635 0.841039 -0.512046
O34   O     O_R   0.730844 0.810659 0.879819 -0.677475
H20   H     H_    0.684430 0.771624 0.881348 0.278678
C63   C     C_2   0.240788 0.956275 0.047742 0.281782
H21   H     H_    0.191824 0.963490 0.000091 0.014197
O35   O     O_2   0.287063 0.910721 0.012084 -0.492428
C64   C     C_2   0.759631 0.456516 0.951530 0.284005
H22   H     H_    0.808517 0.464654 0.999308 0.025800
O36   O     O_2   0.713440 0.410992 0.987157 -0.493893
C65   C     C_2   0.381778 0.967755 0.183443 0.817398
O37   O     O_2   0.433152 0.903375 0.230496 -0.587127
O38   O     O_R   0.387481 0.048563 0.098667 -0.648531
H23   H     H_    0.432549 0.026607 0.081716 0.343540
C66   C     C_2   0.618642 0.469047 0.815465 0.813690
O39   O     O_2   0.567197 0.406022 0.768088 -0.586143
O40   O     O_R   0.613045 0.549103 0.900637 -0.649481
H24   H     H_    0.568114 0.526572 0.917811 0.341321
C67   C     C_2   0.337192 0.171070 0.284158 0.770378
O41   O     O_2   0.389396 0.248553 0.281327 -0.504952
O42   O     O_R   0.299341 0.235144 0.345344 -0.645018
H25   H     H_    0.324125 0.330363 0.388285 0.292070
C68   C     C_2   0.663848 0.670683 0.715025 0.776417
O43   O     O_2   0.611481 0.748910 0.716704 -0.507371
O44   O     O_R   0.702994 0.734341 0.655729 -0.611209
H26   H     H_    0.678660 0.828850 0.611835 0.299477
C69   C     C_2   0.153119 0.084451 0.311953 0.473169
H27   H     H_    0.177164 0.179760 0.363512 0.148780
O45   O     O_2   0.095688 0.117807 0.271402 -0.520771
C70   C     C_2   0.854153 0.575517 0.691235 0.542624
H28   H     H_    0.900080 0.603861 0.741938 0.069257
O46   O     O_2   0.841922 0.670187 0.621183 -0.482415
C71   C     C_2   0.267733 0.991261 0.456040 0.407001
H29   H     H_    0.224394 0.026312 0.484684 0.122468
O47   O     O_2   0.322546 0.019360 0.507035 -0.534375
C72   C     C_2   0.732283 0.489138 0.541711 0.503097
H30   H     H_    0.773519 0.506573 0.505802 0.168939
O48   O     O_2   0.677287 0.535617 0.497643 -0.553713
C73   C     C_2   0.575106 0.836367 0.024973 0.361736
H31   H     H_    0.600914 0.840018 0.967202 0.107148
O49   O     O_2   0.514128 0.850133 0.004582 -0.534592
C74   C     C_2   0.424076 0.337189 0.974661 0.360191
H32   H     H_    0.398053 0.340254 0.032212 0.108343
O50   O     O_2   0.484994 0.352016 0.995488 -0.537167
C75   C     C_2   0.709850 0.874096 0.417950 0.504014
H33   H     H_    0.680095 0.898281 0.469490 -0.000423
O51   O     O_2   0.766388 0.815138 0.444947 -0.482065
C76   C     C_2   0.290008 0.374556 0.580927 0.470157
H34   H     H_    0.320171 0.397031 0.529820 0.000667
O52   O     O_2   0.233069 0.319440 0.553035 -0.523613
C77   C     C_2   0.002105 0.908493 0.337293 0.451122
H35   H     H_    0.031164 0.992182 0.392339 0.123178
O53   O     O_2   0.030516 0.789027 0.304212 -0.535014
C78   C     C_2   0.996477 0.422864 0.666615 0.337676
H36   H     H_    0.967667 0.515792 0.616455 0.124849
O54   O     O_2   0.967582 0.300515 0.695960 -0.546844
C79   C     C_2   0.924209 0.095978 0.457122 0.877050
O55   O     O_2   0.911886 0.248626 0.477225 -0.519220
O56   O     O_R   0.967453 0.990028 0.523025 -0.651492
H37   H     H_    0.987748 0.055614 0.583787 0.335113
C80   C     C_2   0.074337 0.599389 0.544341 0.855812
O57   O     O_2   0.088768 0.749107 0.522802 -0.532608
O58   O     O_R   0.027831 0.497343 0.480815 -0.647550
H38   H     H_    0.006764 0.563421 0.420697 0.333697
C81   C     C_2   0.177526 0.544179 0.242954 0.958041
O59   O     O_2   0.206391 0.441663 0.302245 -0.557839
O60   O     O_R   0.107690 0.548226 0.230067 -0.598270
H39   H     H_    0.089568 0.466100 0.274447 0.346180
C82   C     C_2   0.823601 0.042454 0.755984 0.978001
O61   O     O_2   0.795157 0.940503 0.695884 -0.506201
O62   O     O_R   0.893575 0.044517 0.770628 -0.607803
H40   H     H_    0.912230 0.958351 0.728386 0.327436

loop_
_geom_bond_atom_site_label_1
_geom_bond_atom_site_label_2
_ccdc_geom_bond_type
C44   C46   S    
C53   H11   S    
O26   H15   S    
C9    C31   A    
O40   H24   S    
C27   C75   S    
C45   C71   S    
C62   O33   D    
O13   C49   A    
O1    C3    A    
C50   O17   A    
O2    C4    A    
C2    O7    A    
C40   C64   S    
O12   V3    S    
C54   H12   S    
C30   C54   S    
C67   O41   D    
C77   O53   D    
C66   O40   S    
C81   O59   D    
C35   C57   S    
O5    C3    A    
C55   H13   S    
O14   C50   A    
C31   C50   S    
C6    C74   S    
C76   H34   S    
C21   C23   A    
O20   V4    S    
C70   H28   S    
C71   O47   D    
C28   C76   S    
H9    C37   S    
C73   O49   D    
C78   H36   S    
H10   C38   S    
O32   H19   S    
C15   C19   A    
C13   C15   A    
C40   C48   S    
C39   C63   S    
O6    V2    S    
C39   C41   S    
C60   H18   S    
C40   C62   S    
O18   V4    S    
H1    C23   S    
C37   C45   S    
C7    C29   A    
C2    C43   S    
C8    C30   A    
C57   O25   D    
C17   C25   A    
C20   C28   A    
C43   C45   S    
C56   O24   D    
C40   C42   S    
C59   H17   S    
C10   C78   S    
C49   O18   A    
O16   V4    S    
O5    V1    S    
C37   C69   S    
C48   C68   S    
C47   C67   S    
C24   C26   A    
C67   O42   S    
C56   H14   S    
C74   O50   D    
C59   O29   D    
C38   C70   S    
C32   C49   S    
C75   O51   D    
C34   C36   S    
C75   H33   S    
C70   O46   D    
C35   H7    S    
C23   C25   A    
C36   H8    S    
C16   C20   A    
C41   C52   S    
C36   C58   S    
C33   C41   S    
O20   V3    S    
O4    C2    A    
C34   C42   S    
C81   O60   S    
C77   H35   S    
C62   O34   S    
O3    C1    A    
C79   O55   D    
C4    C7    S    
C33   C35   S    
O4    V2    S    
O60   H39   S    
C65   O38   S    
C46   C72   S    
C6    C30   A    
O11   V4    S    
H2    C24   S    
O16   C52   A    
C54   O22   D    
O56   H37   S    
O15   C51   A    
O6    C4    A    
C47   C65   S    
C35   C43   S    
O19   V4    S    
C5    C29   A    
C58   O28   S    
O1    V2    S    
C46   C60   S    
O14   V4    S    
O34   H20   S    
O2    V1    S    
O13   V3    S    
C63   H21   S    
C79   O56   S    
C33   C55   S    
C9    C77   S    
O19   V3    S    
C72   O48   D    
C53   O21   D    
C39   C61   S    
C74   H32   S    
C7    C27   A    
C37   C41   S    
C34   C82   S    
C65   O37   D    
C5    C73   S    
O17   V3    S    
O3    V1    S    
C64   O36   D    
C61   O31   D    
O42   H25   S    
C12   C80   S    
C13   H3    S    
C69   O45   D    
C14   H4    S    
C25   H5    S    
C18   C32   A    
C10   C12   A    
C1    C44   S    
C33   C81   S    
C68   O43   D    
C14   C16   A    
C36   C44   S    
C11   C13   A    
O28   H16   S    
C44   C48   S    
C3    C8    S    
C12   C14   A    
C38   C42   S    
C29   C53   S    
C76   O52   D    
O38   H23   S    
C19   C27   A    
C1    O8    A    
C15   C17   A    
O8    V2    S    
O44   H26   S    
C16   C18   A    
C68   O44   S    
C45   C59   S    
C82   O61   D    
C8    C28   A    
C78   O54   D    
C43   C47   S    
C22   C24   A    
C48   C66   S    
C19   C21   A    
C80   O58   S    
C34   C56   S    
C20   C22   A    
C39   C47   S    
C18   C26   A    
O7    V1    S    
C66   O39   D    
C60   O30   D    
C42   C51   S    
C63   O35   D    
C82   O62   S    
O15   V3    S    
O58   H38   S    
C11   C79   S    
C26   H6    S    
O62   H40   S    
C9    C11   A    
C58   O27   D    
C72   H30   S    
C38   C46   S    
C55   O23   D    
C80   O57   D    
C17   C31   A    
O9    V2    S    
C73   H31   S    
O10   V1    S    
C64   H22   S    
C5    C21   A    
C61   O32   S    
C71   H29   S    
C6    C22   A    
C57   O26   S    
O12   C52   A    
C69   H27   S    
C10   C32   A    
O11   C51   A    
