data_mof_unit_33173.cif
_audit_creation_date              2012-12-11T17:17:13-0500
_audit_creation_method            fapswitch 2.2
_symmetry_space_group_name_H-M    P1
_symmetry_Int_Tables_number       1
_space_group_crystal_system       triclinic
_cell_length_a                    8.386405
_cell_length_b                    16.412749
_cell_length_c                    18.785707
_cell_angle_alpha                 96.831941
_cell_angle_beta                  93.052988
_cell_angle_gamma                 93.351172
_cell_volume                      2558.25502209

loop_
_atom_site_label
_atom_site_type_symbol
_atom_type_description
_atom_site_fract_x
_atom_site_fract_y
_atom_site_fract_z
_atom_type_partial_charge
Ba1   Ba    Ba6+2 0.843980 0.537940 0.465850 1.725119
Ba2   Ba    Ba6+2 0.345840 0.462130 0.534150 1.689925
C1    C     C_3   0.387654 0.718755 0.180715 -0.234430
C2    C     C_3   0.423790 0.515135 0.246522 -0.025638
C3    C     C_2   0.367845 0.513475 0.167967 -0.141334
C4    C     C_3   0.014268 0.730405 0.275797 0.301325
C5    C     C_2   0.210329 0.496019 0.147050 -0.059922
C6    C     C_2   0.097115 0.480065 0.204732 -0.063075
C7    C     C_1   0.150874 0.485729 0.273547 0.081173
C8    C     C_R   0.039972 0.498134 0.929876 0.472144
C9    C     C_R   0.150692 0.495396 0.069741 0.520496
C10   C     C_R   0.078951 0.527203 0.801111 -0.090676
C11   C     C_R   0.025422 0.520755 0.727923 0.051705
C12   C     C_3   0.481608 0.725292 0.253453 0.781247
C13   C     C_R   0.770445 0.458012 0.756382 0.091715
C14   C     C_R   0.822655 0.465326 0.829407 -0.042497
C15   C     C_R   0.979700 0.497652 0.852744 -0.048767
C16   C     C_3   0.970493 0.771419 0.208983 0.300327
C17   C     C_R   0.873446 0.484342 0.706453 -0.224751
C18   C     C_R   0.385862 0.731426 0.469539 -0.275061
C19   C     C_R   0.531193 0.758298 0.506432 0.047990
C20   C     C_R   0.583154 0.841906 0.514140 -0.078299
C21   C     C_R   0.485486 0.899643 0.486533 0.303580
C22   C     C_R   0.333120 0.872045 0.455086 -0.054080
C23   C     C_3   0.463995 0.338155 0.316670 0.223206
C24   C     C_R   0.284063 0.788131 0.446523 -0.005213
C25   C     C_R   0.620040 0.146391 0.484890 -0.089208
C26   C     C_R   0.669245 0.229753 0.489085 -0.016545
C27   C     C_R   0.718092 0.091388 0.516501 0.260428
C28   C     C_3   0.210232 0.711506 0.619294 0.304326
C29   C     C_R   0.813581 0.259648 0.525855 -0.253038
C30   C     C_R   0.914795 0.206188 0.555150 0.065890
C31   C     C_R   0.867655 0.121972 0.549961 -0.179924
C32   C     C_3   0.229285 0.804324 0.639200 -0.333894
C33   C     C_3   0.943220 0.275959 0.345965 0.278194
C34   C     C_3   0.402687 0.305822 0.239736 -0.204550
C35   C     C_3   0.043819 0.230845 0.396110 -0.369074
C36   C     C_3   0.712319 0.650178 0.682617 0.268019
C37   C     C_3   0.732527 0.678421 0.763376 -0.210716
C38   C     C_2   0.853690 0.213446 0.290429 0.897144
C39   C     C_2   0.866231 0.743928 0.780869 0.942704
C40   C     C_2   0.537532 0.292451 0.191182 0.923612
C41   C     C_3   0.148411 0.261398 0.736906 0.609395
C42   C     C_3   0.238637 0.234865 0.803492 0.323489
C43   C     C_3   0.537449 0.246745 0.674396 0.359075
C44   C     C_3   0.523382 0.156228 0.687177 -0.261012
C45   C     C_2   0.287499 0.526720 0.294949 -0.283941
H1    H     H_    0.316540 0.820004 0.686114 0.151681
H2    H     H_    0.469594 0.714510 0.136086 0.181254
H3    H     H_    0.757187 0.625172 0.792447 -0.015062
H4    H     H_    0.619407 0.702727 0.782521 0.102311
H5    H     H_    0.404732 0.703595 0.294797 -0.197067
H6    H     H_    0.316652 0.772983 0.176521 0.156631
H7    H     H_    0.359767 0.359088 0.346146 0.039375
H8    H     H_    0.552370 0.391373 0.316996 0.040402
H9    H     H_    0.328214 0.247507 0.240018 0.132027
H10   H     H_    0.324690 0.350280 0.218057 0.004133
H11   H     H_    0.302431 0.664279 0.173772 0.055089
H12   H     H_    0.273101 0.834595 0.593826 0.028039
H13   H     H_    0.066956 0.817760 0.200426 0.061818
H14   H     H_    0.190963 0.325705 0.731803 -0.046005
H15   H     H_    0.367849 0.245365 0.800491 0.023683
H16   H     H_    0.209861 0.274650 0.852570 0.042478
H17   H     H_    0.631470 0.253871 0.636528 0.058800
H18   H     H_    0.427368 0.262844 0.646893 0.060479
H19   H     H_    0.617463 0.122154 0.659764 0.090858
H20   H     H_    0.535083 0.149333 0.745219 0.219285
H21   H     H_    0.921367 0.681690 0.282403 0.117676
H22   H     H_    0.407965 0.125909 0.663705 0.147269
H23   H     H_    0.112191 0.828287 0.652885 0.140347
H24   H     H_    0.455715 0.523974 0.129083 0.139295
H25   H     H_    0.972570 0.461373 0.189702 0.149603
H26   H     H_    0.197166 0.555355 0.817533 0.119925
H27   H     H_    0.743456 0.442045 0.867049 0.117255
H28   H     H_    0.303922 0.562891 0.347379 0.060208
H29   H     H_    0.833463 0.477720 0.650222 0.060197
H30   H     H_    0.507475 0.124851 0.455969 0.123742
H31   H     H_    0.253022 0.915886 0.437101 0.113902
H32   H     H_    0.696646 0.861565 0.543023 0.115215
H33   H     H_    0.131036 0.702898 0.270189 -0.066340
H34   H     H_    0.855849 0.311800 0.376589 -0.036718
H35   H     H_    0.947096 0.080241 0.571817 0.106863
H36   H     H_    0.345373 0.667069 0.464636 0.058045
H37   H     H_    0.851412 0.324163 0.528318 0.077464
H38   H     H_    0.861828 0.804833 0.218742 0.146595
H39   H     H_    0.327316 0.688639 0.605409 -0.002282
H40   H     H_    0.122036 0.697220 0.572606 0.054731
H41   H     H_    0.647823 0.932751 0.234467 0.376649
H42   H     H_    0.693773 0.115545 0.270282 0.346239
H43   H     H_    0.952657 0.858776 0.770075 0.322515
H44   H     H_    0.729649 0.341993 0.147674 0.340846
H45   H     H_    0.147519 0.205261 0.368714 0.140412
H46   H     H_    0.904241 0.134496 0.697945 0.338223
H47   H     H_    0.151422 0.011611 0.752905 0.361066
H48   H     H_    0.049003 0.672413 0.030190 0.378066
H49   H     H_    0.973061 0.179347 0.415030 0.085464
H50   H     H_    0.088117 0.275770 0.442387 0.140293
H51   H     H_    0.829737 0.634971 0.662086 -0.021641
H52   H     H_    0.627561 0.594801 0.673612 0.029492
N1    N     N_R   0.194370 0.522746 0.951951 -0.231639
N2    N     N_R   0.248221 0.521497 0.020108 -0.226818
N3    N     N_R   0.996492 0.470582 0.047647 -0.185915
N4    N     N_R   0.942679 0.471783 0.979487 -0.197756
N5    N     N_2   0.532413 0.985264 0.490463 -0.213891
N6    N     N_2   0.673162 0.005564 0.514161 -0.208346
O1    O     O_2   0.875590 0.454550 0.328720 -0.457324
O2    O     O_2   0.234126 0.209913 0.540566 -0.507569
O3    O     O_3   0.175092 0.209180 0.673991 -0.636340
O4    O     O_3   0.127960 0.455900 0.416100 -0.490904
O5    O     O_3   0.560420 0.597610 0.535760 -0.495784
O6    O     O_2   0.379340 0.302240 0.465940 -0.461930
O7    O     O_3   0.535743 0.274814 0.347848 -0.620258
O8    O     O_2   0.429455 0.440065 0.753684 -0.518313
O9    O     O_3   0.570447 0.299453 0.739414 -0.544495
O10   O     O_3   0.634460 0.601950 0.371690 -0.473938
O11   O     O_2   0.751247 0.545517 0.250222 -0.416282
O12   O     O_3   0.650766 0.713499 0.648283 -0.612005
O13   O     O_3   0.048908 0.324967 0.311345 -0.645710
O14   O     O_3   0.621483 0.682356 0.245712 -0.596000
O15   O     O_2   0.810360 0.697790 0.534100 -0.451409
O16   O     O_3   0.049190 0.643760 0.407000 -0.507087
O17   O     O_2   0.966656 0.790114 0.468394 -0.451915
O18   O     O_2   0.392673 0.874689 0.304312 -0.330596
O19   O     O_2   0.660783 0.838707 0.344057 -0.287289
O20   O     O_3   0.613824 0.875665 0.213700 -0.494454
O21   O     O_2   0.877025 0.213349 0.226685 -0.536462
O22   O     O_R   0.746204 0.154227 0.312186 -0.760553
O23   O     O_3   0.020648 0.791492 0.334926 -0.578759
O24   O     O_2   0.983266 0.731014 0.818538 -0.582392
O25   O     O_R   0.855602 0.819705 0.754552 -0.711238
O26   O     O_2   0.552300 0.224181 0.159283 -0.519557
O27   O     O_R   0.644057 0.358493 0.181701 -0.756535
O28   O     O_2   0.914823 0.298959 0.825637 -0.277964
O29   O     O_2   0.870308 0.306137 0.696602 -0.428653
O30   O     O_3   0.861699 0.161789 0.742025 -0.440537
O31   O     O_2   0.341140 0.103333 0.860279 -0.236389
O32   O     O_2   0.053731 0.121451 0.859739 -0.166872
O33   O     O_3   0.173553 0.067484 0.739335 -0.527793
O34   O     O_2   0.314110 0.545480 0.671320 -0.469695
O35   O     O_2   0.906382 0.614641 0.145904 -0.311610
O36   O     O_2   0.782378 0.724041 0.089608 -0.234563
O37   O     O_3   0.084966 0.707553 0.075409 -0.512653
O38   O     O_3   0.061730 0.544170 0.583900 -0.501973
O39   O     O_3   0.555240 0.398120 0.628310 -0.500551
O40   O     O_3   0.157137 0.676610 0.678730 -0.612117
O41   O     O_3   0.629280 0.402460 0.464250 -0.479802
O42   O     O_3   0.140510 0.356300 0.593010 -0.473056
P1    P     P_3+3 0.048660 0.430750 0.339650 0.999241
P2    P     P_3+3 0.638170 0.686040 0.555200 1.011175
P3    P     P_3+3 0.080194 0.751597 0.413701 1.008909
P4    P     P_3+3 0.141040 0.569320 0.660360 1.006427
P5    P     P_3+3 0.114775 0.247851 0.592955 0.985050
P6    P     P_3+3 0.601813 0.586300 0.277978 1.016934
P7    P     P_3+3 0.555244 0.300176 0.441082 0.972464
P8    P     P_3+3 0.578617 0.402277 0.721375 1.022397
S1    S     S_3+6 0.538170 0.831422 0.281939 -0.068055
S2    S     S_3+6 0.942389 0.258802 0.751652 -0.061886
S3    S     S_3+6 0.200201 0.129307 0.817680 0.009733
S4    S     S_3+6 0.931112 0.701160 0.128684 -0.066107

loop_
_geom_bond_atom_site_label_1
_geom_bond_atom_site_label_2
_ccdc_geom_bond_type
C37   H4    S    
Ba2   O4    S    
O30   S2    S    
C25   C27   A    
C42   S3    S    
C34   C40   S    
O37   S4    S    
C36   H51   S    
O5    P2    S    
C35   H50   S    
C1    H2    S    
C5    C6    S    
C37   C39   S    
C43   C44   S    
C13   C17   A    
O15   P2    D    
O32   S3    D    
C14   H27   S    
Ba2   O34   S    
O17   P3    D    
C17   H29   S    
C33   C35   S    
C22   C24   A    
C20   H32   S    
C44   H19   S    
O35   S4    D    
C36   C37   S    
C36   H52   S    
C8    C15   S    
C13   C14   A    
C27   C31   A    
O1    P1    D    
O16   P3    S    
Ba1   Ba2   S    
C44   H22   S    
C16   S4    S    
C23   O7    S    
Ba1   O4    S    
O3    P5    S    
C36   O12   S    
C43   O9    S    
O36   S4    D    
C12   H5    S    
C29   C30   A    
C14   C15   A    
O41   P7    S    
C10   C15   A    
C21   C22   A    
Ba1   P2    S    
C40   O26   D    
C19   P2    S    
C28   H39   S    
C31   H35   S    
C32   H23   S    
C13   P8    S    
O20   S1    S    
Ba1   O1    S    
O31   S3    D    
C4    H21   S    
C2    P6    S    
O14   P6    S    
O7    P7    S    
C10   H26   S    
O10   P6    S    
C26   P7    S    
Ba2   O38   S    
C27   N6    S    
Ba1   O41   S    
O8    P8    D    
N5    N6    D    
O18   S1    D    
C42   H16   S    
C33   H34   S    
C4    C16   S    
Ba2   O6    S    
C6    H25   S    
C16   H38   S    
C28   C32   S    
C24   P3    S    
C23   H7    S    
C11   P4    S    
C34   H10   S    
C3    C5    D    
C11   C17   A    
C6    C7    D    
H44   O27   S    
C41   S2    S    
Ba2   O42   S    
Ba1   P1    S    
C38   O22   S    
C29   H37   S    
C35   H49   S    
Ba1   O15   S    
C5    C9    S    
C41   C42   S    
H41   O20   S    
C34   H9    S    
Ba1   O5    S    
O33   S3    S    
C4    H33   S    
C21   N5    S    
C30   P5    S    
C38   O21   D    
C37   H3    S    
C9    N2    A    
C18   C19   A    
C8    N1    A    
O11   P6    D    
O40   P4    S    
C1    C12   S    
O2    P5    D    
O23   P3    S    
C7    C45   D    
O19   S1    D    
C43   H18   S    
C32   H12   S    
H47   O33   S    
O4    P1    S    
C32   H1    S    
O9    P8    S    
C22   H31   S    
C41   H14   S    
C28   O40   S    
H42   O22   S    
C16   H13   S    
Ba2   P4    S    
C8    N4    A    
O38   P4    S    
C7    P1    S    
C35   H45   S    
C12   S1    S    
C26   C29   A    
C23   H8    S    
C2    C3    S    
C25   H30   S    
C40   O27   S    
H46   O30   S    
Ba1   O38   S    
Ba2   O41   S    
C43   H17   S    
C42   H15   S    
C30   C31   A    
O39   P8    S    
O13   P1    S    
O42   P5    S    
C4    O23   S    
C44   H20   S    
C3    H24   S    
C39   O24   D    
C1    H6    S    
C39   O25   S    
C18   C24   A    
O34   P4    D    
N1    N2    A    
C33   C38   S    
C9    N3    A    
O28   S2    D    
C41   O3    S    
N3    N4    A    
O6    P7    D    
Ba1   O16   S    
C23   C34   S    
C45   H28   S    
H43   O25   S    
C1    H11   S    
O29   S2    D    
Ba2   O39   S    
C10   C11   A    
H48   O37   S    
C12   O14   S    
C18   H36   S    
C25   C26   A    
C20   C21   A    
C33   O13   S    
O12   P2    S    
Ba1   O10   S    
C28   H40   S    
C19   C20   A    
C2    C45   S    
Ba2   O5    S    
