data_mof_unit_22022.cif
_audit_creation_date              2013-03-05T15:52:46-0500
_audit_creation_method            fapswitch 2.2
_symmetry_space_group_name_H-M    P1
_symmetry_Int_Tables_number       1
_space_group_crystal_system       triclinic
_cell_length_a                    6.941531
_cell_length_b                    14.770824
_cell_length_c                    21.335496
_cell_angle_alpha                 74.85014
_cell_angle_beta                  90.23514
_cell_angle_gamma                 90.62213
_cell_volume                      2111.41972764

loop_
_atom_site_label
_atom_site_type_symbol
_atom_site_description
_atom_site_fract_x
_atom_site_fract_y
_atom_site_fract_z
_atom_type_partial_charge
O1    O     O_R   0.648150 0.130050 0.214300 -0.565617
O2    O     O_R   0.351850 0.869950 0.785700 -0.564549
O3    O     O_R   0.320490 0.006660 0.340150 -0.603020
O4    O     O_R   0.679510 0.993340 0.659850 -0.601244
O5    O     O_R   0.146100 0.869940 0.285700 -0.599243
O6    O     O_R   0.853900 0.130060 0.714300 -0.593097
C1    C     C_R   0.489202 0.001666 0.367167 0.888126
C2    C     C_R   0.510885 0.998753 0.632787 0.889280
O7    O     O_R   0.318690 0.137980 0.218120 -0.599792
O8    O     O_R   0.681310 0.862020 0.781880 -0.600285
O9    O     O_R   0.144280 0.002190 0.162800 -0.598113
O10   O     O_R   0.855720 0.997810 0.837200 -0.599403
C3    C     C_R   0.488368 0.175587 0.205879 0.961006
C4    C     C_R   0.511573 0.824394 0.794023 0.961469
O11   O     O_R   0.649960 0.997790 0.337200 -0.601541
O12   O     O_R   0.350040 0.002210 0.662800 -0.603615
O13   O     O_3   0.479300 0.955290 0.231990 -0.273369
O14   O     O_3   0.520700 0.044710 0.768010 -0.272316
V1    V     V_3+5 0.206040 0.008290 0.253340 1.175581
V2    V     V_3+5 0.793960 0.991710 0.746660 1.176029
O15   O     O_R   0.814320 0.993320 0.159850 -0.583538
O16   O     O_R   0.185680 0.006680 0.840150 -0.581440
C5    C     C_R   0.982859 0.998904 0.132910 1.044617
C6    C     C_R   0.017128 0.001128 0.867081 1.034406
O17   O     O_R   0.816120 0.862000 0.281880 -0.606672
O18   O     O_R   0.183880 0.138000 0.718120 -0.607445
C7    C     C_R   0.984057 0.824340 0.293873 0.943141
C8    C     C_R   0.015595 0.175540 0.705910 0.922301
V3    V     V_3+5 0.705540 0.991700 0.246660 1.189848
V4    V     V_3+5 0.294460 0.008300 0.753340 1.189186
O19   O     O_3   0.982150 0.044700 0.268010 -0.280097
O20   O     O_3   0.017850 0.955300 0.731990 -0.279087
C9    C     C_R   0.987154 0.722448 0.321618 -0.156774
C10   C     C_R   0.005189 0.277337 0.678848 -0.172249
C11   C     C_R   0.938837 0.565638 0.309365 -0.221104
C12   C     C_R   0.932732 0.431958 0.690340 -0.211139
C13   C     C_R   0.949453 0.662390 0.281622 0.023563
C14   C     C_R   0.956961 0.336495 0.718680 0.024236
C15   C     C_R   0.012495 0.685872 0.389204 -0.081392
C16   C     C_R   0.029310 0.314656 0.611170 -0.076448
C17   C     C_R   0.976252 0.588922 0.418410 0.082663
C18   C     C_R   0.981903 0.409918 0.581624 0.084676
C19   C     C_R   0.950679 0.528882 0.376784 0.156142
C20   C     C_R   0.944518 0.468862 0.622993 0.145860
C21   C     C_R   0.965024 0.548904 0.487161 0.072110
C22   C     C_R   0.970880 0.449437 0.512774 0.071897
C23   C     C_R   0.944359 0.393138 0.469161 -0.193359
C24   C     C_R   0.926879 0.603999 0.530551 -0.192097
C25   C     C_R   0.932484 0.432267 0.402695 -0.232324
C26   C     C_R   0.914785 0.564486 0.596932 -0.233909
H1    H     H_    0.907735 0.386262 0.371249 0.131576
H2    H     H_    0.881114 0.609411 0.628203 0.131874
H3    H     H_    0.916139 0.518894 0.278338 0.119782
H4    H     H_    0.900138 0.477443 0.721350 0.133092
H5    H     H_    0.915766 0.318870 0.485411 0.140216
H6    H     H_    0.889504 0.676987 0.514086 0.142486
C27   C     C_3   0.818972 0.000578 0.976042 -0.226301
C28   C     C_3   0.180961 0.999521 0.023926 -0.222208
C29   C     C_3   0.902394 0.923011 0.033808 -0.275499
C30   C     C_3   0.097532 0.077083 0.966161 -0.282045
H7    H     H_    0.825105 0.858844 0.061425 0.156841
H8    H     H_    0.174763 0.141263 0.938539 0.156111
H9    H     H_    0.669859 0.002606 0.956695 0.165107
H10   H     H_    0.330082 0.997502 0.043265 0.164303
C31   C     C_3   0.992223 0.999805 0.062538 -0.265075
C32   C     C_3   0.007719 0.000285 0.937435 -0.263764
C33   C     C_3   0.911164 0.075536 0.005362 0.457074
C34   C     C_3   0.088772 0.924560 0.994609 0.459596
C35   C     C_3   0.681274 0.995337 0.479214 -0.098127
C36   C     C_3   0.319168 0.005720 0.520699 -0.097537
C37   C     C_3   0.603461 0.074196 0.507648 -0.134148
C38   C     C_3   0.396995 0.926868 0.492313 -0.136801
H11   H     H_    0.688540 0.135031 0.514438 0.098265
H12   H     H_    0.311789 0.865931 0.486000 0.103253
H13   H     H_    0.830758 0.991069 0.461946 0.109812
H14   H     H_    0.169692 0.009993 0.537973 0.110140
C39   C     C_3   0.503008 0.999610 0.562157 -0.073791
C40   C     C_3   0.497348 0.001368 0.437748 -0.075219
C41   C     C_3   0.580921 0.920807 0.534542 -0.139623
C42   C     C_3   0.419521 0.080246 0.465361 -0.141193
H15   H     H_    0.647252 0.854940 0.563448 0.100390
H16   H     H_    0.353146 0.146092 0.436451 0.105506
C43   C     C_R   0.501422 0.276905 0.178068 -0.105658
C44   C     C_R   0.498036 0.723055 0.821727 -0.106311
C45   C     C_R   0.578674 0.431421 0.189366 -0.155744
C46   C     C_R   0.415058 0.569023 0.810609 -0.157254
C47   C     C_R   0.554517 0.335663 0.216965 -0.187085
C48   C     C_R   0.441570 0.664639 0.782965 -0.191174
C49   C     C_R   0.472782 0.313758 0.111379 -0.136192
C50   C     C_R   0.527402 0.686024 0.888349 -0.134802
C51   C     C_R   0.500894 0.410600 0.081635 0.093623
C52   C     C_R   0.496110 0.589440 0.918204 0.094588
C53   C     C_R   0.554159 0.469126 0.122265 0.163396
C54   C     C_R   0.440373 0.531166 0.877667 0.161920
C55   C     C_R   0.480606 0.450894 0.013197 0.040939
C56   C     C_R   0.515451 0.549212 0.986674 0.039605
C57   C     C_R   0.566782 0.604100 0.029549 -0.092875
C58   C     C_R   0.427062 0.396209 0.970413 -0.093357
C59   C     C_R   0.584794 0.564728 0.095792 -0.207584
C60   C     C_R   0.407682 0.435723 0.904217 -0.205584
H17   H     H_    0.624494 0.609782 0.126644 0.131668
H18   H     H_    0.365239 0.390928 0.873460 0.134793
H19   H     H_    0.569985 0.735267 0.915289 0.126360
H20   H     H_    0.433520 0.264210 0.084293 0.128303
H21   H     H_    0.416853 0.693242 0.731432 0.106501
H22   H     H_    0.578232 0.307252 0.268574 0.103605
H23   H     H_    0.619370 0.476011 0.220404 0.112977
H24   H     H_    0.371424 0.524735 0.779662 0.120154
H25   H     H_    0.594266 0.678396 0.013746 0.154350
H26   H     H_    0.397466 0.322100 0.986328 0.152243
N1    N     N_3   0.117153 0.257922 0.573993 -0.218628
H27   H     H_    0.032942 0.197561 0.577851 0.083808
H28   H     H_    0.253417 0.237720 0.593383 0.127413
N2    N     N_3   0.090778 0.745535 0.426601 -0.221431
H29   H     H_    0.999839 0.802834 0.422364 0.084201
H30   H     H_    0.225508 0.770403 0.407504 0.122309
N3    N     N_3   0.933666 0.302744 0.787969 -0.181851
H31   H     H_    0.951501 0.230346 0.804408 0.093913
H32   H     H_    0.042946 0.333208 0.809778 0.114444
N4    N     N_3   0.928232 0.700094 0.212652 -0.208518
H33   H     H_    0.795955 0.734406 0.204488 0.106608
H34   H     H_    0.921109 0.646059 0.189340 0.119457
N5    N     N_R   0.812717 0.160521 0.009260 0.217502
O21   O     O_R   0.745496 0.217360 0.956735 -0.436701
O22   O     O_R   0.798465 0.182134 0.064328 -0.441105
N6    N     N_R   0.187281 0.839583 0.990725 0.217402
O23   O     O_R   0.254316 0.782722 0.043275 -0.435621
O24   O     O_R   0.202066 0.818068 0.935640 -0.440559

loop_
_geom_bond_atom_site_label_1
_geom_bond_atom_site_label_2
_geom_bond_distance
_ccdc_geom_bond_type
C43   C47   1.394558 A    
N6    O23   1.300371 A    
C58   H26   1.075716 S    
C11   H3    1.084184 S    
O13   V3    1.708546 S    
C32   C34   1.533138 S    
C55   C56   1.432373 A    
C4    C44   1.460730 S    
C27   C32   1.551122 S    
O4    C2    1.297015 A    
V1    O19   1.706655 S    
N2    H29   1.046002 S    
C55   C58   1.414192 A    
N5    O21   1.300339 A    
C23   C25   1.386903 A    
C21   C22   1.428392 A    
C7    C9    1.466605 S    
C47   H22   1.083573 S    
O9    V1    2.001693 S    
C9    C15   1.412410 A    
C44   C50   1.398157 A    
C10   C16   1.414490 A    
C11   C13   1.397869 A    
C38   C41   1.549425 S    
O3    C1    1.297435 A    
N3    H32   1.045739 S    
C40   C42   1.539953 S    
C27   C29   1.561229 S    
C28   C30   1.561211 S    
C52   C56   1.432339 A    
C30   H8    1.110372 S    
C18   C22   1.433963 A    
C35   C37   1.549919 S    
O7    C3    1.294807 A    
C38   C40   1.540092 S    
C46   C54   1.404426 A    
N5    O22   1.299914 A    
O5    C7    1.293474 A    
C14   N3    1.440509 S    
C45   C53   1.404284 A    
O7    V1    2.016346 S    
O6    C8    1.290567 A    
N1    H27   1.045994 S    
C30   C33   1.540093 S    
O8    V2    2.016346 S    
C31   C33   1.533224 S    
C26   H2    1.084515 S    
O3    V1    2.006781 S    
O14   V4    1.708544 S    
C49   C51   1.416842 A    
C11   C19   1.400847 A    
C53   C59   1.391371 A    
C6    C32   1.499509 S    
C24   C26   1.386128 A    
C30   C32   1.547911 S    
C2    O12   1.297470 A    
C36   C39   1.539663 S    
O17   V3    2.024549 S    
C17   C19   1.419053 A    
C35   C40   1.540341 S    
C18   C20   1.418765 A    
C27   C33   1.539505 S    
O1    V3    2.022227 S    
C37   C42   1.550196 S    
C57   C59   1.386301 A    
N4    H34   1.045619 S    
O11   V3    1.996538 S    
C16   N1    1.437258 S    
C45   C47   1.391321 A    
C28   H10   1.110565 S    
C43   C49   1.398395 A    
C29   H7    1.110407 S    
C46   C48   1.391480 A    
C36   C42   1.549763 S    
C38   H12   1.108731 S    
O8    C4    1.295089 A    
C41   H15   1.110256 S    
C19   C25   1.393713 A    
C1    O11   1.297564 A    
C25   H1    1.084526 S    
O15   V3    1.997269 S    
C9    C13   1.404427 A    
C29   C34   1.540119 S    
C51   C53   1.420422 A    
C57   H25   1.075640 S    
C28   C31   1.551093 S    
C50   C52   1.416890 A    
C54   C60   1.391588 A    
C15   N2    1.436009 S    
C56   C57   1.414116 A    
O10   V2    2.001693 S    
C60   H18   1.084591 S    
C39   C41   1.539229 S    
N1    H28   1.045599 S    
C35   C41   1.549674 S    
C1    C40   1.505577 S    
C28   C34   1.539498 S    
C59   H17   1.084242 S    
O18   V4    2.024549 S    
C58   C60   1.386603 A    
O15   C5    1.297893 A    
C49   H20   1.076706 S    
C36   H14   1.110462 S    
C2    C39   1.504441 S    
O16   C6    1.297923 A    
C12   C20   1.399665 A    
O1    C3    1.290841 A    
C34   N6    1.457189 S    
C37   C39   1.540380 S    
N4    H33   1.045444 S    
C23   H5    1.077053 S    
V2    O20   1.706657 S    
C21   C24   1.410619 A    
C20   C26   1.393429 A    
C24   H6    1.077197 S    
C3    C43   1.460589 S    
C22   C23   1.411037 A    
N6    O24   1.299880 A    
O16   V4    1.997264 S    
C10   C14   1.412334 A    
C46   H24   1.084192 S    
C44   C48   1.394658 A    
C27   H9    1.110569 S    
C16   C18   1.424897 A    
C33   N5    1.457182 S    
N2    H30   1.045486 S    
O5    V1    2.017993 S    
O17   C7    1.292706 A    
O6    V2    2.017993 S    
O10   C6    1.293626 A    
O18   C8    1.294596 A    
O2    V4    2.022229 S    
C5    C31   1.499672 S    
C12   C14   1.393145 A    
V3    O19   2.157242 S    
N3    H31   1.043250 S    
C29   C31   1.547941 S    
V4    O20   2.157241 S    
C48   H21   1.083535 S    
C52   C54   1.420462 A    
C13   N4    1.438351 S    
O9    C5    1.293718 A    
O13   V1    2.155016 S    
C42   H16   1.110186 S    
C35   H13   1.110461 S    
O14   V2    2.155015 S    
O2    C4    1.290631 A    
C50   H19   1.076682 S    
C12   H4    1.084962 S    
C8    C10   1.465509 S    
O4    V2    2.006784 S    
C15   C17   1.424543 A    
C51   C55   1.432477 A    
C37   H11   1.110421 S    
C17   C21   1.433115 A    
C36   C38   1.549261 S    
C45   H23   1.083755 S    
O12   V4    1.996538 S    
