data_mof_unit_60053.cif
_audit_creation_date              2012-10-26T20:59:52-0400
_audit_creation_method            fapswitch 2.2
_symmetry_space_group_name_H-M    P1
_symmetry_Int_Tables_number       1
_space_group_crystal_system       triclinic
_cell_length_a                    14.427244
_cell_length_b                    13.146815
_cell_length_c                    10.741649
_cell_angle_alpha                 90.541367
_cell_angle_beta                  89.901716
_cell_angle_gamma                 90.047358
_cell_volume                      2037.2987441

loop_
_atom_site_label
_atom_site_type_symbol
_atom_type_description
_atom_site_fract_x
_atom_site_fract_y
_atom_site_fract_z
_atom_type_partial_charge
C1    C     C_R   0.328728 0.499971 0.499921 0.576177
C2    C     C_3   0.577744 0.457871 0.957368 0.217263
C3    C     C_3   0.495148 0.596371 0.963132 0.226009
C4    C     C_3   0.504852 0.403629 0.036868 0.225996
C5    C     C_3   0.425871 0.447301 0.956483 -0.169912
C6    C     C_3   0.574129 0.552699 0.043517 -0.169904
C7    C     C_3   0.499927 0.502191 0.877875 -0.078536
C8    C     C_3   0.500073 0.497809 0.122125 -0.078534
C9    C     C_1   0.500006 0.173635 0.499979 0.214006
C10   C     C_1   0.499994 0.826365 0.500021 0.214011
C11   C     C_1   0.227154 0.499938 0.499892 0.034312
C12   C     C_R   0.671272 0.500029 0.500078 0.576175
C13   C     C_1   0.772846 0.500062 0.500108 0.034316
C14   C     C_1   0.142331 0.499958 0.499885 0.018084
C15   C     C_1   0.857669 0.500042 0.500115 0.018087
C16   C     C_1   0.042414 0.499988 0.499956 0.044632
C17   C     C_1   0.957586 0.500012 0.500044 0.044633
C18   C     C_1   0.500003 0.050682 0.499987 0.015126
C19   C     C_1   0.499997 0.949317 0.500013 0.015127
C20   C     C_R   0.500343 0.499323 0.256743 0.613780
C21   C     C_R   0.499657 0.500677 0.743257 0.613776
C22   C     C_3   0.422256 0.542128 0.042632 0.217282
Cu1   Cu    Cu3+1 0.500000 0.592680 0.500000 1.141581
Cu2   Cu    Cu3+1 0.500000 0.407320 0.500000 1.141570
H1    H     H_    0.365331 0.404665 0.919322 0.178972
H2    H     H_    0.634669 0.595336 0.080678 0.178990
H3    H     H_    0.193967 0.660296 0.021055 0.376991
H4    H     H_    0.806072 0.339787 0.978946 0.376981
H5    H     H_    0.483860 0.871588 0.010526 0.371776
H6    H     H_    0.515808 0.128382 0.989486 0.371723
N1    N     N_1   0.500000 0.268070 0.500000 -0.136718
N2    N     N_1   0.500000 0.731930 0.500000 -0.136714
O1    O     O_R   0.376050 0.578280 0.500000 -0.465414
O2    O     O_2   0.338743 0.686308 0.182297 -0.217867
O3    O     O_3   0.250058 0.630516 0.981935 -0.469900
O4    O     O_2   0.661260 0.313692 0.817703 -0.217738
O5    O     O_2   0.732601 0.483284 0.822546 -0.288239
O6    O     O_3   0.749942 0.369486 0.018067 -0.469866
O7    O     O_2   0.575044 0.750228 0.839795 -0.262123
O8    O     O_2   0.404906 0.743123 0.839575 -0.225828
O9    O     O_3   0.488022 0.801515 0.043121 -0.467654
O10   O     O_2   0.595086 0.256869 0.160430 -0.225624
O11   O     O_2   0.424947 0.249780 0.160200 -0.262321
O12   O     O_R   0.623950 0.421720 0.500000 -0.465415
O13   O     O_3   0.511976 0.198484 0.956879 -0.467593
O14   O     O_R   0.623950 0.578280 0.500000 -0.491557
O15   O     O_R   0.376050 0.421720 0.500000 -0.491562
O16   O     O_R   0.499980 0.578250 0.316850 -0.474803
O17   O     O_R   0.500020 0.421750 0.683150 -0.474814
O18   O     O_R   0.500020 0.578250 0.683150 -0.444176
O19   O     O_R   0.499980 0.421750 0.316850 -0.444178
O20   O     O_2   0.267398 0.516719 0.177455 -0.288182
S1    S     S_3+6 0.317198 0.595306 0.101729 0.076909
S2    S     S_3+6 0.682802 0.404695 0.898272 0.076956
S3    S     S_3+6 0.490540 0.726032 0.915993 0.086959
S4    S     S_3+6 0.509456 0.273967 0.084006 0.086972

loop_
_geom_bond_atom_site_label_1
_geom_bond_atom_site_label_2
_ccdc_geom_bond_type
Cu1   O1    S    
C8    C22   S    
Cu1   Cu2   S    
O3    S1    S    
C5    C7    S    
O11   S4    D    
H6    O13   S    
C2    C4    S    
C2    C7    S    
O6    S2    S    
H4    O6    S    
C10   C19   S    
C4    C8    S    
C3    C6    S    
H5    O9    S    
Cu1   N2    S    
O8    S3    D    
Cu2   O19   S    
C21   O17   A    
Cu2   N1    S    
C1    O1    A    
C12   O12   A    
Cu1   O14   S    
C20   O16   A    
C4    S4    S    
O10   S4    D    
C12   C13   S    
C6    H2    S    
C8    C20   S    
C5    H1    S    
O5    S2    D    
C1    O15   A    
C21   O18   A    
C20   O19   A    
C3    C7    S    
C13   C15   T    
Cu2   O12   S    
C11   C14   T    
C14   C16   S    
O4    S2    D    
C9    N1    T    
C16   C17   T    
C10   N2    T    
C9    C18   S    
O20   S1    D    
C22   S1    S    
O2    S1    D    
C12   O14   A    
C18   C19   T    
C2    S2    S    
Cu2   O17   S    
C15   C17   S    
O9    S3    S    
Cu1   O18   S    
C6    C8    S    
Cu1   O16   S    
H3    O3    S    
C7    C21   S    
Cu2   O15   S    
C3    S3    S    
O7    S3    D    
C5    C22   S    
C2    C6    S    
O13   S4    S    
C4    C5    S    
C3    C22   S    
C1    C11   S    
