data_mof_unit_54603.cif
_audit_creation_date              2012-12-11T19:58:30-0500
_audit_creation_method            fapswitch 2.2
_symmetry_space_group_name_H-M    P1
_symmetry_Int_Tables_number       1
_space_group_crystal_system       triclinic
_cell_length_a                    8.218468
_cell_length_b                    16.375132
_cell_length_c                    22.81199
_cell_angle_alpha                 107.777062
_cell_angle_beta                  89.087015
_cell_angle_gamma                 84.066048
_cell_volume                      2904.09288663

loop_
_atom_site_label
_atom_site_type_symbol
_atom_type_description
_atom_site_fract_x
_atom_site_fract_y
_atom_site_fract_z
_atom_type_partial_charge
Ba1   Ba    Ba6+2 0.335320 0.541410 0.478120 1.652407
Ba2   Ba    Ba6+2 0.854470 0.458670 0.521900 1.663624
C1    C     C_3   0.032484 0.856993 0.371181 -0.359588
C2    C     C_R   0.557703 0.572523 0.952331 -0.024751
C3    C     C_R   0.513191 0.568541 0.891679 0.588003
C4    C     C_3   0.570774 0.758134 0.345969 0.302475
C5    C     C_R   0.522193 0.414440 0.864155 0.585445
C6    C     C_R   0.563724 0.416472 0.924500 -0.019366
C7    C     C_R   0.581703 0.495966 0.968805 -0.052660
C8    C     C_R   0.577768 0.651384 0.997144 -0.073983
C9    C     C_R   0.620953 0.654113 0.056803 -0.068288
C10   C     C_R   0.644742 0.578126 0.073890 -0.017815
C11   C     C_R   0.624330 0.498809 0.029768 -0.052911
C12   C     C_3   0.054119 0.768663 0.380813 0.380545
C13   C     C_R   0.587970 0.340448 0.941493 -0.078421
C14   C     C_R   0.628513 0.343317 0.001356 -0.074389
C15   C     C_R   0.647241 0.422246 0.046259 -0.026048
C16   C     C_3   0.537235 0.796335 0.293483 -0.258985
C17   C     C_R   0.689401 0.426169 0.107038 0.589844
C18   C     C_R   0.688667 0.579815 0.134026 0.592973
C19   C     C_2   0.319978 0.441684 0.760907 -0.100177
C20   C     C_3   0.299457 0.417713 0.692132 -0.098341
C21   C     C_1   0.493227 0.520385 0.688962 0.035200
C22   C     C_2   0.538450 0.525995 0.745968 -0.094281
C23   C     C_3   0.064741 0.328145 0.325477 0.300579
C24   C     C_2   0.445764 0.486043 0.785821 0.226616
C25   C     C_R   0.893689 0.546816 0.237904 -0.106367
C26   C     C_R   0.934357 0.552897 0.298490 -0.030887
C27   C     C_R   0.702085 0.478733 0.310944 0.033812
C28   C     C_3   0.615493 0.723215 0.626463 0.304801
C29   C     C_R   0.659853 0.472544 0.250036 -0.077157
C30   C     C_R   0.753921 0.507925 0.213020 0.213909
C31   C     C_2   0.372162 0.477260 0.663027 -0.261885
C32   C     C_2   0.389250 0.242455 0.495557 -0.271863
C33   C     C_R   0.805191 0.746536 0.507440 -0.282674
C34   C     C_3   0.062708 0.303475 0.255628 -0.349108
C35   C     C_2   0.235743 0.127068 0.435753 -0.098557
C36   C     C_2   0.258148 0.210795 0.453750 0.052685
C37   C     C_2   0.510753 0.187100 0.505050 -0.038857
C38   C     C_3   0.510020 0.091259 0.473152 -0.050377
C39   C     C_3   0.335900 0.065815 0.461684 0.043281
C40   C     C_3   0.600098 0.820877 0.654853 -0.398490
C41   C     C_2   0.602379 0.035127 0.505024 -0.070926
C42   C     C_2   0.628297 0.950303 0.476867 -0.085446
C43   C     C_R   0.859220 0.919188 0.538291 0.030960
C44   C     C_R   0.725665 0.891142 0.503290 -0.048124
C45   C     C_3   0.609711 0.226315 0.647246 0.325369
C46   C     C_R   0.962473 0.862259 0.559127 -0.140901
C47   C     C_R   0.936705 0.775430 0.543011 0.061740
C48   C     C_R   0.694488 0.804814 0.490071 -0.011862
C49   C     C_3   0.591096 0.275577 0.374756 0.300853
C50   C     C_3   0.634973 0.178056 0.347893 -0.280794
C51   C     C_3   0.133841 0.657070 0.670973 0.323198
C52   C     C_3   0.085287 0.666974 0.738186 -0.190897
C53   C     C_1   0.512749 0.138980 0.305119 0.308445
C54   C     C_3   0.112532 0.754678 0.783944 -0.211025
C55   C     C_3   0.292408 0.770626 0.786685 -0.362321
C56   C     C_3   0.652613 0.198856 0.703483 -0.306225
C57   C     C_1   0.078402 0.108073 0.602141 0.337667
C58   C     C_1   0.412967 0.753384 0.253596 0.404644
C59   C     C_3   0.168915 0.243028 0.668559 0.324076
C60   C     C_3   0.124572 0.153263 0.664477 -0.226594
C61   C     C_R   0.836687 0.520602 0.334739 -0.301337
H1    H     H_    0.137238 0.771171 0.419002 0.104776
H2    H     H_    0.098858 0.593660 0.642799 0.041451
H3    H     H_    0.152049 0.873503 0.357465 0.141056
H4    H     H_    0.154691 0.614542 0.752096 0.060802
H5    H     H_    0.953150 0.658720 0.741279 0.122612
H6    H     H_    0.933462 0.753503 0.394046 -0.081423
H7    H     H_    0.984048 0.906878 0.414535 0.086091
H8    H     H_    0.936305 0.343756 0.344573 0.007832
H9    H     H_    0.131264 0.385992 0.342160 0.052173
H10   H     H_    0.994030 0.246726 0.237626 0.139644
H11   H     H_    0.002376 0.358102 0.241810 0.065426
H12   H     H_    0.686481 0.838812 0.692425 0.124287
H13   H     H_    0.190021 0.287372 0.235203 0.136895
H14   H     H_    0.945045 0.856928 0.334546 0.112025
H15   H     H_    0.652185 0.788775 0.265206 0.104963
H16   H     H_    0.561663 0.295759 0.662463 0.016701
H17   H     H_    0.514490 0.186532 0.623718 -0.077634
H18   H     H_    0.738602 0.241328 0.731354 0.159374
H19   H     H_    0.539515 0.203227 0.732019 0.113678
H20   H     H_    0.710596 0.130933 0.688883 0.086764
H21   H     H_    0.241834 0.264710 0.709992 -0.009756
H22   H     H_    0.245506 0.238415 0.626655 -0.057128
H23   H     H_    0.628499 0.851807 0.619574 0.065373
H24   H     H_    0.232807 0.114778 0.675233 0.015769
H25   H     H_    0.588172 0.686326 0.328221 0.033830
H26   H     H_    0.022892 0.157745 0.698302 0.093141
H27   H     H_    0.645517 0.283221 0.012313 0.123626
H28   H     H_    0.575117 0.278187 0.908490 0.117087
H29   H     H_    0.635271 0.716264 0.089673 0.120117
H30   H     H_    0.970241 0.572396 0.210261 0.115308
H31   H     H_    0.560341 0.711483 0.986205 0.121841
H32   H     H_    0.643656 0.558933 0.763853 0.111393
H33   H     H_    0.248590 0.412731 0.788070 0.095633
H34   H     H_    0.473036 0.845560 0.673808 0.116833
H35   H     H_    0.554393 0.440659 0.231636 0.113896
H36   H     H_    0.869543 0.525158 0.381280 0.081591
H37   H     H_    0.685802 0.781586 0.365464 -0.056557
H38   H     H_    0.341102 0.472625 0.616155 0.070837
H39   H     H_    0.140249 0.103592 0.404741 0.082289
H40   H     H_    0.062764 0.885782 0.587249 0.091779
H41   H     H_    0.393986 0.311566 0.513851 0.059904
H42   H     H_    0.783428 0.679638 0.496666 0.070911
H43   H     H_    0.647892 0.062294 0.550367 0.095780
H44   H     H_    0.577552 0.924208 0.432348 0.093239
H45   H     H_    0.463059 0.291225 0.393304 -0.031889
H46   H     H_    0.495305 0.866453 0.312530 0.071442
H47   H     H_    0.742665 0.699440 0.608824 0.012578
H48   H     H_    0.531331 0.707140 0.588098 0.076690
H49   H     H_    0.332768 0.783810 0.744220 0.147535
H50   H     H_    0.307809 0.827975 0.826579 0.127174
H51   H     H_    0.370425 0.714050 0.792016 0.171577
H52   H     H_    0.039083 0.807776 0.772028 0.142970
H53   H     H_    0.068000 0.756146 0.830560 0.126444
H54   H     H_    0.672202 0.299203 0.413041 0.077679
H55   H     H_    0.641800 0.148245 0.385336 0.033122
H56   H     H_    0.757150 0.163836 0.323147 0.105141
H57   H     H_    0.267624 0.656757 0.665449 -0.001654
N1    N     N_R   0.494798 0.490017 0.848165 -0.422149
N2    N     N_R   0.708763 0.504541 0.150566 -0.423724
N3    N     N_1   0.416410 0.108055 0.271414 -0.269314
N4    N     N_1   0.042904 0.072557 0.552790 -0.275096
N5    N     N_1   0.315878 0.719479 0.221643 -0.252643
O1    O     O_2   0.414630 0.451750 0.353890 -0.455145
O2    O     O_2   0.847157 0.191778 0.495802 -0.454749
O3    O     O_3   0.750945 0.212395 0.608663 -0.555887
O4    O     O_3   0.654720 0.452660 0.425060 -0.502220
O5    O     O_3   0.021450 0.605740 0.544090 -0.488707
O6    O     O_2   0.953100 0.285520 0.441860 -0.465161
O7    O     O_3   0.143327 0.258581 0.341869 -0.626753
O8    O     O_2   0.956450 0.469634 0.703881 -0.488064
O9    O     O_3   0.026737 0.301522 0.674592 -0.552704
O10   O     O_2   0.488742 0.635160 0.878011 -0.612376
O11   O     O_2   0.511666 0.344877 0.825585 -0.628593
O12   O     O_3   0.054234 0.725813 0.653936 -0.643368
O13   O     O_2   0.711358 0.359532 0.120840 -0.593884
O14   O     O_2   0.708611 0.648662 0.171767 -0.623675
O15   O     O_3   0.116150 0.611500 0.411510 -0.492955
O16   O     O_2   0.275425 0.552095 0.301067 -0.473023
O17   O     O_3   0.612462 0.313217 0.328142 -0.631943
O18   O     O_3   0.120842 0.706853 0.326210 -0.577303
O19   O     O_2   0.236590 0.714510 0.558180 -0.468116
O20   O     O_3   0.511480 0.656670 0.446630 -0.474626
O21   O     O_2   0.357542 0.810369 0.506003 -0.486196
O22   O     O_3   0.439980 0.786880 0.390423 -0.599252
O23   O     O_2   0.775060 0.548280 0.646150 -0.452266
O24   O     O_3   0.534950 0.547420 0.574950 -0.501819
O25   O     O_3   0.073530 0.388570 0.588510 -0.451759
O26   O     O_3   0.576166 0.686773 0.672028 -0.644155
O27   O     O_3   0.168220 0.394330 0.455930 -0.482341
O28   O     O_3   0.678190 0.343400 0.553390 -0.472252
P1    P     P_3+3 0.594550 0.425840 0.359090 0.994838
P2    P     P_3+3 0.065650 0.701630 0.573510 0.975281
P3    P     P_3+3 0.501150 0.766952 0.458430 0.948428
P4    P     P_3+3 0.595130 0.574230 0.640920 0.977698
P5    P     P_3+3 0.696012 0.232135 0.540135 0.994245
P6    P     P_3+3 0.113278 0.603897 0.333333 0.982786
P7    P     P_3+3 0.136413 0.285857 0.422304 0.960247
P8    P     P_3+3 0.087912 0.397102 0.666594 0.985189

loop_
_geom_bond_atom_site_label_1
_geom_bond_atom_site_label_2
_ccdc_geom_bond_type
Ba2   O25   S    
C19   C24   D    
C27   C61   A    
C17   N2    Am   
C14   H27   S    
Ba1   O20   S    
C16   H46   S    
C45   H16   S    
O27   P7    S    
C51   H57   S    
O3    P5    S    
C45   O3    S    
C51   C52   S    
C10   C11   A    
C40   H12   S    
O7    P7    S    
C28   H47   S    
C51   O12   S    
O26   P4    S    
C18   O14   D    
C58   N5    T    
C22   C24   S    
Ba1   O4    S    
C56   H19   S    
O15   P6    S    
O4    P1    S    
C59   H22   S    
C42   H44   S    
C55   H49   S    
C52   H5    S    
C8    H31   S    
Ba2   O23   S    
C13   C14   A    
C60   H26   S    
C3    N1    Am   
Ba2   O4    S    
C4    H25   S    
C54   C55   S    
O12   P2    S    
Ba1   O27   S    
Ba1   Ba2   S    
C29   H35   S    
O28   P5    S    
Ba1   P2    S    
C7    C11   A    
C61   H36   S    
C34   H13   S    
Ba2   O5    S    
O20   P3    S    
C9    H29   S    
O16   P6    D    
C38   C41   S    
C48   P3    S    
C49   H45   S    
C21   C31   D    
C33   C47   A    
C21   C22   D    
Ba1   O24   S    
O5    P2    S    
C23   H8    S    
C24   N1    S    
C51   H2    S    
C18   N2    Am   
C59   C60   S    
C50   C53   S    
Ba2   O24   S    
C19   C20   S    
O6    P7    D    
C45   H17   S    
C5    N1    Am   
C42   C44   S    
C59   O9    S    
C53   N3    T    
Ba2   O27   S    
C4    C16   S    
C52   C54   S    
C49   C50   S    
C30   N2    S    
C5    C6    A    
C1    H7    S    
Ba1   O1    S    
Ba1   O5    S    
C8    C9    A    
C40   H34   S    
C37   C38   S    
C20   P8    S    
C6    C7    A    
C55   H50   S    
C52   H4    S    
C43   C44   A    
C46   H40   S    
C26   P6    S    
C32   H41   S    
C35   H39   S    
C32   C37   D    
C49   O17   S    
C41   H43   S    
C4    H37   S    
C41   C42   D    
C26   C61   A    
C35   C36   D    
C33   H42   S    
C29   C30   A    
C16   H15   S    
C12   H1    S    
C10   C18   A    
C33   C48   A    
Ba2   O6    S    
C54   H53   S    
C23   H9    S    
O17   P1    S    
O22   P3    S    
Ba1   O15   S    
O2    P5    D    
C1    C12   S    
C34   H11   S    
C40   H23   S    
O1    P1    D    
C16   C58   S    
C46   C47   A    
Ba2   O28   S    
C37   P5    S    
C49   H54   S    
C12   H6    S    
C31   H38   S    
C22   H32   S    
C1    H3    S    
C2    C8    A    
C1    H14   S    
C43   C46   A    
C57   N4    T    
C3    O10   D    
C20   C31   S    
C12   O18   S    
C56   H18   S    
C57   C60   S    
C25   C30   A    
C32   C36   S    
C47   P2    S    
C2    C3    A    
C59   H21   S    
O8    P8    D    
C9    C10   A    
O25   P8    S    
O18   P6    S    
C55   H51   S    
C19   H33   S    
C6    C13   A    
C60   H24   S    
C44   C48   A    
O9    P8    S    
C11   C15   A    
C28   H48   S    
O19   P2    D    
C36   P7    S    
C5    O11   D    
C27   C29   A    
Ba1   O19   S    
C56   H20   S    
C45   C56   S    
C4    O22   S    
C28   O26   S    
C14   C15   A    
C17   O13   D    
C21   P4    S    
C15   C17   A    
C54   H52   S    
O23   P4    D    
C35   C39   S    
Ba1   P1    S    
C25   H30   S    
C34   H10   S    
C23   C34   S    
C13   H28   S    
C50   H56   S    
O21   P3    D    
Ba2   P4    S    
C25   C26   A    
C28   C40   S    
C38   C39   S    
C2    C7    A    
C23   O7    S    
O24   P4    S    
C27   P1    S    
C50   H55   S    
