data_mof_unit_38288.cif
_audit_creation_date              2012-10-26T20:46:49-0400
_audit_creation_method            fapswitch 2.2
_symmetry_space_group_name_H-M    P1
_symmetry_Int_Tables_number       1
_space_group_crystal_system       triclinic
_cell_length_a                    15.136881
_cell_length_b                    13.819085
_cell_length_c                    10.931394
_cell_angle_alpha                 90.031786
_cell_angle_beta                  89.835662
_cell_angle_gamma                 90.075655
_cell_volume                      2286.59369549

loop_
_atom_site_label
_atom_site_type_symbol
_atom_type_description
_atom_site_fract_x
_atom_site_fract_y
_atom_site_fract_z
_atom_type_partial_charge
C1    C     C_R   0.329799 0.499833 0.500787 0.579297
C2    C     C_R   0.436797 0.892556 0.430518 0.006388
C3    C     C_R   0.563161 0.892785 0.569698 0.006883
C4    C     C_R   0.439680 0.790238 0.431956 0.037792
C5    C     C_R   0.560320 0.790444 0.568079 0.037924
C6    C     C_R   0.499948 0.945807 0.500156 -0.043131
C7    C     C_R   0.501145 0.499998 0.265097 0.558042
C8    C     C_R   0.498816 0.500031 0.734905 0.559422
C9    C     C_2   0.501715 0.420400 0.932968 -0.158412
C10   C     C_2   0.497893 0.420376 0.066921 -0.159003
C11   C     C_2   0.494174 0.501546 0.866808 -0.112096
C12   C     C_R   0.670260 0.499974 0.498436 0.577621
C13   C     C_2   0.505732 0.501490 0.133202 -0.113072
C14   C     C_R   0.097456 0.578110 0.433600 0.246392
C15   C     C_R   0.903865 0.585199 0.539757 0.237928
C16   C     C_R   0.189713 0.576785 0.441582 -0.200384
C17   C     C_R   0.811901 0.582280 0.538906 -0.187457
C18   C     C_R   0.233243 0.499903 0.498976 -0.071120
C19   C     C_R   0.766941 0.500473 0.495513 -0.074609
C20   C     C_R   0.184202 0.423895 0.551806 0.238848
C21   C     C_R   0.814806 0.421285 0.448276 0.236721
C22   C     C_R   0.091910 0.430555 0.556679 0.246092
C23   C     C_R   0.048604 0.506459 0.494982 0.035070
C24   C     C_R   0.907017 0.427594 0.439074 0.257823
C25   C     C_3   0.083912 0.657778 0.249194 -0.011159
C26   C     C_3   0.012135 0.703128 0.171004 -0.363164
C27   C     C_3   0.957022 0.662941 0.707884 -0.009008
C28   C     C_3   0.986715 0.761302 0.754812 -0.349919
C29   C     C_3   0.220245 0.263396 0.536956 0.032935
C30   C     C_3   0.219068 0.174884 0.619605 -0.352587
C31   C     C_3   0.780524 0.261132 0.476662 0.030291
C32   C     C_3   0.785513 0.169760 0.399319 -0.348066
C33   C     C_3   0.023921 0.385091 0.733591 -0.004936
C34   C     C_R   0.951715 0.507329 0.489974 0.037877
C35   C     C_3   0.982059 0.299929 0.800106 -0.364995
C36   C     C_3   0.964982 0.373468 0.260046 -0.008449
C37   C     C_3   0.027551 0.299499 0.204359 -0.376295
C38   C     C_2   0.366273 0.939723 0.356268 0.552591
C39   C     C_2   0.633720 0.940189 0.643985 0.552566
C40   C     C_R   0.460138 0.107253 0.595512 -0.085012
C41   C     C_R   0.539835 0.107203 0.404666 -0.086240
C42   C     C_R   0.460666 0.209133 0.593544 0.045743
C43   C     C_R   0.539466 0.209089 0.406603 0.048584
C44   C     C_R   0.499945 0.054849 0.500091 0.108859
Cu1   Cu    Cu3+1 0.500000 0.596430 0.500000 0.949615
Cu2   Cu    Cu3+1 0.500000 0.403570 0.500000 0.970290
H1    H     H_    0.509690 0.350773 0.888078 0.148764
H2    H     H_    0.571416 0.069455 0.329574 0.092526
H3    H     H_    0.429204 0.248471 0.667186 0.131673
H4    H     H_    0.571232 0.248359 0.333107 0.134084
H5    H     H_    0.100149 0.585688 0.208901 0.102097
H6    H     H_    0.143300 0.705103 0.245210 0.152056
H7    H     H_    0.035698 0.709911 0.075120 0.085470
H8    H     H_    0.995322 0.776176 0.206454 0.175244
H9    H     H_    0.952013 0.656945 0.172661 0.151068
H10   H     H_    0.009069 0.609363 0.730967 0.110046
H11   H     H_    0.894251 0.643459 0.755651 0.116134
H12   H     H_    0.489696 0.350752 0.111705 0.148928
H13   H     H_    0.935973 0.816754 0.733560 0.168958
H14   H     H_    0.050213 0.782202 0.710945 0.171120
H15   H     H_    0.996095 0.758288 0.855413 0.083908
H16   H     H_    0.278981 0.259066 0.476032 0.163981
H17   H     H_    0.160007 0.260123 0.478372 0.157842
H18   H     H_    0.157771 0.174488 0.675593 0.164295
H19   H     H_    0.221147 0.108024 0.563268 0.136541
H20   H     H_    0.276946 0.175731 0.681625 0.141135
H21   H     H_    0.721624 0.256303 0.537257 0.165958
H22   H     H_    0.840422 0.263071 0.536016 0.152557
H23   H     H_    0.392501 0.748721 0.379380 0.170733
H24   H     H_    0.846190 0.171203 0.341983 0.168451
H25   H     H_    0.787468 0.105124 0.459548 0.140327
H26   H     H_    0.727015 0.164541 0.338732 0.142768
H27   H     H_    0.975293 0.445205 0.733777 0.097613
H28   H     H_    0.084312 0.407328 0.784670 0.143712
H29   H     H_    0.029486 0.238845 0.804958 0.155300
H30   H     H_    0.963471 0.321793 0.894468 0.086058
H31   H     H_    0.921720 0.275869 0.751080 0.152476
H32   H     H_    0.994154 0.446670 0.245423 0.116072
H33   H     H_    0.900452 0.368894 0.211720 0.158930
H34   H     H_    0.607499 0.749060 0.620586 0.172731
H35   H     H_    0.999598 0.225572 0.214425 0.159082
H36   H     H_    0.037371 0.315170 0.105657 0.089656
H37   H     H_    0.092539 0.302825 0.251160 0.151585
H38   H     H_    0.273365 0.924781 0.225256 0.339496
H39   H     H_    0.727625 0.925221 0.773558 0.338548
H40   H     H_    0.482532 0.571612 0.907903 0.108079
H41   H     H_    0.517564 0.571550 0.092198 0.108718
H42   H     H_    0.227658 0.634723 0.400248 0.144026
H43   H     H_    0.775750 0.643874 0.574469 0.162773
H44   H     H_    0.428578 0.069555 0.670680 0.092224
N1    N     N_R   0.500000 0.258690 0.500000 -0.232907
N2    N     N_R   0.500000 0.741330 0.500000 -0.265626
O1    O     O_R   0.371460 0.581430 0.500010 -0.515195
O2    O     O_3   0.946263 0.667978 0.579911 -0.498283
O3    O     O_3   0.226163 0.347874 0.610041 -0.540757
O4    O     O_3   0.771486 0.342275 0.398543 -0.545190
O5    O     O_3   0.044283 0.357200 0.612646 -0.523678
O6    O     O_3   0.953909 0.352801 0.385543 -0.526505
O7    O     O_2   0.347060 0.024762 0.371696 -0.542793
O8    O     O_R   0.320074 0.885505 0.269174 -0.728311
O9    O     O_2   0.651990 0.025668 0.630001 -0.545384
O10   O     O_R   0.680999 0.885740 0.729513 -0.724030
O11   O     O_R   0.628540 0.581430 0.499990 -0.516108
O12   O     O_R   0.371470 0.418560 0.500010 -0.471895
O13   O     O_R   0.628530 0.418560 0.499990 -0.466658
O14   O     O_R   0.500000 0.581410 0.321940 -0.500409
O15   O     O_R   0.500000 0.581410 0.678060 -0.500122
O16   O     O_R   0.500010 0.418540 0.321940 -0.509346
O17   O     O_R   0.499990 0.418540 0.678060 -0.509141
O18   O     O_3   0.053228 0.650806 0.371181 -0.503883

loop_
_geom_bond_atom_site_label_1
_geom_bond_atom_site_label_2
_ccdc_geom_bond_type
C29   H17   S    
C30   H18   S    
C3    C6    A    
Cu1   O1    S    
C26   H9    S    
C15   O2    S    
C32   H26   S    
Cu1   Cu2   S    
C31   H21   S    
C35   H29   S    
C1    C18   S    
C24   O6    S    
C36   C37   S    
C10   H12   S    
C12   O13   A    
C11   H40   S    
C31   O4    S    
Cu2   O13   S    
C14   O18   S    
C42   N1    A    
Cu1   N2    S    
C5    N2    A    
Cu1   O11   S    
C17   C19   A    
C8    O15   A    
Cu2   O16   S    
C9    C10   S    
C15   C34   A    
C18   C20   A    
C28   H15   S    
C40   C42   A    
C3    C39   S    
C22   O5    S    
C6    C44   S    
C41   C43   A    
C37   H35   S    
C2    C6    A    
C26   H8    S    
C4    H23   S    
C39   O9    D    
C32   H25   S    
C28   H14   S    
C31   H22   S    
C35   H30   S    
H38   O8    S    
C17   H43   S    
C12   O11   A    
C38   O8    S    
C27   H11   S    
C29   O3    S    
C27   H10   S    
C32   H24   S    
Cu2   N1    S    
C25   C26   S    
Cu2   O12   S    
C35   H31   S    
C24   C34   A    
C14   C23   A    
C2    C4    A    
C25   H5    S    
C29   C30   S    
C2    C38   S    
C31   C32   S    
C7    C13   S    
C23   C34   S    
C13   H41   S    
C7    O14   A    
C16   C18   A    
C5    H34   S    
C9    C11   D    
C1    O12   A    
C30   H20   S    
C25   O18   S    
C36   H33   S    
C33   H27   S    
C20   O3    S    
C20   C22   A    
C9    H1    S    
C41   C44   A    
C14   C16   A    
C37   H36   S    
C21   C24   A    
C26   H7    S    
Cu1   O14   S    
C39   O10   S    
C28   H13   S    
C15   C17   A    
C29   H16   S    
C19   C21   A    
C22   C23   A    
C38   O7    D    
C3    C5    A    
C10   C13   D    
C43   H4    S    
C21   O4    S    
C25   H6    S    
C36   H32   S    
C8    O17   A    
C8    C11   S    
C12   C19   S    
C33   C35   S    
C41   H2    S    
C33   O5    S    
C43   N1    A    
C30   H19   S    
C42   H3    S    
C33   H28   S    
C40   C44   A    
C1    O1    A    
Cu2   O17   S    
C27   C28   S    
C16   H42   S    
C7    O16   A    
C37   H37   S    
C27   O2    S    
C36   O6    S    
C40   H44   S    
H39   O10   S    
Cu1   O15   S    
C4    N2    A    
