data_mof_unit_11132.cif
_audit_creation_date              2012-10-26T18:44:12-0400
_audit_creation_method            fapswitch 2.2
_symmetry_space_group_name_H-M    P1
_symmetry_Int_Tables_number       1
_space_group_crystal_system       triclinic
_cell_length_a                    19.346394
_cell_length_b                    9.093246
_cell_length_c                    7.784857
_cell_angle_alpha                 89.999979
_cell_angle_beta                  89.732113
_cell_angle_gamma                 89.999874
_cell_volume                      1369.50890615

loop_
_atom_site_label
_atom_site_type_symbol
_atom_type_description
_atom_site_fract_x
_atom_site_fract_y
_atom_site_fract_z
_atom_type_partial_charge
C1    C     C_R   0.500000 0.220010 0.500000 0.558250
C2    C     C_R   0.255136 0.578609 0.370093 0.201277
C3    C     C_R   0.181210 0.442099 0.636304 -0.116851
C4    C     C_R   0.818791 0.442099 0.363703 -0.116849
C5    C     C_R   0.817076 0.577474 0.631418 -0.121496
C6    C     C_R   0.182923 0.577474 0.368589 -0.121497
C7    C     C_R   0.145749 0.510643 0.502011 -0.052018
C8    C     C_R   0.854251 0.510642 0.497998 -0.052018
C9    C     C_R   0.290996 0.504977 0.502217 0.029429
C10   C     C_R   0.709004 0.504979 0.497784 0.029426
C11   C     C_R   0.930049 0.511535 0.499117 0.346418
C12   C     C_R   0.500000 0.779976 0.500000 0.531428
C13   C     C_R   0.069950 0.511535 0.500892 0.346418
C14   C     C_3   0.282463 0.435382 0.921370 -0.052078
C15   C     C_3   0.717536 0.435392 0.078635 -0.052076
C16   C     C_3   0.701114 0.797785 0.715618 -0.102779
C17   C     C_3   0.298884 0.797783 0.284378 -0.102780
C18   C     C_R   0.367066 0.500484 0.500517 0.578602
C19   C     C_R   0.632934 0.500484 0.499483 0.578603
C20   C     C_1   0.500000 0.065351 0.500000 -0.043774
C21   C     C_1   0.500000 0.934609 0.500000 -0.058377
C22   C     C_R   0.253610 0.439452 0.638359 0.209962
C23   C     C_R   0.746391 0.439453 0.361644 0.209961
C24   C     C_R   0.744863 0.578611 0.629910 0.201278
Cu1   Cu    Cu3+1 0.500000 0.500000 0.669080 1.047397
Cu2   Cu    Cu3+1 0.500000 0.500000 0.330920 1.047395
H1    H     H_    0.300341 0.551428 0.909529 0.165274
H2    H     H_    0.328321 0.853701 0.180659 0.152861
H3    H     H_    0.329131 0.809442 0.404987 0.116260
H4    H     H_    0.248099 0.854394 0.297091 0.122095
H5    H     H_    0.152693 0.386504 0.737250 0.152350
H6    H     H_    0.847308 0.386504 0.262757 0.152352
H7    H     H_    0.843943 0.631782 0.735469 0.154584
H8    H     H_    0.156055 0.631782 0.264538 0.154586
H9    H     H_    0.316398 0.380238 0.016113 0.171800
H10   H     H_    0.228814 0.431520 0.972959 0.123619
H11   H     H_    0.699654 0.551435 0.090483 0.165270
H12   H     H_    0.683603 0.380246 0.983888 0.171801
H13   H     H_    0.771186 0.431541 0.027047 0.123621
H14   H     H_    0.671662 0.853696 0.819317 0.152864
H15   H     H_    0.751897 0.854402 0.702946 0.122104
H16   H     H_    0.670879 0.809443 0.594987 0.116249
N1    N     N_1   0.500000 0.500000 0.076820 -0.078928
N2    N     N_1   0.500000 0.500000 0.923180 -0.078927
N3    N     N_R   0.034986 0.512045 0.350237 -0.218209
N4    N     N_R   0.965014 0.512046 0.649772 -0.218209
N5    N     N_R   0.966242 0.511272 0.349380 -0.218392
N6    N     N_R   0.033758 0.511273 0.650629 -0.218392
O1    O     O_R   0.500000 0.288390 0.642760 -0.495149
O2    O     O_3   0.712180 0.359975 0.236427 -0.565412
O3    O     O_3   0.709596 0.648828 0.761061 -0.584078
O4    O     O_3   0.290401 0.648825 0.238939 -0.584077
O5    O     O_R   0.500000 0.711610 0.357240 -0.501794
O6    O     O_R   0.500000 0.711610 0.642760 -0.501794
O7    O     O_R   0.500000 0.288390 0.357240 -0.495149
O8    O     O_R   0.400140 0.500000 0.642830 -0.482291
O9    O     O_R   0.599860 0.500000 0.357170 -0.482294
O10   O     O_R   0.599860 0.500000 0.642830 -0.476218
O11   O     O_R   0.400140 0.500000 0.357170 -0.476219
O12   O     O_3   0.287822 0.359973 0.763574 -0.565411

loop_
_geom_bond_atom_site_label_1
_geom_bond_atom_site_label_2
_ccdc_geom_bond_type
C13   N6    A    
C3    H5    S    
N1    N2    T    
C16   O3    S    
C15   H12   S    
C6    C7    A    
C14   H1    S    
C5    C8    A    
C17   H3    S    
Cu2   O11   S    
C9    C18   S    
C11   N5    A    
C12   O5    A    
Cu1   O8    S    
C18   O8    A    
C10   C19   S    
C4    C8    A    
C22   O12   S    
Cu2   O7    S    
C24   O3    S    
C1    O7    A    
C4    H6    S    
C20   C21   T    
C13   N3    A    
C17   H4    S    
C2    C9    A    
C15   H13   S    
C2    C6    A    
C5    C24   A    
C2    O4    S    
C16   H14   S    
C8    C11   S    
C16   H15   S    
C17   O4    S    
Cu2   N1    S    
C11   N4    A    
C3    C7    A    
N3    N5    A    
C19   O10   A    
C14   H10   S    
C10   C23   A    
Cu2   O9    S    
N4    N6    A    
C9    C22   A    
Cu1   O10   S    
Cu2   O5    S    
C16   H16   S    
C18   O11   A    
C7    C13   S    
C14   O12   S    
Cu1   O6    S    
Cu1   N2    S    
C15   O2    S    
C14   H9    S    
C4    C23   A    
C15   H11   S    
C23   O2    S    
C3    C22   A    
C10   C24   A    
Cu1   Cu2   S    
C17   H2    S    
C1    O1    A    
C12   C21   S    
C19   O9    A    
C12   O6    A    
C6    H8    S    
C1    C20   S    
Cu1   O1    S    
C5    H7    S    
