data_mof_unit_57400.cif
_audit_creation_date              2012-12-10T18:52:19-0500
_audit_creation_method            fapswitch 2.2
_symmetry_space_group_name_H-M    P1
_symmetry_Int_Tables_number       1
_space_group_crystal_system       triclinic
_cell_length_a                    15.723429
_cell_length_b                    10.636356
_cell_length_c                    9.905532
_cell_angle_alpha                 90.984408
_cell_angle_beta                  91.100691
_cell_angle_gamma                 91.120286
_cell_volume                      1655.72337918

loop_
_atom_site_label
_atom_site_type_symbol
_atom_type_description
_atom_site_fract_x
_atom_site_fract_y
_atom_site_fract_z
_atom_type_partial_charge
C1    C     C_R   0.497065 0.260397 0.498901 0.837076
C2    C     C_R   0.451468 0.413499 0.067128 0.022273
C3    C     C_R   0.337992 0.499734 0.498818 0.880252
C4    C     C_R   0.662008 0.500266 0.501181 0.880261
C5    C     C_3   0.971547 0.389987 0.550453 -0.300067
C6    C     C_3   0.028453 0.610012 0.449547 -0.300058
C7    C     C_3   0.024812 0.403172 0.420809 -0.300212
C8    C     C_3   0.975187 0.596827 0.579191 -0.300241
C9    C     C_1   0.249035 0.499560 0.496331 -0.144393
C10   C     C_1   0.750965 0.500439 0.503669 -0.144441
C11   C     C_3   0.030846 0.486893 0.623973 0.765844
C12   C     C_R   0.502936 0.739603 0.501099 0.837071
C13   C     C_3   0.969154 0.513106 0.376027 0.765841
C14   C     C_3   0.082858 0.499865 0.496365 -0.039163
C15   C     C_3   0.917142 0.500134 0.503634 -0.039157
C16   C     C_1   0.173715 0.499591 0.495537 0.076475
C17   C     C_1   0.826285 0.500409 0.504463 0.076448
C18   C     C_R   0.557566 0.068355 0.422718 -0.106398
C19   C     C_R   0.442437 0.931645 0.577285 -0.106337
C20   C     C_2   0.634406 0.876839 0.353298 0.449761
C21   C     C_2   0.365601 0.123162 0.646713 0.449765
C22   C     C_2   0.603483 0.681605 0.867987 0.442597
C23   C     C_R   0.564136 0.939204 0.425682 -0.036786
C24   C     C_2   0.396436 0.318483 0.132003 0.442514
C25   C     C_R   0.435868 0.060796 0.574323 -0.036821
C26   C     C_R   0.505011 0.872311 0.503034 -0.140647
C27   C     C_R   0.494991 0.127689 0.496967 -0.140674
C28   C     C_R   0.547778 0.585663 0.076387 -0.010637
C29   C     C_R   0.452217 0.414345 0.923610 -0.010581
C30   C     C_R   0.548511 0.586523 0.932870 0.022266
F1    F     F_    0.934673 0.526707 0.247775 -0.613434
F2    F     F_    0.065327 0.473292 0.752225 -0.613408
H1    H     H_    0.046648 0.325346 0.354751 0.202326
H2    H     H_    0.351782 0.221187 0.629896 0.057006
H3    H     H_    0.619497 0.673753 0.763410 0.122479
H4    H     H_    0.380551 0.326217 0.236639 0.122574
H5    H     H_    0.953352 0.674653 0.645249 0.202311
H6    H     H_    0.946778 0.301084 0.593377 0.200396
H7    H     H_    0.053222 0.698915 0.406622 0.200395
H8    H     H_    0.602960 0.123883 0.366540 0.191612
H9    H     H_    0.397043 0.876117 0.633464 0.191605
H10   H     H_    0.586077 0.652888 0.135462 0.183229
H11   H     H_    0.413916 0.347126 0.864529 0.183294
H12   H     H_    0.648211 0.778805 0.370088 0.057001
N1    N     N_R   0.499980 0.499970 0.857200 -0.151671
N2    N     N_R   0.500020 0.500030 0.142800 -0.151656
O1    O     O_R   0.499990 0.316750 0.614620 -0.616173
O2    O     O_2   0.321514 0.065177 0.725577 -0.513331
O3    O     O_2   0.633183 0.771469 0.932678 -0.542374
O4    O     O_2   0.366529 0.228808 0.067237 -0.542358
O5    O     O_R   0.500010 0.683250 0.385380 -0.616174
O6    O     O_R   0.500000 0.316780 0.385290 -0.637447
O7    O     O_R   0.500000 0.683220 0.614710 -0.637373
O8    O     O_R   0.376780 0.499970 0.614640 -0.601349
O9    O     O_R   0.623220 0.500030 0.385360 -0.601359
O10   O     O_R   0.376780 0.500000 0.385310 -0.638141
O11   O     O_R   0.623220 0.500000 0.614690 -0.638150
O12   O     O_2   0.678513 0.934835 0.274471 -0.513388
Zn1   Zn    Zn3+2 0.500000 0.499980 0.653120 0.960876
Zn2   Zn    Zn3+2 0.500000 0.500020 0.346880 0.960851

loop_
_geom_bond_atom_site_label_1
_geom_bond_atom_site_label_2
_ccdc_geom_bond_type
C4    O11   A    
C6    C8    S    
C15   C17   S    
C29   N1    A    
C3    C9    S    
C6    C14   S    
C2    N2    A    
C22   C30   S    
C3    O10   A    
C30   N1    A    
C12   O7    A    
C21   H2    S    
C20   C23   S    
C21   O2    D    
C28   C30   A    
O7    Zn1   S    
C5    H6    S    
C29   H11   S    
C6    C13   S    
C24   O4    D    
C22   H3    S    
C7    H1    S    
C28   N2    A    
C24   H4    S    
C8    C11   S    
C28   H10   S    
C1    O6    A    
C9    C16   T    
C11   F2    S    
C5    C11   S    
C8    C15   S    
O8    Zn1   S    
C13   C15   S    
C4    O9    A    
C2    C24   S    
C25   C27   A    
C19   C25   A    
C3    O8    A    
C14   C16   S    
C5    C15   S    
C20   H12   S    
O11   Zn1   S    
C8    H5    S    
C10   C17   T    
O1    Zn1   S    
C18   C23   A    
C19   H9    S    
C7    C13   S    
C12   O5    A    
C2    C29   A    
C5    C7    S    
C23   C26   A    
C22   O3    D    
C11   C14   S    
C1    C27   S    
C19   C26   A    
C18   H8    S    
C6    H7    S    
C1    O1    A    
C21   C25   S    
O5    Zn2   S    
O6    Zn2   S    
N2    Zn2   S    
O9    Zn2   S    
C20   O12   D    
C13   F1    S    
C7    C14   S    
N1    Zn1   S    
C18   C27   A    
O10   Zn2   S    
C4    C10   S    
C12   C26   S    
