data_mof_unit_29567.cif
_audit_creation_date              2012-12-10T17:27:01-0500
_audit_creation_method            fapswitch 2.2
_symmetry_space_group_name_H-M    P1
_symmetry_Int_Tables_number       1
_space_group_crystal_system       triclinic
_cell_length_a                    18.32331
_cell_length_b                    18.125946
_cell_length_c                    11.97011
_cell_angle_alpha                 89.806242
_cell_angle_beta                  85.284953
_cell_angle_gamma                 90.116791
_cell_volume                      3962.11319456

loop_
_atom_site_label
_atom_site_type_symbol
_atom_type_description
_atom_site_fract_x
_atom_site_fract_y
_atom_site_fract_z
_atom_type_partial_charge
C1    C     C_R   0.402115 0.102392 0.521228 0.894810
C2    C     C_R   0.534617 0.993091 0.019779 -0.104510
C3    C     C_R   0.965386 0.506892 0.980216 -0.104457
C4    C     C_R   0.034619 0.493083 0.019778 -0.104494
C5    C     C_R   0.586404 0.987142 0.826851 -0.025155
C6    C     C_R   0.413596 0.012862 0.173147 -0.025135
C7    C     C_R   0.086406 0.487153 0.826847 -0.025197
C8    C     C_R   0.913595 0.512837 0.173133 -0.025164
C9    C     C_R   0.595567 0.981964 0.942035 0.453351
C10   C     C_R   0.404437 0.018041 0.057966 0.453315
C11   C     C_R   0.095570 0.481971 0.942031 0.453329
C12   C     C_R   0.597887 0.897610 0.478771 0.894835
C13   C     C_R   0.904439 0.518017 0.057951 0.453342
C14   C     C_R   0.459254 0.009656 0.863640 -0.043381
C15   C     C_R   0.540745 0.990342 0.136362 -0.043411
C16   C     C_R   0.959251 0.509632 0.863640 -0.043324
C17   C     C_R   0.040750 0.490349 0.136361 -0.043247
C18   C     C_R   0.652414 0.159193 0.464668 -0.170691
C19   C     C_R   0.347587 0.840805 0.535329 -0.170694
C20   C     C_R   0.348400 0.159911 0.533931 -0.164247
C21   C     C_R   0.651609 0.840098 0.466068 -0.164249
C22   C     C_R   0.152413 0.659195 0.464670 -0.170695
C23   C     C_R   0.598105 0.102191 0.478361 0.897878
C24   C     C_R   0.847583 0.340810 0.535331 -0.170682
C25   C     C_R   0.848393 0.659904 0.533933 -0.164251
C26   C     C_R   0.151612 0.340099 0.466071 -0.164273
C27   C     C_R   0.242699 0.790805 0.643116 -0.170213
C28   C     C_R   0.757313 0.209179 0.356893 -0.170184
C29   C     C_R   0.750208 0.783762 0.352800 -0.190461
C30   C     C_R   0.249819 0.216266 0.647210 -0.190573
C31   C     C_R   0.742681 0.290826 0.643104 -0.170189
C32   C     C_R   0.257301 0.709194 0.356883 -0.170207
C33   C     C_R   0.250202 0.283755 0.352798 -0.190461
C34   C     C_R   0.401896 0.897808 0.521638 0.897900
C35   C     C_R   0.749797 0.716242 0.647202 -0.190480
C36   C     C_R   0.302932 0.836810 0.635490 -0.301393
C37   C     C_R   0.697081 0.163175 0.364516 -0.301391
C38   C     C_R   0.691039 0.830785 0.362147 -0.308981
C39   C     C_R   0.308984 0.169238 0.637860 -0.308949
C40   C     C_R   0.802915 0.336828 0.635482 -0.301389
C41   C     C_R   0.197069 0.663189 0.364510 -0.301397
C42   C     C_R   0.191033 0.330777 0.362146 -0.308944
C43   C     C_R   0.808964 0.669218 0.637855 -0.308961
C44   C     C_R   0.335963 0.794656 0.444359 0.481698
C45   C     C_R   0.902113 0.602390 0.521229 0.894814
C46   C     C_R   0.664028 0.205354 0.555628 0.481703
C47   C     C_R   0.667500 0.798109 0.560134 0.474320
C48   C     C_R   0.332505 0.201893 0.439863 0.474303
C49   C     C_R   0.835966 0.294651 0.444369 0.481691
C50   C     C_R   0.164037 0.705344 0.555640 0.481690
C51   C     C_R   0.167512 0.298121 0.560143 0.474265
C52   C     C_R   0.832503 0.701894 0.439867 0.474300
C53   C     C_R   0.273545 0.750872 0.449958 -0.003244
C54   C     C_R   0.726445 0.249137 0.550035 -0.003252
C55   C     C_R   0.729127 0.753527 0.552198 0.005589
C56   C     C_R   0.097888 0.397610 0.478772 0.894824
C57   C     C_R   0.270879 0.246478 0.447803 0.005596
C58   C     C_R   0.773548 0.250869 0.449962 -0.003248
C59   C     C_R   0.226454 0.749128 0.550042 -0.003247
C60   C     C_R   0.229140 0.253539 0.552204 0.005592
C61   C     C_R   0.770877 0.746476 0.447803 0.005581
C62   C     C_3   0.557923 0.250084 0.640546 -0.310308
C63   C     C_3   0.442054 0.749933 0.359388 -0.310299
C64   C     C_3   0.433921 0.243094 0.336252 -0.319641
C65   C     C_3   0.566086 0.756883 0.663729 -0.319643
C66   C     C_3   0.057946 0.750071 0.640609 -0.310276
C67   C     C_R   0.098104 0.602192 0.478362 0.897879
C68   C     C_3   0.942071 0.249925 0.359444 -0.310269
C69   C     C_3   0.933927 0.743110 0.336284 -0.319579
C70   C     C_3   0.066117 0.256894 0.663781 -0.319559
C71   C     C_3   0.680693 0.894201 0.967056 -0.347594
C72   C     C_3   0.319301 0.105814 0.033023 -0.347479
C73   C     C_3   0.180848 0.394257 0.966575 -0.347187
C74   C     C_3   0.819229 0.605699 0.032960 -0.347859
C75   C     C_R   0.901894 0.397810 0.521639 0.897898
C76   C     C_R   0.465381 0.006907 0.980222 -0.104482
H1    H     H_    0.366990 0.019918 0.233698 0.162893
H2    H     H_    0.312614 0.871766 0.706072 0.193187
H3    H     H_    0.321971 0.137918 0.710899 0.187155
H4    H     H_    0.678058 0.862112 0.289110 0.187138
H5    H     H_    0.187386 0.628233 0.293928 0.193184
H6    H     H_    0.812591 0.371792 0.706058 0.193184
H7    H     H_    0.821945 0.637891 0.710891 0.187141
H8    H     H_    0.178044 0.362096 0.289106 0.187200
H9    H     H_    0.707968 0.289667 0.720839 0.201703
H10   H     H_    0.292004 0.710364 0.279139 0.201700
H11   H     H_    0.280652 0.278331 0.271769 0.190291
H12   H     H_    0.633010 0.980084 0.766297 0.162905
H13   H     H_    0.719341 0.721660 0.728227 0.190275
H14   H     H_    0.207996 0.789636 0.720861 0.201701
H15   H     H_    0.792026 0.210339 0.279157 0.201707
H16   H     H_    0.780664 0.778346 0.271775 0.190296
H17   H     H_    0.219373 0.221693 0.728240 0.190275
H18   H     H_    0.523266 0.251550 0.720965 0.198256
H19   H     H_    0.523416 0.228845 0.575622 0.140217
H20   H     H_    0.576021 0.307618 0.620202 0.149358
H21   H     H_    0.423954 0.692394 0.379695 0.149364
H22   H     H_    0.476566 0.771149 0.424322 0.140222
H23   H     H_    0.866978 0.519878 0.233678 0.162856
H24   H     H_    0.476707 0.748488 0.278965 0.198256
H25   H     H_    0.464158 0.240594 0.252185 0.197918
H26   H     H_    0.472330 0.225865 0.398523 0.150890
H27   H     H_    0.416485 0.301311 0.351046 0.152372
H28   H     H_    0.527714 0.774051 0.601368 0.150795
H29   H     H_    0.535798 0.759434 0.747752 0.197938
H30   H     H_    0.583550 0.698663 0.649057 0.152421
H31   H     H_    0.023291 0.751515 0.721030 0.198265
H32   H     H_    0.023436 0.728859 0.575670 0.140214
H33   H     H_    0.076049 0.807610 0.620307 0.149371
H34   H     H_    0.133018 0.480119 0.766290 0.162792
H35   H     H_    0.976585 0.271172 0.424353 0.140240
H36   H     H_    0.976719 0.248451 0.279018 0.198272
H37   H     H_    0.923976 0.192392 0.379808 0.149349
H38   H     H_    0.964193 0.740591 0.252242 0.197933
H39   H     H_    0.972314 0.725902 0.398601 0.150825
H40   H     H_    0.916478 0.801328 0.351031 0.152391
H41   H     H_    0.027748 0.274022 0.601392 0.150761
H42   H     H_    0.035821 0.259480 0.747794 0.197939
H43   H     H_    0.083594 0.198672 0.649178 0.152442
H44   H     H_    0.685673 0.877130 0.877531 0.193487
H45   H     H_    0.593183 0.980718 0.169286 0.177448
H46   H     H_    0.639069 0.859621 0.016109 0.160950
H47   H     H_    0.734258 0.883880 0.001124 0.193636
H48   H     H_    0.360953 0.140432 0.984106 0.160933
H49   H     H_    0.314246 0.122830 0.122577 0.193485
H50   H     H_    0.265770 0.116157 0.998867 0.193602
H51   H     H_    0.186103 0.377486 0.876904 0.193424
H52   H     H_    0.139166 0.359440 0.015102 0.160961
H53   H     H_    0.234323 0.383905 0.000911 0.193540
H54   H     H_    0.860811 0.640330 0.984057 0.161060
H55   H     H_    0.814174 0.622699 0.122457 0.193531
H56   H     H_    0.406816 0.019285 0.830715 0.177454
H57   H     H_    0.765698 0.615997 0.998817 0.193643
H58   H     H_    0.093192 0.480731 0.169291 0.177469
H59   H     H_    0.906809 0.519254 0.830707 0.177475
H60   H     H_    0.687406 0.128210 0.293941 0.193185
N1    N     N_R   0.480750 0.000000 0.209750 -0.134084
N2    N     N_R   0.519250 1.000000 0.790250 -0.134094
N3    N     N_R   0.980750 0.500000 0.209750 -0.134098
N4    N     N_R   0.019250 0.500000 0.790250 -0.134080
O1    O     O_R   0.418020 0.076820 0.422210 -0.575479
O2    O     O_R   0.569630 0.923170 0.391410 -0.637915
O3    O     O_R   0.569630 0.076830 0.391410 -0.634139
O4    O     O_R   0.430370 0.923170 0.608590 -0.634127
O5    O     O_R   0.930370 0.576830 0.608590 -0.637910
O6    O     O_R   0.069630 0.423170 0.391410 -0.637894
O7    O     O_R   0.069630 0.576830 0.391410 -0.634142
O8    O     O_R   0.930370 0.423170 0.608590 -0.634129
O9    O     O_3   0.617978 0.203213 0.653521 -0.595539
O10   O     O_3   0.381999 0.796811 0.346453 -0.595540
O11   O     O_3   0.373325 0.194947 0.337634 -0.616262
O12   O     O_R   0.581980 0.923180 0.577790 -0.575466
O13   O     O_3   0.626669 0.805048 0.662355 -0.616248
O14   O     O_3   0.117999 0.703190 0.653545 -0.595546
O15   O     O_3   0.882013 0.296793 0.346473 -0.595545
O16   O     O_3   0.873334 0.694957 0.337646 -0.616216
O17   O     O_3   0.126692 0.305072 0.662370 -0.616284
O18   O     O_3   0.664324 0.969944 0.978131 -0.614365
O19   O     O_3   0.335680 0.030080 0.021868 -0.614386
O20   O     O_3   0.164323 0.469945 0.978142 -0.614475
O21   O     O_3   0.835686 0.530004 0.021823 -0.614438
O22   O     O_R   0.581980 0.076820 0.577790 -0.565300
O23   O     O_R   0.418020 0.923180 0.422210 -0.565295
O24   O     O_R   0.918020 0.576820 0.422210 -0.575459
O25   O     O_R   0.081980 0.423180 0.577790 -0.575458
O26   O     O_R   0.081980 0.576820 0.577790 -0.565302
O27   O     O_R   0.918020 0.423180 0.422210 -0.565306
O28   O     O_R   0.430370 0.076830 0.608590 -0.637903
Zn1   Zn    Zn3+2 0.491750 0.000000 0.375560 0.975402
Zn2   Zn    Zn3+2 0.508250 1.000000 0.624440 0.975414
Zn3   Zn    Zn3+2 0.991750 0.500000 0.375560 0.975427
Zn4   Zn    Zn3+2 0.008250 0.500000 0.624440 0.975401

loop_
_geom_bond_atom_site_label_1
_geom_bond_atom_site_label_2
_ccdc_geom_bond_type
C64   H27   S    
C69   H40   S    
O26   Zn4   S    
C8    C13   A    
C31   H9    S    
C62   O9    S    
C62   H20   S    
N2    Zn2   S    
C43   H7    S    
C65   H30   S    
C12   O12   A    
C71   H46   S    
C66   H31   S    
C68   O15   S    
C25   C43   A    
C53   C59   A    
C5    N2    A    
C14   H56   S    
C7    C11   A    
C73   O20   S    
C34   O4    A    
C72   O19   S    
C71   H44   S    
C8    N3    A    
C45   O5    A    
C33   C42   A    
C28   C37   A    
C71   H47   S    
C45   O24   A    
C50   O14   S    
C63   H22   S    
C52   C61   A    
C7    N4    A    
C22   C41   A    
C39   H3    S    
C70   H41   S    
C74   H57   S    
O4    Zn2   S    
C31   C40   A    
C27   H14   S    
C68   H36   S    
C66   H33   S    
C65   O13   S    
O8    Zn4   S    
C5    H12   S    
C10   C76   A    
C44   C53   A    
C21   C38   A    
C14   N2    A    
C62   H19   S    
C30   C60   A    
C56   O25   A    
C32   C41   A    
N3    Zn3   S    
C35   C43   A    
N1    Zn1   S    
C3    C13   A    
C68   H37   S    
C22   C50   A    
C23   O22   A    
O25   Zn4   S    
O28   Zn2   S    
O5    Zn4   S    
C32   H10   S    
N4    Zn4   S    
O6    Zn3   S    
C72   H48   S    
C23   O3    A    
C16   N4    A    
C18   C46   A    
C65   H29   S    
O7    Zn3   S    
C11   O20   S    
C29   C61   A    
C64   H25   S    
C73   H53   S    
C69   H38   S    
C69   O16   S    
C64   O11   S    
C35   C55   A    
C18   C23   S    
C40   H6    S    
C48   C57   A    
C42   H8    S    
O3    Zn1   S    
C34   O23   A    
C66   H32   S    
C66   O14   S    
C20   C39   A    
C57   C60   A    
O27   Zn3   S    
C47   O13   S    
C1    O28   A    
C73   H51   S    
C12   C21   S    
C51   O17   S    
C44   O10   S    
C49   C58   A    
C72   H50   S    
C68   H35   S    
C8    H23   S    
C29   C38   A    
C64   H26   S    
C63   O10   S    
C5    C9    A    
C63   H24   S    
O12   Zn2   S    
O22   Zn2   S    
C70   H43   S    
C41   H5    S    
C46   C54   A    
O1    Zn1   S    
C37   H60   S    
C17   N3    A    
C4    C11   A    
C2    C15   A    
C20   C48   A    
O2    Zn1   S    
C4    C17   A    
C35   H13   S    
C67   O26   A    
C74   H54   S    
C67   O7    A    
C75   O8    A    
C52   O16   S    
C50   C59   A    
C3    C4    A    
C25   C45   S    
C32   C53   A    
C2    C76   A    
C19   C44   A    
C26   C42   A    
C47   C55   A    
C54   C58   A    
C24   C49   A    
C71   O18   S    
C69   H39   S    
C1    C20   S    
C33   C57   A    
C15   H45   S    
C49   O15   S    
C18   C37   A    
C6    H1    S    
C19   C34   S    
C26   C56   S    
C6    C10   A    
C74   O21   S    
C75   O27   A    
C24   C75   S    
C13   O21   S    
C28   C58   A    
C27   C36   A    
C30   H17   S    
C73   H52   S    
C7    H34   S    
C72   H49   S    
C19   C36   A    
C70   O17   S    
C6    N1    A    
C62   H18   S    
C33   H11   S    
C25   C52   A    
C63   H21   S    
C27   C59   A    
C26   C51   A    
C2    C9    A    
C38   H4    S    
C9    O18   S    
C70   H42   S    
C55   C61   A    
C24   C40   A    
C12   O2    A    
C30   C39   A    
C28   H15   S    
C31   C54   A    
C56   O6    A    
O23   Zn1   S    
C22   C67   S    
C1    O1    A    
C46   O9    S    
C48   O11   S    
C17   H58   S    
O24   Zn3   S    
C36   H2    S    
C51   C60   A    
C65   H28   S    
C21   C47   A    
C74   H55   S    
C16   H59   S    
C10   O19   S    
C29   H16   S    
C3    C16   A    
C14   C76   A    
C15   N1    A    
