data_mof_unit_24785.cif
_audit_creation_date              2012-12-11T15:53:56-0500
_audit_creation_method            fapswitch 2.2
_symmetry_space_group_name_H-M    P1
_symmetry_Int_Tables_number       1
_space_group_crystal_system       triclinic
_cell_length_a                    10.665495
_cell_length_b                    10.758532
_cell_length_c                    17.092562
_cell_angle_alpha                 79.926775
_cell_angle_beta                  99.846357
_cell_angle_gamma                 118.871407
_cell_volume                      1682.4925832

loop_
_atom_site_label
_atom_site_type_symbol
_atom_type_description
_atom_site_fract_x
_atom_site_fract_y
_atom_site_fract_z
_atom_type_partial_charge
C1    C     C_R   0.384577 0.282979 0.631994 0.527123
C2    C     C_R   0.396621 0.801292 0.685599 -0.137202
C3    C     C_R   0.395870 0.813487 0.764714 -0.130359
C4    C     C_3   0.137916 0.417250 0.799964 -0.126167
C5    C     C_3   0.150609 0.401910 0.714165 -0.115217
C6    C     C_R   0.334171 0.665980 0.659498 0.036876
C7    C     C_1   0.771821 0.630013 0.712283 0.014339
C8    C     C_1   0.817569 0.669657 0.777882 0.004587
C9    C     C_1   0.365680 0.231093 0.714267 -0.060270
C10   C     C_1   0.333675 0.184782 0.781334 -0.058646
C11   C     C_1   0.319601 0.682635 0.279936 -0.042910
C12   C     C_R   0.369896 0.652255 0.585976 0.528138
C13   C     C_1   0.298238 0.706206 0.209351 -0.037188
C14   C     C_R   0.857624 0.678880 0.164535 0.012010
C15   C     C_R   0.925703 0.619745 0.224517 0.005577
C16   C     C_R   0.913595 0.614896 0.303457 -0.011623
C17   C     C_R   0.785557 0.753723 0.266118 -0.153965
C18   C     C_R   0.797190 0.756672 0.185732 -0.171196
C19   C     C_3   0.920520 0.477172 0.234891 -0.236927
C20   C     C_3   0.907346 0.470876 0.322491 -0.230638
C21   C     C_R   0.833441 0.671704 0.325078 0.006741
C22   C     C_R   0.329204 0.168039 0.160999 -0.035354
C23   C     C_R   0.720931 0.587301 0.633181 0.535493
C24   C     C_R   0.230489 0.195162 0.189749 -0.046290
C25   C     C_R   0.231152 0.194040 0.269718 -0.049279
C26   C     C_R   0.438694 0.152714 0.298149 -0.043926
C27   C     C_R   0.443047 0.158906 0.215056 -0.041463
C28   C     C_3   0.068107 0.124171 0.178579 -0.090631
C29   C     C_3   0.071117 0.119136 0.268414 -0.115904
C30   C     C_R   0.330609 0.170622 0.325182 -0.030688
C31   C     C_R   0.884829 0.699233 0.857141 0.562650
C32   C     C_R   0.312733 0.711166 0.895862 0.556600
C33   C     C_R   0.286335 0.118000 0.858206 0.544178
C34   C     C_R   0.350365 0.223283 0.401089 0.552053
C35   C     C_R   0.889271 0.691656 0.084474 0.529398
C36   C     C_R   0.284826 0.738011 0.125340 0.562731
C37   C     C_R   0.286992 0.108795 0.084921 0.520085
C38   C     C_R   0.362704 0.656914 0.361508 0.545563
C39   C     C_R   0.772264 0.623663 0.400069 0.558391
C40   C     C_R   0.329233 0.690435 0.818604 0.044951
C41   C     C_R   0.273446 0.556674 0.792373 -0.012974
C42   C     C_R   0.281900 0.544921 0.715267 -0.017535
Cr1   Cr    Cr6+3 0.608440 0.389080 0.519680 1.065635
Cr2   Cr    Cr6+3 0.288640 0.400090 0.490760 1.033026
Cr3   Cr    Cr6+3 0.602940 0.710800 0.489510 1.079381
Cr4   Cr    Cr6+3 0.052530 0.947560 0.964210 1.046216
Cr5   Cr    Cr6+3 0.059970 0.626800 0.992920 1.037671
Cr6   Cr    Cr6+3 0.373320 0.938440 0.995370 1.056640
H1    H     H_    0.447743 0.897222 0.645208 0.148883
H2    H     H_    0.822912 0.397063 0.202909 0.164723
H3    H     H_    0.801996 0.384703 0.340501 0.192885
H4    H     H_    0.002744 0.474232 0.362196 0.158020
H5    H     H_    0.018803 0.015465 0.159735 0.174261
H6    H     H_    0.030948 0.009364 0.299955 0.143326
H7    H     H_    0.441323 0.920018 0.782415 0.151555
H8    H     H_    0.155228 0.337961 0.845213 0.109692
H9    H     H_    0.175293 0.314491 0.712025 0.116664
H10   H     H_    0.727321 0.804333 0.280857 0.197901
H11   H     H_    0.755353 0.815112 0.140549 0.171217
H12   H     H_    0.023108 0.485495 0.222834 0.127387
O1    O     O_R   0.754020 0.497590 0.609930 -0.450100
O2    O     O_R   0.295080 0.533620 0.397890 -0.520098
O3    O     O_R   0.485280 0.746620 0.388440 -0.468549
O4    O     O_R   0.720550 0.696220 0.420010 -0.490392
O5    O     O_3   0.500010 0.499990 0.499980 -0.301586
O6    O     O_R   0.163320 0.092900 0.874450 -0.516014
O7    O     O_R   0.934650 0.822080 0.882840 -0.493106
O8    O     O_R   0.915520 0.604140 0.893670 -0.484457
O9    O     O_R   0.191760 0.638110 0.923230 -0.484868
O10   O     O_R   0.406180 0.826930 0.920660 -0.521046
O11   O     O_R   0.358620 0.062870 0.901950 -0.496309
O12   O     O_R   0.481420 0.271390 0.600630 -0.496914
O13   O     O_R   0.163910 0.085460 0.050210 -0.500709
O14   O     O_R   0.935200 0.815170 0.045770 -0.500558
O15   O     O_R   0.916120 0.596690 0.069430 -0.528690
O16   O     O_R   0.192310 0.631200 0.086170 -0.521117
O17   O     O_R   0.406770 0.819480 0.096420 -0.471351
O18   O     O_R   0.359170 0.055960 0.064880 -0.524183
O19   O     O_3   0.161940 0.837600 0.984160 -0.279297
O20   O     O_R   0.263810 0.254550 0.589590 -0.497593
O21   O     O_R   0.300820 0.531200 0.560890 -0.519116
O22   O     O_R   0.491480 0.744020 0.564270 -0.518020
O23   O     O_R   0.726290 0.693800 0.583010 -0.490969
O24   O     O_R   0.747830 0.500190 0.434090 -0.506455
O25   O     O_R   0.475680 0.273800 0.437630 -0.496493
O26   O     O_R   0.257620 0.257160 0.413750 -0.504061
C43   C     C_1   0.540530 0.122994 0.355520 0.282505
N1    N     N_1   0.621249 0.098796 0.401490 -0.214306
C44   C     C_2   0.563667 0.154779 0.184532 0.253490
H13   H     H_    0.602041 0.215650 0.128223 0.118250
O27   O     O_2   0.618201 0.081173 0.220021 -0.445515
C45   C     C_2   0.013056 0.219808 0.126819 0.267743
H14   H     H_    0.061084 0.331924 0.135400 0.107967
O28   O     O_2   0.914187 0.171698 0.074613 -0.504134
C46   C     C_2   0.014511 0.205716 0.296224 0.270396
H15   H     H_    0.079662 0.320174 0.295911 0.106124
O29   O     O_2   0.895717 0.147124 0.320243 -0.455354
C47   C     C_2   0.008131 0.430551 0.810598 0.278701
H16   H     H_    0.937832 0.359660 0.855641 0.119130
O30   O     O_2   0.980614 0.519842 0.768517 -0.480614
C48   C     C_1   0.036106 0.398321 0.651081 0.282371
N2    N     N_1   0.947174 0.394382 0.600712 -0.230919

loop_
_geom_bond_atom_site_label_1
_geom_bond_atom_site_label_2
_ccdc_geom_bond_type
C43   N1    T    
C35   O14   A    
Cr1   O12   S    
C4    C47   S    
C41   C42   A    
C14   C18   A    
C46   H15   S    
Cr5   O19   S    
C5    C42   S    
C7    C8    T    
Cr3   O23   S    
C31   O7    A    
C39   O4    A    
C35   O15   A    
C26   C27   A    
C48   N2    T    
C23   O23   A    
Cr6   O19   S    
C28   C29   S    
Cr5   O16   S    
Cr4   O6    S    
C20   H3    S    
C36   O17   A    
C6    C12   S    
Cr4   O19   S    
Cr3   O22   S    
C4    C41   S    
C15   C16   A    
C34   O26   A    
Cr6   O18   S    
Cr5   O9    S    
C36   O16   A    
C3    H7    S    
C19   C20   S    
C26   C43   S    
C44   O27   D    
C9    C10   T    
C16   C20   S    
C17   H10   S    
C4    H8    S    
Cr1   O24   S    
Cr2   O5    S    
C2    C6    A    
Cr2   O26   S    
C33   O6    A    
C25   C29   S    
C31   O8    A    
C5    C48   S    
C1    O12   A    
C30   C34   S    
Cr1   O25   S    
Cr2   O20   S    
C1    C9    S    
C24   C25   A    
C13   C36   S    
Cr2   O21   S    
C14   C35   S    
C29   C46   S    
C32   O10   A    
Cr2   O2    S    
C22   C37   S    
Cr3   O3    S    
C17   C21   A    
C34   O25   A    
Cr6   O17   S    
C11   C38   S    
C15   C19   S    
C2    H1    S    
C21   C39   S    
Cr1   O5    S    
C45   O28   D    
C17   C18   A    
C12   O22   A    
C28   C45   S    
C40   C41   A    
C3    C40   A    
C26   C30   A    
C47   O30   D    
C22   C27   A    
Cr3   O5    S    
C22   C24   A    
Cr6   O11   S    
Cr5   O8    S    
Cr4   O14   S    
Cr1   O1    S    
C38   O3    A    
C25   C30   A    
C37   O13   A    
C8    C31   S    
C24   C28   S    
Cr6   O10   S    
C4    C5    S    
C39   O24   A    
C28   H5    S    
C46   O29   D    
C16   C21   A    
C32   O9    A    
C19   H12   S    
C37   O18   A    
Cr3   O4    S    
C5    H9    S    
C29   H6    S    
C2    C3    A    
Cr5   O15   S    
Cr4   O7    S    
C20   H4    S    
C11   C13   T    
C19   H2    S    
C7    C23   S    
C45   H14   S    
C12   O21   A    
C27   C44   S    
C10   C33   S    
C32   C40   S    
C33   O11   A    
C18   H11   S    
C23   O1    A    
C47   H16   S    
C6    C42   A    
C1    O20   A    
C14   C15   A    
C44   H13   S    
Cr4   O13   S    
C38   O2    A    
