data_mof_unit_62234.cif
_audit_creation_date              2013-03-05T16:23:09-0500
_audit_creation_method            fapswitch 2.2
_symmetry_space_group_name_H-M    P1
_symmetry_Int_Tables_number       1
_space_group_crystal_system       triclinic
_cell_length_a                    43.036161
_cell_length_b                    30.515552
_cell_length_c                    30.563112
_cell_angle_alpha                 90.005326
_cell_angle_beta                  90.016847
_cell_angle_gamma                 90.010745
_cell_volume                      40137.6829918

loop_
_atom_site_label
_atom_site_type_symbol
_atom_site_description
_atom_site_fract_x
_atom_site_fract_y
_atom_site_fract_z
_atom_type_partial_charge
Zn1   Zn    Zn3+2 0.224060 0.448080 0.500000 1.003859
Zn2   Zn    Zn3+2 0.775940 0.551920 0.500000 1.003242
Zn3   Zn    Zn3+2 0.224060 0.551920 0.500000 1.003791
Zn4   Zn    Zn3+2 0.775940 0.448080 0.500000 1.005267
Zn5   Zn    Zn3+2 0.724060 0.948080 0.000000 1.003285
Zn6   Zn    Zn3+2 0.275940 0.051920 0.000000 1.003871
Zn7   Zn    Zn3+2 0.724060 0.051920 0.000000 1.005231
Zn8   Zn    Zn3+2 0.275940 0.948080 0.000000 1.003804
Zn9   Zn    Zn3+2 0.275990 0.500000 0.448100 0.964750
Zn10  Zn    Zn3+2 0.724010 0.500000 0.551900 0.964784
Zn11  Zn    Zn3+2 0.724010 0.500000 0.448100 0.964304
Zn12  Zn    Zn3+2 0.275990 0.500000 0.551900 0.964816
Zn13  Zn    Zn3+2 0.775990 1.000000 0.948100 0.965882
Zn14  Zn    Zn3+2 0.224010 0.000000 0.051900 0.964716
Zn15  Zn    Zn3+2 0.224010 1.000000 0.948100 0.964779
Zn16  Zn    Zn3+2 0.775990 0.000000 0.051900 0.964407
O1    O     O_3   0.250020 0.500000 0.500000 -0.477965
O2    O     O_3   0.749980 0.500000 0.500000 -0.478780
O3    O     O_3   0.750020 0.000000 0.000000 -0.478890
O4    O     O_3   0.249980 0.000000 0.000000 -0.477945
O5    O     O_R   0.231840 0.587470 0.448900 -0.642503
O6    O     O_R   0.768160 0.412530 0.551100 -0.625735
O7    O     O_R   0.768160 0.412530 0.448900 -0.643302
O8    O     O_R   0.231840 0.587470 0.551100 -0.631549
O9    O     O_R   0.231840 0.412530 0.551100 -0.642473
O10   O     O_R   0.768160 0.587470 0.448900 -0.631498
O11   O     O_R   0.768160 0.587470 0.551100 -0.642400
O12   O     O_R   0.231840 0.412530 0.448900 -0.631663
O13   O     O_R   0.731840 0.087470 0.948900 -0.628360
O14   O     O_R   0.268160 0.912530 0.051100 -0.642404
O15   O     O_R   0.268160 0.912530 0.948900 -0.631630
O16   O     O_R   0.731840 0.087470 0.051100 -0.640643
O17   O     O_R   0.731840 0.912530 0.051100 -0.631648
O18   O     O_R   0.268160 0.087470 0.948900 -0.642380
O19   O     O_R   0.268160 0.087470 0.051100 -0.631746
O20   O     O_R   0.731840 0.912530 0.948900 -0.642641
O21   O     O_R   0.268210 0.448870 0.412550 -0.649839
O22   O     O_R   0.731790 0.551130 0.587450 -0.648252
O23   O     O_R   0.731790 0.551130 0.412550 -0.649638
O24   O     O_R   0.268210 0.448870 0.587450 -0.647299
O25   O     O_R   0.268210 0.551130 0.587450 -0.649944
O26   O     O_R   0.731790 0.448870 0.412550 -0.647336
O27   O     O_R   0.731790 0.448870 0.587450 -0.648429
O28   O     O_R   0.268210 0.551130 0.412550 -0.647272
O29   O     O_R   0.768210 0.948870 0.912550 -0.646666
O30   O     O_R   0.231790 0.051130 0.087450 -0.649238
O31   O     O_R   0.231790 0.051130 0.912550 -0.647917
O32   O     O_R   0.768210 0.948870 0.087450 -0.649193
O33   O     O_R   0.768210 0.051130 0.087450 -0.648198
O34   O     O_R   0.231790 0.948870 0.912550 -0.649350
O35   O     O_R   0.231790 0.948870 0.087450 -0.647900
O36   O     O_R   0.768210 0.051130 0.912550 -0.645192
O37   O     O_R   0.319350 0.500000 0.463670 -0.648533
O38   O     O_R   0.680650 0.500000 0.536330 -0.647180
O39   O     O_R   0.680650 0.500000 0.463670 -0.648903
O40   O     O_R   0.319350 0.500000 0.536330 -0.648504
O41   O     O_R   0.819350 1.000000 0.963670 -0.649175
O42   O     O_R   0.180650 0.000000 0.036330 -0.648597
O43   O     O_R   0.180650 1.000000 0.963670 -0.648584
O44   O     O_R   0.819350 0.000000 0.036330 -0.648541
O45   O     O_R   0.180700 0.536340 0.500000 -0.612794
O46   O     O_R   0.819300 0.463660 0.500000 -0.612005
O47   O     O_R   0.180700 0.463660 0.500000 -0.612669
O48   O     O_R   0.819300 0.536340 0.500000 -0.612875
O49   O     O_R   0.680700 0.036340 0.000000 -0.612770
O50   O     O_R   0.319300 0.963660 0.000000 -0.612782
O51   O     O_R   0.680700 0.963660 0.000000 -0.612828
O52   O     O_R   0.319300 0.036340 0.000000 -0.612668
C1    C     C_R   0.615276 0.497698 0.539640 -0.191046
C2    C     C_R   0.384724 0.504203 0.539514 -0.192067
C3    C     C_R   0.384707 0.495802 0.460507 -0.192242
C4    C     C_R   0.615267 0.502306 0.460325 -0.192268
C5    C     C_R   0.115282 0.996782 0.039575 -0.192291
C6    C     C_R   0.884713 0.996731 0.960422 -0.192945
C7    C     C_R   0.884729 0.003286 0.039600 -0.192224
C8    C     C_R   0.115273 0.003241 0.960391 -0.192040
H1    H     H_    0.627375 0.495814 0.570656 0.160676
H2    H     H_    0.372628 0.507611 0.570393 0.159255
H3    H     H_    0.372598 0.492391 0.429627 0.159188
H4    H     H_    0.627359 0.504191 0.429314 0.159476
H5    H     H_    0.127383 0.994150 0.070533 0.159314
H6    H     H_    0.872609 0.994063 0.929468 0.159632
H7    H     H_    0.872637 0.005951 0.070553 0.159291
H8    H     H_    0.127368 0.005867 0.929437 0.159436
C9    C     C_R   0.582939 0.497620 0.539590 -0.205831
C10   C     C_R   0.417062 0.504327 0.539459 -0.205485
C11   C     C_R   0.417044 0.495685 0.460559 -0.205632
C12   C     C_R   0.582929 0.502386 0.460366 -0.205922
C13   C     C_R   0.082945 0.996691 0.039522 -0.205930
C14   C     C_R   0.917050 0.996635 0.960471 -0.205766
C15   C     C_R   0.917067 0.003391 0.039550 -0.205903
C16   C     C_R   0.082936 0.003348 0.960435 -0.205720
H9    H     H_    0.570485 0.495556 0.570319 0.128552
H10   H     H_    0.429527 0.507916 0.570049 0.128282
H11   H     H_    0.429494 0.492097 0.429968 0.128113
H12   H     H_    0.570466 0.504450 0.429634 0.128141
H13   H     H_    0.070491 0.993885 0.070190 0.128065
H14   H     H_    0.929500 0.993790 0.929804 0.128289
H15   H     H_    0.929532 0.006239 0.070217 0.128050
H16   H     H_    0.070474 0.006157 0.929764 0.128239
C17   C     C_R   0.566733 0.500003 0.499976 0.155915
C18   C     C_R   0.433253 0.500008 0.500008 0.155630
C19   C     C_R   0.066739 0.000024 0.999977 0.155987
C20   C     C_R   0.933259 0.000016 0.000010 0.156064
C21   C     C_R   0.250015 0.584161 0.415889 0.785898
C22   C     C_R   0.750006 0.415956 0.584023 0.788404
C23   C     C_R   0.749982 0.415839 0.415886 0.784859
C24   C     C_R   0.249990 0.584136 0.584136 0.794450
C25   C     C_R   0.250015 0.415838 0.584115 0.786102
C26   C     C_R   0.750011 0.584139 0.415864 0.794865
C27   C     C_R   0.749988 0.584161 0.584112 0.784793
C28   C     C_R   0.249987 0.415860 0.415869 0.794370
C29   C     C_R   0.750001 0.084046 0.915986 0.789450
C30   C     C_R   0.249987 0.915840 0.084113 0.785587
C31   C     C_R   0.250008 0.915863 0.915865 0.794764
C32   C     C_R   0.750015 0.084157 0.084117 0.785964
C33   C     C_R   0.749990 0.915860 0.084134 0.795035
C34   C     C_R   0.249986 0.084161 0.915883 0.785801
C35   C     C_R   0.250012 0.084141 0.084129 0.794696
C36   C     C_R   0.750012 0.915838 0.915889 0.785665
C37   C     C_R   0.631705 0.500002 0.499985 0.000750
C38   C     C_R   0.368286 0.500001 0.500011 0.001402
C39   C     C_R   0.131709 0.000007 0.999985 0.001287
C40   C     C_R   0.868291 0.000005 0.000011 0.001398
C41   C     C_R   0.334186 0.500000 0.500005 0.780905
C42   C     C_R   0.665810 0.500001 0.499994 0.781138
C43   C     C_R   0.834188 0.000001 0.000005 0.780019
C44   C     C_R   0.165812 0.000001 0.999995 0.780976
C45   C     C_R   0.165722 0.499997 0.499998 0.852819
C46   C     C_R   0.834277 0.500006 0.499992 0.851805
C47   C     C_R   0.665723 0.999994 0.000003 0.852613
C48   C     C_R   0.334278 0.000003 0.000001 0.852797
C49   C     C_R   0.114566 0.532134 0.523724 0.136330
C50   C     C_R   0.885454 0.467950 0.523768 0.135178
C51   C     C_R   0.114564 0.467866 0.476188 0.136330
C52   C     C_R   0.885415 0.532111 0.476106 0.136635
C53   C     C_R   0.614551 0.032003 0.976152 0.137078
C54   C     C_R   0.385434 0.967856 0.976282 0.136351
C55   C     C_R   0.614586 0.967932 0.023934 0.136103
C56   C     C_R   0.385439 0.032146 0.023789 0.136351
C57   C     C_R   0.082099 0.532239 0.522854 -0.179786
C58   C     C_R   0.917920 0.467863 0.522899 -0.180738
C59   C     C_R   0.082096 0.467790 0.476977 -0.179780
C60   C     C_R   0.917884 0.532211 0.476894 -0.179856
C61   C     C_R   0.582085 0.032094 0.977017 -0.178334
C62   C     C_R   0.417902 0.967753 0.977147 -0.179801
C63   C     C_R   0.582116 0.967832 0.023142 -0.179808
C64   C     C_R   0.417908 0.032224 0.022992 -0.179795
H17   H     H_    0.069589 0.556923 0.541246 0.175790
H18   H     H_    0.930444 0.443228 0.541343 0.175494
H19   H     H_    0.069584 0.443114 0.458557 0.175724
H20   H     H_    0.930382 0.556855 0.458426 0.175677
H21   H     H_    0.569562 0.056694 0.958523 0.176089
H22   H     H_    0.430411 0.943061 0.958765 0.175782
H23   H     H_    0.569618 0.943221 0.041652 0.175733
H24   H     H_    0.430422 0.056909 0.041398 0.175718
C65   C     C_R   0.065708 0.500023 0.499893 0.005206
C66   C     C_R   0.934292 0.500037 0.499875 0.005426
C67   C     C_R   0.565710 0.999964 0.000100 0.004944
C68   C     C_R   0.434295 0.999981 0.000089 0.005207
C69   C     C_R   0.131337 0.499994 0.499975 -0.119469
C70   C     C_R   0.868663 0.500023 0.499956 -0.120089
C71   C     C_R   0.631339 0.999977 0.000030 -0.118014
C72   C     C_R   0.368664 0.000006 0.000019 -0.119490
N1    N     N_R   0.015463 0.461723 0.499748 -0.165123
N2    N     N_R   0.984537 0.538346 0.499662 -0.165200
N3    N     N_R   0.015477 0.538342 0.499960 -0.165285
N4    N     N_R   0.984523 0.461728 0.500030 -0.165205
N5    N     N_R   0.515465 0.961657 0.000357 -0.165128
N6    N     N_R   0.484540 0.038280 0.000182 -0.165136
N7    N     N_R   0.515480 0.038275 0.999897 -0.165189
N8    N     N_R   0.484525 0.961661 0.000061 -0.165259
C73   C     C_R   0.968492 0.500038 0.499845 0.309656
C74   C     C_R   0.031508 0.500030 0.499861 0.309645
C75   C     C_R   0.468495 0.999973 0.000116 0.309615
C76   C     C_R   0.531510 0.999964 0.000128 0.309577
C77   C     C_R   0.770636 0.653822 0.384547 -0.166551
C78   C     C_R   0.230065 0.345476 0.614788 -0.181801
C79   C     C_R   0.229362 0.346170 0.384541 -0.166689
C80   C     C_R   0.769937 0.654529 0.614795 -0.181777
C81   C     C_R   0.756625 0.338484 0.606945 -0.172940
C82   C     C_R   0.230118 0.654569 0.385257 -0.181568
C83   C     C_R   0.229369 0.653807 0.615457 -0.166378
C84   C     C_R   0.769865 0.345425 0.385281 -0.182502
C85   C     C_R   0.269946 0.154514 0.885206 -0.181776
C86   C     C_R   0.729375 0.846168 0.115448 -0.166606
C87   C     C_R   0.730056 0.845473 0.885208 -0.181836
C88   C     C_R   0.270626 0.153839 0.115453 -0.166731
C89   C     C_R   0.269894 0.845441 0.114754 -0.181521
C90   C     C_R   0.722508 0.140391 0.872040 -0.169424
C91   C     C_R   0.730103 0.154542 0.114760 -0.179978
C92   C     C_R   0.270620 0.846183 0.884549 -0.166422
H25   H     H_    0.786757 0.656772 0.411606 0.173878
H26   H     H_    0.214389 0.342048 0.587274 0.164720
H27   H     H_    0.213245 0.343221 0.411591 0.173875
H28   H     H_    0.785601 0.657966 0.587281 0.164712
H29   H     H_    0.761413 0.329333 0.573367 0.151381
H30   H     H_    0.214595 0.658141 0.412912 0.164640
H31   H     H_    0.213249 0.656748 0.588397 0.173975
H32   H     H_    0.785384 0.341852 0.412952 0.164755
H33   H     H_    0.285615 0.157947 0.912728 0.164710
H34   H     H_    0.713247 0.843224 0.088397 0.173860
H35   H     H_    0.714391 0.842041 0.912720 0.164754
H36   H     H_    0.286750 0.156785 0.088410 0.173886
H37   H     H_    0.285409 0.841862 0.087093 0.164630
H38   H     H_    0.701024 0.132677 0.888823 0.178118
H39   H     H_    0.714586 0.158119 0.087088 0.166016
H40   H     H_    0.286746 0.843247 0.911601 0.173992
C93   C     C_R   0.770661 0.686076 0.352256 -0.174711
C94   C     C_R   0.230076 0.313203 0.647056 -0.177387
C95   C     C_R   0.229336 0.313915 0.352247 -0.174817
C96   C     C_R   0.769931 0.686800 0.647070 -0.177516
C97   C     C_R   0.756191 0.306094 0.639068 -0.170533
C98   C     C_R   0.230117 0.686833 0.352979 -0.177881
C99   C     C_R   0.229344 0.686063 0.647748 -0.174673
C100  C     C_R   0.769865 0.313156 0.353006 -0.177997
C101  C     C_R   0.269946 0.186780 0.852931 -0.177426
C102  C     C_R   0.729360 0.813908 0.147733 -0.174707
C103  C     C_R   0.730059 0.813201 0.852933 -0.177340
C104  C     C_R   0.270642 0.186102 0.147740 -0.174795
C105  C     C_R   0.269904 0.813186 0.147041 -0.177941
C106  C     C_R   0.722365 0.172189 0.839324 -0.171513
C107  C     C_R   0.730090 0.186792 0.147053 -0.177574
C108  C     C_R   0.270634 0.813921 0.852264 -0.174653
H41   H     H_    0.786955 0.713000 0.354876 0.136715
H42   H     H_    0.214224 0.285807 0.643980 0.134115
H43   H     H_    0.213046 0.286987 0.354854 0.136710
H44   H     H_    0.785774 0.714205 0.644001 0.134168
H45   H     H_    0.760240 0.272500 0.629276 0.129858
H46   H     H_    0.214832 0.714787 0.356610 0.133776
H47   H     H_    0.213052 0.712980 0.645130 0.136803
H48   H     H_    0.785145 0.285197 0.356652 0.133861
H49   H     H_    0.285799 0.214176 0.856011 0.134117
H50   H     H_    0.713066 0.786983 0.145116 0.136702
H51   H     H_    0.714212 0.785800 0.856002 0.134174
H52   H     H_    0.286932 0.213031 0.145136 0.136701
H53   H     H_    0.285188 0.785232 0.143411 0.133780
H54   H     H_    0.700548 0.187840 0.831231 0.137239
H55   H     H_    0.714803 0.214744 0.143419 0.134324
H56   H     H_    0.286926 0.787003 0.854879 0.136796
C109  C     C_R   0.750180 0.683212 0.316611 0.110864
C110  C     C_R   0.249998 0.316659 0.683269 0.112896
C111  C     C_R   0.249812 0.316784 0.316615 0.110926
C112  C     C_R   0.750024 0.683330 0.683280 0.113043
C113  C     C_R   0.750073 0.316965 0.682978 0.112267
C114  C     C_R   0.250012 0.683365 0.316756 0.112950
C115  C     C_R   0.249824 0.683209 0.683392 0.110900
C116  C     C_R   0.749974 0.316626 0.316764 0.113023
C117  C     C_R   0.250034 0.183319 0.816708 0.112995
C118  C     C_R   0.749850 0.816767 0.183368 0.110794
C119  C     C_R   0.749967 0.816665 0.816724 0.112787
C120  C     C_R   0.250157 0.183238 0.183363 0.110834
C121  C     C_R   0.250016 0.816663 0.183272 0.113045
C122  C     C_R   0.749920 0.182967 0.816987 0.109438
C123  C     C_R   0.749980 0.183315 0.183296 0.112776
C124  C     C_R   0.250146 0.816770 0.816629 0.110808
C125  C     C_R   0.729694 0.647527 0.313775 -0.177995
C126  C     C_R   0.269926 0.352919 0.686662 -0.179286
C127  C     C_R   0.270295 0.352470 0.313794 -0.178145
C128  C     C_R   0.730107 0.647060 0.686666 -0.179394
C129  C     C_R   0.744000 0.360962 0.693797 -0.171804
C130  C     C_R   0.269903 0.647078 0.313341 -0.178980
C131  C     C_R   0.270309 0.647534 0.686229 -0.178152
C132  C     C_R   0.730088 0.352917 0.313324 -0.178937
C133  C     C_R   0.230106 0.147059 0.813311 -0.179389
C134  C     C_R   0.770336 0.852452 0.186199 -0.177931
C135  C     C_R   0.769890 0.852928 0.813339 -0.179234
C136  C     C_R   0.229675 0.147552 0.186180 -0.178043
C137  C     C_R   0.230127 0.852951 0.186688 -0.179080
C138  C     C_R   0.777497 0.160679 0.827805 -0.172647
C139  C     C_R   0.769874 0.147033 0.186721 -0.178993
C140  C     C_R   0.229661 0.852445 0.813796 -0.178059
H57   H     H_    0.713415 0.644869 0.286876 0.132021
H58   H     H_    0.285779 0.356040 0.714012 0.131715
H59   H     H_    0.286570 0.355128 0.286904 0.131994
H60   H     H_    0.714265 0.643931 0.714015 0.131741
H61   H     H_    0.739947 0.370798 0.727330 0.129856
H62   H     H_    0.285186 0.643398 0.285436 0.131806
H63   H     H_    0.286586 0.644887 0.713130 0.131977
H64   H     H_    0.714808 0.356593 0.285404 0.131921
H65   H     H_    0.214260 0.143934 0.785954 0.131591
H66   H     H_    0.786622 0.855105 0.213091 0.132117
H67   H     H_    0.785733 0.856052 0.785991 0.132005
H68   H     H_    0.213393 0.144897 0.213063 0.132114
H69   H     H_    0.214850 0.856637 0.214599 0.131714
H70   H     H_    0.799302 0.168767 0.812142 0.129688
H71   H     H_    0.785153 0.143350 0.214643 0.131759
H72   H     H_    0.213377 0.855088 0.786902 0.132096
C141  C     C_R   0.729649 0.615281 0.346060 -0.187821
C142  C     C_R   0.269942 0.385181 0.654392 -0.186120
C143  C     C_R   0.270341 0.384716 0.346080 -0.187989
C144  C     C_R   0.730086 0.614802 0.654390 -0.187458
C145  C     C_R   0.743570 0.393104 0.661429 -0.182569
C146  C     C_R   0.269896 0.614791 0.345586 -0.186305
C147  C     C_R   0.270354 0.615286 0.653943 -0.188206
C148  C     C_R   0.730097 0.385210 0.345568 -0.186392
C149  C     C_R   0.230080 0.114804 0.845589 -0.186815
C150  C     C_R   0.770372 0.884704 0.153922 -0.187272
C151  C     C_R   0.769914 0.885187 0.845615 -0.185647
C152  C     C_R   0.229638 0.115299 0.153901 -0.187307
C153  C     C_R   0.230124 0.885229 0.154434 -0.187049
C154  C     C_R   0.777398 0.128016 0.859647 -0.189821
C155  C     C_R   0.769880 0.114760 0.154458 -0.187060
C156  C     C_R   0.229626 0.884699 0.846075 -0.187541
H73   H     H_    0.713510 0.588205 0.343125 0.158752
H74   H     H_    0.285624 0.412733 0.657786 0.158871
H75   H     H_    0.286477 0.411795 0.343156 0.158712
H76   H     H_    0.714413 0.587242 0.657779 0.158725
H77   H     H_    0.738784 0.426743 0.670536 0.149860
H78   H     H_    0.285419 0.587089 0.342043 0.158904
H79   H     H_    0.286490 0.588216 0.656876 0.158633
H80   H     H_    0.714580 0.412917 0.342010 0.158829
H81   H     H_    0.214398 0.087252 0.842192 0.158468
H82   H     H_    0.786511 0.911780 0.156853 0.159089
H83   H     H_    0.785593 0.912741 0.842227 0.159659
H84   H     H_    0.213502 0.088220 0.156822 0.159111
H85   H     H_    0.214603 0.912932 0.157977 0.158510
H86   H     H_    0.798903 0.111262 0.867373 0.148827
H87   H     H_    0.785405 0.087059 0.158005 0.158565
H88   H     H_    0.213489 0.911769 0.843146 0.159031
C157  C     C_R   0.750101 0.618164 0.381751 -0.009237
C158  C     C_R   0.250004 0.381750 0.618172 -0.006507
C159  C     C_R   0.249893 0.381832 0.381759 -0.009029
C160  C     C_R   0.750008 0.618247 0.618171 -0.006159
C161  C     C_R   0.750073 0.382075 0.617906 0.008364
C162  C     C_R   0.250006 0.618255 0.381837 -0.006436
C163  C     C_R   0.249903 0.618159 0.618252 -0.009070
C164  C     C_R   0.749984 0.381745 0.381836 -0.006221
C165  C     C_R   0.250006 0.118242 0.881820 -0.006317
C166  C     C_R   0.749909 0.881829 0.118241 -0.009338
C167  C     C_R   0.749991 0.881750 0.881831 -0.006608
C168  C     C_R   0.250096 0.118176 0.118233 -0.009225
C169  C     C_R   0.250004 0.881755 0.118173 -0.006242
C170  C     C_R   0.749965 0.117934 0.882125 -0.001507
C171  C     C_R   0.749998 0.118235 0.118185 -0.006760
C172  C     C_R   0.250087 0.881834 0.881756 -0.009264
C173  C     C_R   0.748064 0.705832 0.238124 -0.175618
C174  C     C_R   0.251200 0.294206 0.761832 -0.178106
C175  C     C_R   0.251911 0.294170 0.238130 -0.175708
C176  C     C_R   0.748843 0.705780 0.761842 -0.178239
C177  C     C_R   0.729831 0.285654 0.753311 -0.177664
C178  C     C_R   0.278149 0.732711 0.264986 -0.180306
C179  C     C_R   0.251920 0.705833 0.761876 -0.175710
C180  C     C_R   0.721839 0.267258 0.264993 -0.180319
C181  C     C_R   0.248838 0.205771 0.738143 -0.178125
C182  C     C_R   0.751971 0.794147 0.261853 -0.175618
C183  C     C_R   0.751143 0.794215 0.738162 -0.177931
C184  C     C_R   0.248053 0.205853 0.261846 -0.175699
C185  C     C_R   0.221881 0.767321 0.235045 -0.180402
C186  C     C_R   0.769779 0.213906 0.746279 -0.176988
C187  C     C_R   0.778112 0.232674 0.235078 -0.180156
C188  C     C_R   0.248044 0.794145 0.738147 -0.175701
H89   H     H_    0.746993 0.671756 0.228334 0.133586
H90   H     H_    0.251660 0.328318 0.771592 0.132946
H91   H     H_    0.252964 0.328247 0.228346 0.133545
H92   H     H_    0.748407 0.671667 0.771597 0.132777
H93   H     H_    0.713599 0.312559 0.756357 0.129283
H94   H     H_    0.300166 0.720122 0.276671 0.132434
H95   H     H_    0.252980 0.671758 0.771665 0.133449
H96   H     H_    0.699821 0.279839 0.276669 0.132413
H97   H     H_    0.248378 0.171659 0.728383 0.132953
H98   H     H_    0.753043 0.828222 0.271643 0.133564
H99   H     H_    0.751580 0.828327 0.728408 0.133350
H100  H     H_    0.246999 0.171776 0.271630 0.133530
H101  H     H_    0.199865 0.779909 0.223360 0.132289
H102  H     H_    0.784981 0.185963 0.742189 0.129958
H103  H     H_    0.800129 0.220096 0.223401 0.132393
H104  H     H_    0.246984 0.828220 0.728359 0.133435
C189  C     C_R   0.248817 0.238024 0.705865 -0.180108
C190  C     C_R   0.752090 0.761840 0.294078 -0.179883
C191  C     C_R   0.751172 0.761962 0.705881 -0.179982
C192  C     C_R   0.247927 0.238159 0.294075 -0.179973
C193  C     C_R   0.221880 0.735092 0.267348 -0.178320
C194  C     C_R   0.770124 0.246459 0.714339 -0.173865
C195  C     C_R   0.778111 0.264910 0.267375 -0.178201
C196  C     C_R   0.247929 0.761834 0.705921 -0.179829
C197  C     C_R   0.747946 0.738139 0.205899 -0.179839
C198  C     C_R   0.251220 0.261953 0.794110 -0.180168
C199  C     C_R   0.252037 0.261864 0.205900 -0.179910
C200  C     C_R   0.748814 0.738033 0.794123 -0.180083
C201  C     C_R   0.730079 0.253698 0.785852 -0.175341
C202  C     C_R   0.278151 0.764939 0.232683 -0.178313
C203  C     C_R   0.252035 0.738143 0.794102 -0.179770
C204  C     C_R   0.721840 0.235021 0.232696 -0.178143
H105  H     H_    0.248345 0.228171 0.671829 0.132498
H106  H     H_    0.753235 0.771619 0.328104 0.132550
H107  H     H_    0.751625 0.771812 0.671846 0.132672
H108  H     H_    0.246796 0.228381 0.328100 0.132508
H109  H     H_    0.199863 0.723436 0.279952 0.134328
H110  H     H_    0.786392 0.243327 0.687530 0.132992
H111  H     H_    0.800127 0.276584 0.279988 0.134463
H112  H     H_    0.246798 0.771608 0.671895 0.132640
H113  H     H_    0.746799 0.728360 0.171872 0.132566
H114  H     H_    0.251691 0.271807 0.828146 0.132473
H115  H     H_    0.253169 0.271641 0.171876 0.132539
H116  H     H_    0.748360 0.728182 0.828159 0.132493
H117  H     H_    0.714845 0.257869 0.813704 0.131306
H118  H     H_    0.300167 0.776595 0.220077 0.134366
H119  H     H_    0.253167 0.728371 0.828129 0.132667
H120  H     H_    0.699824 0.223348 0.220081 0.134433
C205  C     C_R   0.249999 0.282514 0.717436 0.104987
C206  C     C_R   0.750135 0.717407 0.282488 0.105509
C207  C     C_R   0.750022 0.717472 0.717449 0.104932
C208  C     C_R   0.249857 0.282591 0.282491 0.105570
C209  C     C_R   0.250014 0.717513 0.282591 0.104437
C210  C     C_R   0.750010 0.282613 0.717289 0.106138
C211  C     C_R   0.749974 0.282476 0.282604 0.104359
C212  C     C_R   0.249868 0.717405 0.717513 0.105561
C213  C     C_R   0.749899 0.782571 0.217489 0.105549
C214  C     C_R   0.250039 0.217463 0.782540 0.104943
C215  C     C_R   0.250107 0.217432 0.217485 0.105612
C216  C     C_R   0.749965 0.782522 0.782556 0.104901
C217  C     C_R   0.749915 0.217262 0.782619 0.106748
C218  C     C_R   0.250017 0.782519 0.217440 0.104431
C219  C     C_R   0.250096 0.782572 0.782510 0.105602
C220  C     C_R   0.749976 0.217457 0.217466 0.104532
C221  C     C_R   0.467427 0.500008 0.500003 -0.039645
C222  C     C_R   0.532558 0.500005 0.499976 -0.039636
C223  C     C_R   0.967434 0.000019 0.000005 -0.039713
C224  C     C_R   0.032565 0.000023 0.999976 -0.039671
C225  C     C_R   0.516458 0.540536 0.499038 0.058611
C226  C     C_R   0.483525 0.459486 0.501251 0.058629
C227  C     C_R   0.483537 0.540528 0.498735 0.058522
C228  C     C_R   0.516447 0.459476 0.500924 0.058454
C229  C     C_R   0.016456 0.959484 0.999854 0.058644
C230  C     C_R   0.983542 0.040558 0.999816 0.058522
C231  C     C_R   0.983534 0.959482 0.000177 0.058574
C232  C     C_R   0.016464 0.040560 0.000109 0.058555
I1    I     I_    0.135695 0.580086 0.564697 -0.362079
I2    I     I_    0.864358 0.420098 0.564847 -0.346690
I3    I     I_    0.135693 0.419893 0.435270 -0.362238
I4    I     I_    0.864245 0.579983 0.435105 -0.362188
I5    I     I_    0.635657 0.079760 0.934975 -0.379812
I6    I     I_    0.364305 0.919884 0.935332 -0.362120
I7    I     I_    0.635760 0.920134 0.065014 -0.362210
I8    I     I_    0.364316 0.080138 0.064691 -0.362277
C233  C     C_3   0.534666 0.583600 0.499313 -0.410798
C234  C     C_3   0.540221 0.599707 0.546253 -0.340051
C235  C     C_3   0.557445 0.643406 0.546586 -0.874989
H121  H     H_    0.580410 0.639970 0.530351 0.264848
H122  H     H_    0.543604 0.668834 0.529355 0.259772
H123  H     H_    0.561217 0.654142 0.580895 0.250654
H124  H     H_    0.517763 0.603711 0.563683 0.213671
H125  H     H_    0.554220 0.575297 0.564559 0.227789
H126  H     H_    0.557341 0.580112 0.482481 0.210158
H127  H     H_    0.522739 0.609272 0.479986 0.201132
C236  C     C_3   0.465321 0.416497 0.503840 -0.410602
C237  C     C_3   0.459848 0.402902 0.551579 -0.340188
C238  C     C_3   0.442754 0.359183 0.554264 -0.875214
H128  H     H_    0.419790 0.361578 0.537827 0.264898
H129  H     H_    0.456685 0.332934 0.538474 0.259754
H130  H     H_    0.438993 0.350327 0.589102 0.250588
H131  H     H_    0.482326 0.399977 0.569186 0.213719
H132  H     H_    0.445787 0.428178 0.568564 0.227694
H133  H     H_    0.442613 0.419087 0.486912 0.210055
H134  H     H_    0.477220 0.389846 0.485851 0.201146
C239  C     C_3   0.465342 0.583517 0.496144 -0.410212
C240  C     C_3   0.459844 0.597101 0.448404 -0.340147
C241  C     C_3   0.442757 0.640818 0.445715 -0.876443
H135  H     H_    0.419803 0.638424 0.462161 0.264948
H136  H     H_    0.456703 0.667073 0.461494 0.259933
H137  H     H_    0.438977 0.649666 0.410876 0.250039
H138  H     H_    0.482311 0.600025 0.430788 0.213560
H139  H     H_    0.445768 0.571821 0.431429 0.227541
H140  H     H_    0.442644 0.580931 0.513082 0.210043
H141  H     H_    0.477260 0.610172 0.514120 0.201135
C242  C     C_3   0.534639 0.416409 0.500633 -0.410267
C243  C     C_3   0.540155 0.400311 0.453686 -0.340119
C244  C     C_3   0.557285 0.356546 0.453334 -0.876487
H142  H     H_    0.580245 0.359869 0.469624 0.264903
H143  H     H_    0.543374 0.331151 0.470498 0.259960
H144  H     H_    0.561058 0.345842 0.419019 0.250068
H145  H     H_    0.517688 0.396404 0.436239 0.213593
H146  H     H_    0.554207 0.424681 0.435407 0.227600
H147  H     H_    0.557329 0.419888 0.517451 0.210200
H148  H     H_    0.522717 0.390737 0.519963 0.201245
C245  C     C_3   0.034649 0.916443 0.998441 -0.410886
C246  C     C_3   0.040146 0.901564 0.951093 -0.340122
C247  C     C_3   0.057252 0.857809 0.949601 -0.875349
H149  H     H_    0.080214 0.860682 0.965972 0.264777
H150  H     H_    0.043329 0.831990 0.966097 0.259745
H151  H     H_    0.061020 0.848002 0.915021 0.250794
H152  H     H_    0.017673 0.898135 0.933558 0.213712
H153  H     H_    0.054204 0.926383 0.933444 0.227744
H154  H     H_    0.057347 0.919491 0.015320 0.209967
H155  H     H_    0.022736 0.890285 0.017119 0.201118
C248  C     C_3   0.965347 0.083596 0.998367 -0.410623
C249  C     C_3   0.959807 0.098410 0.951007 -0.339829
C250  C     C_3   0.942683 0.142151 0.949480 -0.877264
H156  H     H_    0.919734 0.139281 0.965868 0.264489
H157  H     H_    0.956608 0.168001 0.965939 0.260136
H158  H     H_    0.938885 0.151912 0.914891 0.250296
H159  H     H_    0.982264 0.101833 0.933452 0.213696
H160  H     H_    0.945744 0.073559 0.933395 0.227489
H161  H     H_    0.942664 0.080569 0.015272 0.209876
H162  H     H_    0.977276 0.109781 0.017002 0.201127
C251  C     C_3   0.965332 0.916442 0.001641 -0.410408
C252  C     C_3   0.959834 0.901625 0.049006 -0.340527
C253  C     C_3   0.942720 0.857868 0.050549 -0.875323
H163  H     H_    0.919759 0.860715 0.034176 0.264952
H164  H     H_    0.956639 0.832029 0.034083 0.259770
H165  H     H_    0.938952 0.848107 0.085141 0.250603
H166  H     H_    0.982306 0.898223 0.066544 0.213525
H167  H     H_    0.945780 0.926464 0.066628 0.227750
H168  H     H_    0.942634 0.919465 0.984761 0.210141
H169  H     H_    0.977239 0.890261 0.982992 0.201205
C254  C     C_3   0.034668 0.083602 0.001502 -0.410483
C255  C     C_3   0.040207 0.098490 0.048842 -0.340454
C256  C     C_3   0.057320 0.142251 0.050313 -0.875416
H170  H     H_    0.080268 0.139381 0.033922 0.264916
H171  H     H_    0.043387 0.168064 0.033826 0.259771
H172  H     H_    0.061119 0.152064 0.084889 0.250615
H173  H     H_    0.017750 0.101916 0.066397 0.213527
H174  H     H_    0.054277 0.073678 0.066483 0.227750
H175  H     H_    0.057351 0.080553 0.984605 0.210058
H176  H     H_    0.022744 0.109756 0.982829 0.201185

loop_
_geom_bond_atom_site_label_1
_geom_bond_atom_site_label_2
_geom_bond_distance
_ccdc_geom_bond_type
Zn1   O9    1.930863 S    
C241  H135  1.110916 S    
C99   C115  1.403809 A    
Zn7   O13   1.930954 S    
C91   C107  1.393742 A    
C134  C150  1.393565 A    
C174  H90   1.082989 S    
C239  C240  1.535158 S    
C3    C38   1.405000 A    
C139  C155  1.393571 A    
Zn5   O51   1.925748 S    
C179  C203  1.393570 A    
Zn3   O8    1.930629 S    
C133  H65   1.083014 S    
C191  H107  1.082989 S    
C233  C234  1.535099 S    
C188  H104  1.082989 S    
C189  H105  1.082989 S    
C201  C217  1.405394 A    
C244  H144  1.110444 S    
C141  H73   1.082988 S    
Zn5   O20   1.930862 S    
Zn6   O19   1.930859 S    
C86   H34   1.083053 S    
C64   C68   1.398522 A    
C194  C210  1.405369 A    
C177  C210  1.405491 A    
C4    C12   1.391707 A    
C233  H126  1.108411 S    
C90   H38   1.083311 S    
C229  C245  1.529818 S    
C238  H129  1.110956 S    
C155  C171  1.404254 A    
C63   H23   1.083276 S    
C221  C226  1.418039 A    
C80   H28   1.082988 S    
N8    C75   1.357589 A    
Zn4   O2    1.938833 S    
C59   H19   1.083279 S    
C240  H139  1.109432 S    
C198  C214  1.403837 A    
C150  H82   1.082987 S    
C58   C66   1.398503 A    
C5    H5    1.082897 S    
C255  H173  1.110451 S    
C105  C121  1.403766 A    
C106  C122  1.407425 A    
C83   C99   1.393811 A    
Zn15  O4    1.940157 S    
C152  H84   1.082990 S    
C150  C166  1.404203 A    
C142  H74   1.082987 S    
Zn16  O33   1.930576 S    
C190  C206  1.403847 A    
C101  H49   1.083010 S    
C256  H171  1.110885 S    
Zn4   O7    1.930632 S    
C52   C70   1.417782 A    
C244  H142  1.110921 S    
C186  H102  1.082133 S    
C195  H111  1.082990 S    
C187  C220  1.403868 A    
C89   C169  1.404244 A    
C196  H112  1.082988 S    
Zn12  O24   1.930641 S    
C183  H99   1.082990 S    
C254  H176  1.107254 S    
O38   C42   1.280905 A    
C62   H22   1.083283 S    
O39   C42   1.280936 A    
C246  H153  1.109381 S    
O7    C23   1.280583 A    
C230  C248  1.529820 S    
C252  C253  1.525535 S    
Zn2   O10   1.930866 S    
O16   C32   1.280601 A    
C102  H50   1.083006 S    
C77   H25   1.083049 S    
C185  C193  1.393581 A    
N3    C74   1.357592 A    
O29   C36   1.280473 A    
C57   C65   1.398518 A    
Zn7   O3    1.938830 S    
C104  C120  1.403836 A    
C235  H123  1.110444 S    
C85   C165  1.404230 A    
C119  C135  1.403597 A    
C239  H141  1.107306 S    
C97   H45   1.082088 S    
C108  C124  1.403809 A    
C154  C170  1.400296 A    
C190  H106  1.082989 S    
C120  C215  1.475196 S    
C36   C167  1.471506 S    
O13   C29   1.278353 A    
C133  C149  1.393618 A    
C188  C196  1.393566 A    
C251  H169  1.107255 S    
C100  C116  1.403716 A    
Zn10  O22   1.930364 S    
C237  C238  1.525604 S    
C156  C172  1.404187 A    
C180  C204  1.393529 A    
C107  H55   1.083011 S    
Zn13  O29   1.930367 S    
C6    C14   1.391651 A    
C173  H89   1.082986 S    
Zn6   O4    1.938488 S    
Zn10  O2    1.940692 S    
C153  H85   1.082985 S    
C249  C250  1.525539 S    
N5    C76   1.357577 A    
C106  H54   1.082093 S    
Zn3   O1    1.938830 S    
C83   H31   1.083054 S    
C52   C60   1.397570 A    
C90   C170  1.400405 A    
C115  C131  1.403626 A    
C116  C132  1.403624 A    
O18   C34   1.280502 A    
C128  C144  1.393531 A    
Zn11  O2    1.940157 S    
O42   C44   1.280872 A    
C113  C210  1.482821 S    
C129  C145  1.393253 A    
C126  H58   1.083015 S    
O46   C46   1.282709 A    
C177  C201  1.392971 A    
C112  C128  1.403598 A    
C30   C169  1.471647 S    
C27   C160  1.471495 S    
C81   H29   1.083384 S    
C140  C156  1.393524 A    
C3    H3    1.082958 S    
C141  C157  1.404199 A    
O28   C21   1.280579 A    
C242  H148  1.107285 S    
C241  H136  1.110954 S    
C1    C37   1.405078 A    
C243  H146  1.109483 S    
C154  H86   1.083402 S    
C236  H133  1.108477 S    
C235  H122  1.110972 S    
C61   C67   1.398520 A    
C62   C68   1.398512 A    
N6    N7    1.331574 A    
C197  H113  1.082988 S    
C54   I6    2.129489 S    
C78   C94   1.393813 A    
C248  H161  1.108446 S    
Zn16  O44   1.925905 S    
C117  C133  1.403644 A    
C80   C96   1.393779 A    
C121  C218  1.475253 S    
C9    H9    1.083295 S    
C5    C39   1.404990 A    
Zn5   O17   1.930863 S    
C109  C206  1.475347 S    
C135  C151  1.393535 A    
C143  C159  1.404198 A    
C7    C15   1.391699 A    
C65   C74   1.471833 S    
C46   C70   1.479808 S    
C51   C59   1.397519 A    
O11   C27   1.280701 A    
C13   C19   1.398954 A    
C249  H160  1.109372 S    
C51   C69   1.417786 A    
C224  C229  1.417964 A    
C101  C117  1.403759 A    
O15   C31   1.280453 A    
C202  C218  1.403835 A    
C195  C211  1.403812 A    
C83   C163  1.404262 A    
C196  C212  1.403828 A    
O35   C30   1.280584 A    
C240  C241  1.525620 S    
C7    C40   1.404980 A    
C103  H51   1.083010 S    
C153  C169  1.404278 A    
C178  C209  1.403910 A    
C93   C109  1.403851 A    
C53   C71   1.417658 A    
C253  H164  1.110882 S    
N1    C74   1.357561 A    
C88   H36   1.083055 S    
C35   C168  1.471384 S    
C173  C197  1.393628 A    
O27   C22   1.278540 A    
Zn12  O1    1.940154 S    
O9    C25   1.280508 A    
Zn1   O12   1.930862 S    
C222  C225  1.418068 A    
Zn4   O6    1.930952 S    
C2    C38   1.404987 A    
C188  C219  1.403903 A    
C20   C223  1.470744 S    
C45   C69   1.479803 S    
C91   H39   1.082985 S    
C182  C213  1.403934 A    
C97   C113  1.407325 A    
C250  H157  1.110881 S    
O37   C41   1.280825 A    
C179  H95   1.082987 S    
O48   C46   1.282615 A    
C67   C76   1.471837 S    
C68   C75   1.471841 S    
C32   C171  1.471503 S    
C10   C18   1.399012 A    
C203  C219  1.403826 A    
C174  C205  1.403905 A    
C177  H93   1.082136 S    
C204  C220  1.403820 A    
Zn7   O16   1.930629 S    
Zn8   O15   1.930632 S    
C103  C119  1.403743 A    
O41   C43   1.280855 A    
O32   C33   1.280405 A    
C176  C200  1.393526 A    
C64   H24   1.083279 S    
N7    C76   1.357576 A    
Zn1   O1    1.938490 S    
C252  H166  1.110454 S    
C79   H27   1.083054 S    
C225  C233  1.529916 S    
C38   C41   1.467503 S    
C55   C71   1.417740 A    
C25   C158  1.471608 S    
C4    H4    1.082940 S    
C79   C159  1.404255 A    
C137  C153  1.393612 A    
N2    N3    1.331589 A    
C54   C62   1.397519 A    
O36   C29   1.278412 A    
C21   C162  1.471643 S    
C234  H124  1.110470 S    
C182  C190  1.393620 A    
C23   C164  1.471488 S    
C34   C165  1.471609 S    
Zn3   O5    1.930954 S    
C128  H60   1.083017 S    
C129  H61   1.082098 S    
C243  C244  1.525611 S    
C86   C166  1.404270 A    
C238  H128  1.110922 S    
C248  C249  1.535030 S    
C131  C147  1.393532 A    
C81   C97   1.393312 A    
C15   H15   1.083261 S    
C174  C198  1.393577 A    
C255  C256  1.525536 S    
C51   I3    2.129479 S    
C6    C40   1.404992 A    
C12   H12   1.083297 S    
C4    C37   1.405076 A    
C102  C118  1.403849 A    
C247  H149  1.110952 S    
C193  H109  1.082988 S    
C8    H8    1.082892 S    
C247  H151  1.110363 S    
C255  H174  1.109376 S    
Zn14  O30   1.930364 S    
O12   C28   1.280547 A    
O17   C33   1.280364 A    
C78   H26   1.082988 S    
C53   C61   1.397477 A    
C138  H70   1.082089 S    
C145  C161  1.400437 A    
C256  H170  1.110950 S    
C84   C100  1.393729 A    
C2    H2    1.082956 S    
C199  H115  1.082991 S    
Zn11  O26   1.930579 S    
O34   C31   1.280522 A    
C198  H114  1.082989 S    
C85   H33   1.082987 S    
O52   C48   1.282692 A    
C234  C235  1.525588 S    
C254  H175  1.108441 S    
C1    H1    1.082938 S    
C120  C136  1.403596 A    
O31   C34   1.280329 A    
C89   H37   1.082985 S    
C245  H155  1.107253 S    
C114  C209  1.475259 S    
C130  C146  1.393616 A    
C127  H59   1.083011 S    
Zn2   O11   1.930859 S    
O8    C24   1.280445 A    
O26   C23   1.280450 A    
C114  C130  1.403638 A    
C145  H77   1.083382 S    
C126  C142  1.393613 A    
C244  H143  1.110966 S    
C113  C129  1.407259 A    
C91   C171  1.404222 A    
C229  C231  1.416865 A    
C228  C242  1.529911 S    
C142  C158  1.404270 A    
C93   H41   1.083005 S    
C6    H6    1.082896 S    
C18   C221  1.470696 S    
C239  H140  1.108479 S    
C56   I8    2.129481 S    
C200  H116  1.082993 S    
N6    C75   1.357562 A    
C88   C104  1.393857 A    
C151  C167  1.404262 A    
Zn14  O42   1.925634 S    
C118  C213  1.475336 S    
C55   I7    2.129425 S    
Zn13  O3    1.940694 S    
C125  C141  1.393572 A    
C236  C237  1.535147 S    
C176  H92   1.082993 S    
C95   C111  1.403833 A    
C251  H168  1.108443 S    
C92   C108  1.393817 A    
C181  C189  1.393583 A    
C199  C215  1.403813 A    
C187  C195  1.393514 A    
C94   C110  1.403761 A    
C49   I1    2.129485 S    
Zn6   O18   1.930866 S    
C110  C205  1.475225 S    
C49   C69   1.417788 A    
C235  H121  1.110980 S    
C48   C72   1.479841 S    
Zn12  O25   1.930576 S    
C1    C9    1.391667 A    
Zn14  O4    1.940692 S    
C50   C58   1.397462 A    
Zn13  O36   1.930629 S    
C86   C102  1.393888 A    
C233  H127  1.107290 S    
C66   C73   1.471829 S    
Zn14  O35   1.930631 S    
C192  H108  1.082989 S    
C47   C71   1.479756 S    
C238  H130  1.110441 S    
C53   I5    2.129140 S    
C203  H119  1.082990 S    
O40   C41   1.280883 A    
C204  H120  1.082987 S    
C118  C134  1.403640 A    
C221  C227  1.418035 A    
C197  C213  1.403843 A    
C3    C11   1.391670 A    
O6    C22   1.278396 A    
C186  C217  1.405486 A    
C240  H138  1.110422 S    
C143  H75   1.082987 S    
C180  C211  1.403871 A    
C56   C72   1.417799 A    
C98   H46   1.083008 S    
Zn11  O39   1.925905 S    
O14   C30   1.280775 A    
C176  C207  1.403896 A    
N2    C73   1.357577 A    
C148  C164  1.404251 A    
Zn15  O43   1.925905 S    
O44   C43   1.280913 A    
C256  H172  1.110363 S    
C144  C160  1.404267 A    
C139  H71   1.083017 S    
O24   C25   1.280321 A    
Zn5   O3    1.938490 S    
C242  H147  1.108426 S    
C49   C57   1.397513 A    
Zn8   O14   1.930952 S    
C58   H18   1.083283 S    
C90   C106  1.393404 A    
C94   H42   1.083009 S    
C5    C13   1.391663 A    
C183  C216  1.403892 A    
C108  H56   1.083007 S    
C7    H7    1.082894 S    
C181  C214  1.403910 A    
C246  H152  1.110456 S    
Zn16  O3    1.940154 S    
C131  H63   1.083010 S    
C202  H118  1.082986 S    
O47   C45   1.282683 A    
O20   C36   1.280687 A    
C149  C165  1.404267 A    
C175  C208  1.403926 A    
C96   H44   1.083010 S    
O33   C32   1.280440 A    
Zn13  O41   1.925634 S    
C136  C152  1.393482 A    
C173  C206  1.403940 A    
C117  C214  1.475238 S    
C181  H97   1.082988 S    
C193  C209  1.403835 A    
C132  C148  1.393577 A    
C84   C164  1.404222 A    
O5    C21   1.280780 A    
C60   H20   1.083277 S    
C149  H81   1.082987 S    
C146  C162  1.404281 A    
Zn8   O50   1.925575 S    
O25   C24   1.280533 A    
C79   C95   1.393856 A    
C178  C202  1.393594 A    
C186  C194  1.392882 A    
O19   C35   1.280554 A    
Zn16  O32   1.930641 S    
C82   H30   1.082987 S    
Zn15  O31   1.930638 S    
C15   C20   1.398982 A    
C63   C67   1.398562 A    
C29   C170  1.463092 S    
C56   C64   1.397532 A    
C12   C17   1.399003 A    
C57   H17   1.083279 S    
C254  C255  1.535027 S    
C138  C154  1.393128 A    
C123  C139  1.403621 A    
C31   C172  1.471375 S    
C124  C140  1.403621 A    
C55   C63   1.397568 A    
Zn8   O4    1.938833 S    
C85   C101  1.393811 A    
C136  H68   1.083013 S    
C99   H47   1.083007 S    
C137  H69   1.083014 S    
C226  C236  1.529907 S    
C119  C216  1.475088 S    
C155  H87   1.082987 S    
C89   C105  1.393830 A    
C156  H88   1.082986 S    
Zn7   O49   1.925575 S    
C243  H145  1.110440 S    
C77   C93   1.393884 A    
C253  H163  1.110952 S    
C130  H62   1.083012 S    
C191  C207  1.403806 A    
C251  C252  1.535023 S    
Zn15  O34   1.930579 S    
C189  C205  1.403835 A    
C152  C168  1.404198 A    
C223  C230  1.417962 A    
O21   C28   1.280549 A    
C50   I2    2.129172 S    
C16   C19   1.398975 A    
C100  H48   1.083014 S    
C111  C208  1.475204 S    
C184  H100  1.082989 S    
O23   C26   1.280410 A    
C147  H79   1.082990 S    
C201  H117  1.082131 S    
C148  H80   1.082986 S    
C80   C160  1.404210 A    
C135  H67   1.083018 S    
C223  C231  1.417962 A    
C10   H10   1.083292 S    
C250  H156  1.110956 S    
C110  C126  1.403636 A    
C194  H110  1.082132 S    
C151  H83   1.082981 S    
C87   H35   1.082988 S    
C81   C161  1.400438 A    
C253  H165  1.110364 S    
Zn6   O52   1.925748 S    
C187  H103  1.082989 S    
C225  C227  1.416847 A    
C175  H91   1.082987 S    
C231  C251  1.529815 S    
C226  C228  1.416845 A    
C92   H40   1.083055 S    
C246  C247  1.525534 S    
C77   C157  1.404271 A    
Zn1   O47   1.925748 S    
O49   C47   1.282691 A    
Zn2   O48   1.925748 S    
C59   C65   1.398528 A    
O50   C48   1.282654 A    
Zn3   O45   1.925575 S    
N4    C73   1.357578 A    
C241  H137  1.110447 S    
C236  H134  1.107320 S    
C182  H98   1.082984 S    
C245  C246  1.535022 S    
C122  C217  1.482831 S    
C115  C212  1.475200 S    
C192  C208  1.403814 A    
C116  C211  1.475081 S    
C111  C127  1.403604 A    
C84   H32   1.082989 S    
O43   C44   1.280909 A    
C109  C125  1.403644 A    
C122  C138  1.407278 A    
C252  H167  1.109383 S    
C50   C70   1.417684 A    
C13   H13   1.083259 S    
C248  H162  1.107254 S    
C112  C207  1.475095 S    
C52   I4    2.129452 S    
C87   C167  1.404221 A    
C11   C18   1.398975 A    
C92   C172  1.404261 A    
C242  C243  1.535099 S    
C146  H78   1.082986 S    
C127  C143  1.393490 A    
C14   C20   1.398947 A    
C105  H53   1.083007 S    
C24   C163  1.471377 S    
Zn9   O21   1.930367 S    
C98   C114  1.403770 A    
C234  H125  1.109476 S    
C237  H131  1.110429 S    
Zn11  O23   1.930638 S    
C19   C224  1.470752 S    
Zn12  O40   1.925905 S    
C8    C16   1.391700 A    
C2    C10   1.391722 A    
C184  C192  1.393567 A    
Zn9   O1    1.940694 S    
C17   C222  1.470765 S    
N1    N4    1.331565 A    
C237  H132  1.109438 S    
C40   C43   1.467649 S    
C249  H159  1.110454 S    
C87   C103  1.393783 A    
N5    N8    1.331597 A    
C222  C228  1.418053 A    
C224  C232  1.417967 A    
C60   C66   1.398551 A    
C178  H94   1.082986 S    
C121  C137  1.403638 A    
C9    C17   1.398978 A    
C16   H16   1.083256 S    
O10   C26   1.280359 A    
C11   H11   1.083292 S    
Zn9   O28   1.930629 S    
C147  C163  1.404182 A    
Zn10  O27   1.930631 S    
C8    C39   1.404987 A    
C123  C220  1.475093 S    
C104  H52   1.083005 S    
O51   C47   1.282602 A    
C124  C219  1.475190 S    
Zn2   O2    1.938488 S    
C144  H76   1.082987 S    
C54   C72   1.417805 A    
C247  H150  1.110883 S    
C28   C159  1.471383 S    
O45   C45   1.282641 A    
C140  H72   1.083012 S    
C232  C254  1.529809 S    
C125  H57   1.083007 S    
C82   C162  1.404235 A    
C179  C212  1.403910 A    
Zn4   O46   1.925575 S    
C26   C157  1.471491 S    
C200  C216  1.403803 A    
C61   H21   1.083282 S    
C37   C42   1.467761 S    
C96   C112  1.403750 A    
C78   C158  1.404232 A    
C134  H66   1.083009 S    
C39   C44   1.467671 S    
C230  C232  1.416871 A    
C22   C161  1.463410 S    
C88   C168  1.404255 A    
C132  H64   1.083016 S    
C183  C191  1.393524 A    
O30   C35   1.280539 A    
C184  C215  1.403917 A    
C227  C239  1.529915 S    
C185  C218  1.403903 A    
Zn10  O38   1.925634 S    
C250  H158  1.110364 S    
C180  H96   1.082990 S    
C33   C166  1.471490 S    
C107  C123  1.403724 A    
Zn9   O37   1.925634 S    
C245  H154  1.108442 S    
C82   C98   1.393822 A    
C95   H43   1.083005 S    
C175  C199  1.393571 A    
O22   C27   1.280450 A    
C14   H14   1.083261 S    
C185  H101  1.082985 S    
