data_mof_unit_51013.cif
_audit_creation_date              2012-12-10T18:11:40-0500
_audit_creation_method            fapswitch 2.2
_symmetry_space_group_name_H-M    P1
_symmetry_Int_Tables_number       1
_space_group_crystal_system       triclinic
_cell_length_a                    10.508315
_cell_length_b                    12.627926
_cell_length_c                    13.096031
_cell_angle_alpha                 82.156129
_cell_angle_beta                  90.598821
_cell_angle_gamma                 102.596914
_cell_volume                      1679.78460895

loop_
_atom_site_label
_atom_site_type_symbol
_atom_type_description
_atom_site_fract_x
_atom_site_fract_y
_atom_site_fract_z
_atom_type_partial_charge
C1    C     C_R   0.479796 0.438746 0.691220 0.838005
C2    C     C_3   0.056366 0.558348 0.412350 0.148094
C3    C     C_3   0.987937 0.605291 0.493672 -0.199599
C4    C     C_3   0.877618 0.502431 0.499528 -0.048942
C5    C     C_R   0.402871 0.701833 0.064568 -0.187933
C6    C     C_R   0.498732 0.596606 0.199772 -0.049233
C7    C     C_R   0.494761 0.299774 0.839827 -0.195327
C8    C     C_R   0.502986 0.270849 0.945353 -0.148349
C9    C     C_R   0.488215 0.344328 0.012057 -0.172471
C10   C     C_R   0.458620 0.446726 0.973755 0.079353
C11   C     C_R   0.428902 0.466925 0.869197 0.035487
C12   C     C_R   0.742213 0.501060 0.499551 0.912068
C13   C     C_R   0.458287 0.529756 0.035713 0.025588
C14   C     C_R   0.405838 0.622488 0.998866 0.147578
C15   C     C_R   0.356711 0.632407 0.898229 0.163317
C16   C     C_R   0.368679 0.554575 0.834846 -0.207077
C17   C     C_R   0.512946 0.523830 0.132926 -0.232647
C18   C     C_R   0.446766 0.687661 0.165227 -0.216753
C19   C     C_R   0.461971 0.399312 0.801115 -0.092665
C20   C     C_R   0.323976 0.089725 0.343238 -0.307517
C21   C     C_R   0.651224 0.798553 0.632029 0.027931
C22   C     C_R   0.681394 0.902275 0.662093 -0.251126
C23   C     C_R   0.512388 0.561091 0.308649 0.871499
C24   C     C_R   0.623980 0.984156 0.612395 -0.195114
C25   C     C_R   0.535778 0.962353 0.531713 0.018604
C26   C     C_R   0.508478 0.855114 0.504068 0.237599
C27   C     C_R   0.473619 0.042006 0.477672 -0.016267
C28   C     C_R   0.386165 0.012766 0.397480 0.198012
C29   C     C_R   0.361761 0.907121 0.371848 -0.295250
C30   C     C_R   0.421931 0.829572 0.424701 -0.214509
C31   C     C_R   0.494711 0.150311 0.499243 -0.033140
C32   C     C_R   0.349063 0.195173 0.368415 0.009694
C33   C     C_R   0.257790 0.499046 0.499924 0.878580
C34   C     C_3   0.942839 0.441098 0.586832 -0.242062
C35   C     C_3   0.055634 0.543820 0.581274 -0.174376
C36   C     C_3   0.122313 0.497678 0.498988 -0.045126
C37   C     C_3   0.012016 0.394522 0.504810 -0.256640
C38   C     C_3   0.945658 0.457063 0.419201 0.479228
H1    H     H_    0.105257 0.578912 0.648241 0.147545
H2    H     H_    0.563926 0.460252 0.160339 0.164246
H3    H     H_    0.517707 0.245867 0.788466 0.148866
H4    H     H_    0.497121 0.317861 0.093216 0.136998
H5    H     H_    0.526481 0.193316 0.975337 0.142591
H6    H     H_    0.328813 0.562132 0.758318 0.167804
H7    H     H_    0.302565 0.256153 0.326990 0.132947
H8    H     H_    0.295909 0.884464 0.310334 0.150413
H9    H     H_    0.257135 0.068602 0.281895 0.145117
H10   H     H_    0.559740 0.180436 0.557974 0.121742
H11   H     H_    0.695082 0.734451 0.670685 0.141169
H12   H     H_    0.892046 0.394140 0.658273 0.151178
H13   H     H_    0.650396 0.063070 0.638780 0.134343
H14   H     H_    0.748833 0.919124 0.723901 0.150232
H15   H     H_    0.399413 0.749887 0.401913 0.209990
H16   H     H_    0.024788 0.309164 0.507898 0.161774
H17   H     H_    0.974940 0.690729 0.489103 0.162923
H18   H     H_    0.434557 0.744804 0.216905 0.151747
H19   H     H_    0.362650 0.772914 0.040372 0.151777
N1    N     N_R   0.432930 0.222190 0.444670 -0.100832
N2    N     N_R   0.566370 0.776980 0.554790 -0.131985
O1    O     O_R   0.467970 0.366730 0.627150 -0.621696
O2    O     O_R   0.510820 0.544830 0.662520 -0.618369
O3    O     O_R   0.664630 0.410960 0.482340 -0.582989
O4    O     O_R   0.707470 0.589060 0.517710 -0.632561
O5    O     O_R   0.489180 0.455170 0.337480 -0.609009
O6    O     O_R   0.532030 0.633270 0.372850 -0.635892
O7    O     O_R   0.292530 0.410940 0.482290 -0.626885
O8    O     O_R   0.335370 0.589040 0.517660 -0.639651
Zn1   Zn    Zn3+2 0.471390 0.381080 0.476380 0.953595
Zn2   Zn    Zn3+2 0.528610 0.618920 0.523620 0.923985
O9    O     O_3   0.882894 0.413083 0.334858 -0.763156
H20   H     H_    0.950520 0.388000 0.298219 0.326940
C39   C     C_3   0.120396 0.620487 0.311723 -0.936018
H21   H     H_    0.045893 0.649747 0.261508 0.260438
H22   H     H_    0.195920 0.691719 0.327788 0.234895
H23   H     H_    0.166215 0.565869 0.271632 0.239080
C40   C     C_3   0.294848 0.726059 0.855737 -0.929281
H24   H     H_    0.261419 0.719946 0.775556 0.242717
H25   H     H_    0.208725 0.725920 0.904191 0.239784
H26   H     H_    0.366724 0.805014 0.854782 0.244974

loop_
_geom_bond_atom_site_label_1
_geom_bond_atom_site_label_2
_ccdc_geom_bond_type
O7    Zn1   S    
C38   O9    S    
C34   C37   S    
C32   H7    S    
C35   C36   S    
C40   H26   S    
C32   N1    A    
C21   H11   S    
C7    C8    A    
C11   C19   A    
C9    H4    S    
C29   C30   A    
O5    Zn1   S    
C31   N1    A    
C36   C37   S    
C40   H25   S    
C21   N2    A    
O2    Zn2   S    
C15   C16   A    
C33   C36   S    
C34   C35   S    
C3    H17   S    
O4    Zn2   S    
C8    C9    A    
C8    H5    S    
O9    H20   S    
C4    C12   S    
C9    C10   A    
C16   H6    S    
C18   H18   S    
C24   H13   S    
C15   C40   S    
C21   C22   A    
C39   H23   S    
C2    C39   S    
C33   O7    A    
C6    C18   A    
C30   H15   S    
C4    C34   S    
C34   H12   S    
C1    C19   S    
C27   C31   A    
C24   C25   A    
C39   H22   S    
C1    O1    A    
C12   O4    A    
C5    C18   A    
C20   C28   A    
C25   C26   A    
O8    Zn2   S    
C17   H2    S    
C35   H1    S    
C37   C38   S    
C12   O3    A    
C11   C16   A    
C2    C38   S    
C3    C35   S    
C40   H24   S    
C5    C14   A    
N2    Zn2   S    
C37   H16   S    
N1    Zn1   S    
C23   O5    A    
C4    C38   S    
C26   C30   A    
C7    C19   A    
C31   H10   S    
C22   C24   A    
C3    C4    S    
C33   O8    A    
C22   H14   S    
C20   C32   A    
C2    C36   S    
C6    C17   A    
C28   C29   A    
C39   H21   S    
C10   C13   A    
C1    O2    A    
C5    H19   S    
C25   C27   A    
C13   C17   A    
C29   H8    S    
C23   O6    A    
C2    C3    S    
O6    Zn2   S    
C6    C23   S    
O3    Zn1   S    
C7    H3    S    
C20   H9    S    
C10   C11   A    
O1    Zn1   S    
C27   C28   A    
C14   C15   A    
C26   N2    A    
C13   C14   A    
