data_mof_unit_42574.cif
_audit_creation_date              2012-12-10T17:22:08-0500
_audit_creation_method            fapswitch 2.2
_symmetry_space_group_name_H-M    P1
_symmetry_Int_Tables_number       1
_space_group_crystal_system       triclinic
_cell_length_a                    15.877875
_cell_length_b                    10.779387
_cell_length_c                    9.637585
_cell_angle_alpha                 90.439012
_cell_angle_beta                  90.521993
_cell_angle_gamma                 93.217406
_cell_volume                      1646.78534667

loop_
_atom_site_label
_atom_site_type_symbol
_atom_type_description
_atom_site_fract_x
_atom_site_fract_y
_atom_site_fract_z
_atom_type_partial_charge
C1    C     C_R   0.496740 0.262636 0.499577 0.776353
C2    C     C_3   0.949426 0.428021 0.624849 -0.382812
C3    C     C_3   0.917285 0.504551 0.501589 0.284645
C4    C     C_3   0.955687 0.639680 0.514976 -0.389498
C5    C     C_3   0.054252 0.640221 0.511147 0.163493
C6    C     C_1   0.825013 0.503293 0.501894 -0.100746
C7    C     C_1   0.175295 0.502116 0.498986 -0.077766
C8    C     C_1   0.250793 0.500718 0.498620 -0.170963
C9    C     C_R   0.363667 0.119311 0.646549 -0.173210
C10   C     C_R   0.302377 0.049928 0.719724 -0.102135
C11   C     C_R   0.302988 0.921012 0.721238 -0.146317
C12   C     C_R   0.340416 0.499602 0.499531 0.794506
C13   C     C_R   0.364786 0.860620 0.649405 -0.172237
C14   C     C_R   0.428683 0.929091 0.576657 0.099449
C15   C     C_R   0.428148 0.060315 0.575365 0.092947
C16   C     C_R   0.490542 0.128304 0.498699 -0.094696
C17   C     C_R   0.549129 0.067616 0.419780 -0.185376
C18   C     C_R   0.549615 0.939698 0.420874 -0.205223
C19   C     C_R   0.491507 0.870400 0.500867 -0.086321
C20   C     C_R   0.611911 0.667188 0.146390 -0.120418
C21   C     C_R   0.666314 0.749204 0.075628 -0.216342
C22   C     C_R   0.666230 0.749006 0.932558 -0.203684
C23   C     C_R   0.497400 0.736988 0.500396 0.763679
C24   C     C_R   0.611708 0.666822 0.859265 -0.121038
C25   C     C_R   0.554721 0.582215 0.926886 0.196710
C26   C     C_R   0.554743 0.582321 0.076156 0.196936
C27   C     C_R   0.447762 0.419699 0.070398 0.063901
C28   C     C_R   0.448450 0.421440 0.922686 -0.020334
C29   C     C_R   0.659611 0.500638 0.500494 0.810160
C30   C     C_3   0.046922 0.425665 0.622639 -0.365549
C31   C     C_3   0.045678 0.445614 0.364289 -0.458529
C32   C     C_3   0.948107 0.446825 0.364524 -0.387805
C33   C     C_1   0.749379 0.502030 0.501612 -0.181338
C34   C     C_3   0.083097 0.504207 0.500618 0.288815
Cu1   Cu    Cu3+1 0.499990 0.499990 0.640660 0.928134
Cu2   Cu    Cu3+1 0.500010 0.500010 0.359340 0.922926
H1    H     H_    0.921347 0.331137 0.618770 0.166081
H2    H     H_    0.074515 0.459637 0.723103 0.181666
H3    H     H_    0.929109 0.468543 0.724780 0.160347
H4    H     H_    0.933095 0.695568 0.426818 0.130326
H5    H     H_    0.596184 0.119851 0.359765 0.151469
H6    H     H_    0.358690 0.218854 0.644286 0.135673
H7    H     H_    0.253521 0.096343 0.773933 0.148651
H8    H     H_    0.254695 0.867415 0.776803 0.143265
H9    H     H_    0.360681 0.760282 0.649757 0.160546
H10   H     H_    0.596935 0.894563 0.361357 0.135573
H11   H     H_    0.064903 0.327806 0.610849 0.157417
H12   H     H_    0.617822 0.674167 0.255966 0.187989
H13   H     H_    0.709161 0.813090 0.132570 0.140074
H14   H     H_    0.709018 0.812703 0.877637 0.144335
H15   H     H_    0.617178 0.673227 0.749824 0.193409
H16   H     H_    0.406655 0.358232 0.863074 0.178886
H17   H     H_    0.070805 0.497823 0.272971 0.166850
H18   H     H_    0.064704 0.348230 0.352945 0.183962
H19   H     H_    0.920478 0.350127 0.352062 0.173398
H20   H     H_    0.926493 0.501020 0.274353 0.167210
H21   H     H_    0.073440 0.686505 0.412271 0.084568
H22   H     H_    0.931265 0.683381 0.609752 0.174787
N1    N     N_R   0.500800 0.501210 0.147910 -0.244064
N2    N     N_R   0.500820 0.501290 0.852040 -0.224429
O1    O     O_R   0.499990 0.319640 0.618810 -0.573395
O2    O     O_R   0.500000 0.319660 0.381240 -0.599896
O3    O     O_R   0.379430 0.499990 0.618840 -0.581933
O4    O     O_R   0.379440 0.500020 0.381260 -0.598792
O5    O     O_R   0.500000 0.680340 0.618760 -0.601293
O6    O     O_R   0.500010 0.680360 0.381190 -0.585715
O7    O     O_R   0.620560 0.499980 0.618740 -0.586356
O8    O     O_R   0.620570 0.500010 0.381160 -0.589877
C35   C     C_2   0.388284 0.326670 0.136034 0.360897
H23   H     H_    0.378463 0.323555 0.245729 0.141931
O9    O     O_2   0.347723 0.249279 0.065679 -0.590813
N3    N     N_2   0.098293 0.710831 0.623306 -0.423264
H24   H     H_    0.135614 0.786529 0.591394 0.246116
C36   C     C_3   0.061322 0.726823 0.758758 -0.706359
H25   H     H_    0.112358 0.748327 0.836121 0.224036
H26   H     H_    0.025240 0.641819 0.792606 0.230970
H27   H     H_    0.019435 0.805914 0.756892 0.215444

loop_
_geom_bond_atom_site_label_1
_geom_bond_atom_site_label_2
_ccdc_geom_bond_type
C28   H16   S    
Cu2   O4    S    
Cu1   Cu2   S    
C3    C6    S    
C1    O2    A    
C21   H13   S    
C7    C8    T    
C9    H6    S    
C36   H26   S    
C23   O6    A    
C5    N3    S    
C12   O4    A    
Cu2   O6    S    
Cu1   O5    S    
C15   C16   A    
C29   C33   S    
C30   H2    S    
C18   C19   A    
C35   O9    D    
C29   O7    A    
C2    H3    S    
C4    H4    S    
C16   C17   A    
C36   H27   S    
C25   N2    A    
C26   N1    A    
C32   H19   S    
C27   C35   S    
C22   H14   S    
Cu2   N1    S    
C24   H15   S    
C13   C14   A    
C3    C32   S    
Cu2   O2    S    
C18   H10   S    
C28   N2    A    
C36   H25   S    
C30   C34   S    
C30   H11   S    
C24   C25   A    
N3    C36   S    
C12   O3    A    
N3    H24   S    
C25   C26   A    
Cu1   N2    S    
C19   C23   S    
C29   O8    A    
C31   C32   S    
Cu1   O7    S    
C8    C12   S    
C5    C34   S    
C17   C18   A    
C31   C34   S    
C11   H8    S    
Cu1   O1    S    
C1    C16   S    
C31   H17   S    
C20   H12   S    
C7    C34   S    
C22   C24   A    
C3    C4    S    
C9    C10   A    
C10   H7    S    
C14   C19   A    
C4    C5    S    
C1    O1    A    
Cu2   O8    S    
C6    C33   T    
C5    H21   S    
C2    C30   S    
C23   O5    A    
C2    C3    S    
C9    C15   A    
C27   N1    A    
C13   H9    S    
C11   C13   A    
C2    H1    S    
C20   C26   A    
C31   H18   S    
C35   H23   S    
C17   H5    S    
C10   C11   A    
C20   C21   A    
C4    H22   S    
C27   C28   A    
C14   C15   A    
Cu1   O3    S    
C21   C22   A    
C32   H20   S    
