data_mof_unit_51950.cif
_audit_creation_date              2012-12-10T17:51:27-0500
_audit_creation_method            fapswitch 2.2
_symmetry_space_group_name_H-M    P1
_symmetry_Int_Tables_number       1
_space_group_crystal_system       triclinic
_cell_length_a                    14.796447
_cell_length_b                    14.877688
_cell_length_c                    17.262726
_cell_angle_alpha                 107.504594
_cell_angle_beta                  72.215418
_cell_angle_gamma                 115.658441
_cell_volume                      3198.24854215

loop_
_atom_site_label
_atom_site_type_symbol
_atom_type_description
_atom_site_fract_x
_atom_site_fract_y
_atom_site_fract_z
_atom_type_partial_charge
C1    C     C_R   0.118761 0.688498 0.513606 0.823332
C2    C     C_R   0.880714 0.311546 0.487519 0.827681
C3    C     C_R   0.183828 0.798381 0.524823 -0.197148
C4    C     C_R   0.811959 0.203194 0.486529 -0.192398
C5    C     C_R   0.205676 0.977846 0.557700 0.079129
C6    C     C_R   0.780033 0.027915 0.485616 0.074734
C7    C     C_R   0.142320 0.873532 0.543386 0.424056
C8    C     C_R   0.848806 0.124862 0.468594 0.424148
C9    C     C_R   0.288197 0.827966 0.518453 -0.299452
C10   C     C_R   0.706311 0.179139 0.508600 -0.291751
C11   C     C_R   0.353002 0.930631 0.534314 0.015916
C12   C     C_R   0.635841 0.078389 0.504916 0.009246
C13   C     C_R   0.313871 0.006751 0.545953 -0.048055
C14   C     C_R   0.672271 0.001848 0.498883 -0.054518
C15   C     C_R   0.458505 0.958012 0.531709 -0.028144
C16   C     C_R   0.529028 0.054034 0.513694 -0.024609
C17   C     C_R   0.489442 0.121981 0.505535 0.044067
C18   C     C_R   0.496061 0.890372 0.542484 0.038715
C19   C     C_R   0.385217 0.106614 0.538383 0.427884
C20   C     C_R   0.599549 0.904216 0.511296 0.438260
C21   C     C_R   0.312040 0.348988 0.347487 -0.297090
C22   C     C_R   0.689386 0.652873 0.651756 -0.288666
C23   C     C_R   0.987597 0.501363 0.652794 0.779835
C24   C     C_R   0.012374 0.498717 0.347371 0.771075
C25   C     C_R   0.224465 0.371924 0.372235 0.385891
C26   C     C_R   0.779663 0.634485 0.624301 0.371521
C27   C     C_R   0.280328 0.482222 0.494463 -0.029052
C28   C     C_R   0.715426 0.510761 0.509726 -0.045505
C29   C     C_R   0.372675 0.461883 0.470530 -0.076243
C30   C     C_R   0.622607 0.530107 0.534380 -0.076661
C31   C     C_R   0.386869 0.394040 0.394782 0.038080
C32   C     C_R   0.610250 0.600750 0.608613 0.033900
C33   C     C_R   0.451583 0.506713 0.517926 0.021184
C34   C     C_R   0.542651 0.483458 0.488048 0.032380
C35   C     C_R   0.552491 0.416892 0.411536 -0.309217
C36   C     C_R   0.441834 0.573208 0.594559 -0.313568
C37   C     C_R   0.477121 0.373828 0.364843 0.451824
C38   C     C_R   0.518952 0.618969 0.639845 0.468212
C39   C     C_R   0.977008 0.495180 0.738455 -0.020836
C40   C     C_R   0.024899 0.508655 0.262684 -0.007230
C41   C     C_R   0.028721 0.444646 0.754260 -0.194550
C42   C     C_R   0.002453 0.585253 0.250336 -0.207636
C43   C     C_R   0.020436 0.438492 0.834943 -0.174872
C44   C     C_R   0.012366 0.595610 0.170454 -0.176115
C45   C     C_R   0.962331 0.484686 0.901082 0.193852
C46   C     C_R   0.043950 0.528881 0.102332 0.192659
C47   C     C_R   0.908211 0.532798 0.885807 -0.178945
C48   C     C_R   0.067338 0.452845 0.114043 -0.169218
C49   C     C_R   0.915233 0.537786 0.804628 -0.204537
C50   C     C_R   0.057699 0.442631 0.194145 -0.216880
C51   C     C_2   0.959908 0.483852 0.986590 0.117039
C52   C     C_2   0.046187 0.534468 0.018460 0.111455
Cu1   Cu    Cu3+1 0.916740 0.524770 0.521640 0.931850
Cu2   Cu    Cu3+1 0.083260 0.475230 0.478360 0.949358
H1    H     H_    0.075353 0.409379 0.704257 0.158817
H2    H     H_    0.977420 0.637188 0.302487 0.143275
H3    H     H_    0.728485 0.454530 0.456269 0.140422
H4    H     H_    0.265102 0.534742 0.550227 0.132747
H5    H     H_    0.323290 0.298021 0.288680 0.187290
H6    H     H_    0.681529 0.708973 0.707878 0.190354
H7    H     H_    0.618938 0.397151 0.384812 0.147562
H8    H     H_    0.374694 0.591664 0.621876 0.143992
H9    H     H_    0.072154 0.381213 0.202309 0.133403
H10   H     H_    0.873977 0.576229 0.793817 0.148135
H11   H     H_    0.862274 0.567870 0.936741 0.133696
H12   H     H_    0.090483 0.400175 0.061273 0.129025
H13   H     H_    0.993627 0.654154 0.161613 0.129983
H14   H     H_    0.060500 0.398934 0.846046 0.127249
H15   H     H_    0.678869 0.240474 0.530719 0.198780
H16   H     H_    0.319762 0.769538 0.497120 0.193785
N1    N     N_R   0.208390 0.438070 0.445820 -0.165465
N2    N     N_R   0.791610 0.561930 0.554180 -0.180832
O1    O     O_R   0.020090 0.662480 0.528530 -0.543478
O2    O     O_R   0.979910 0.337520 0.471470 -0.535248
O3    O     O_R   0.160710 0.620650 0.491980 -0.592373
O4    O     O_R   0.839290 0.379350 0.508020 -0.593589
O5    O     O_R   0.921540 0.523360 0.633990 -0.592044
O6    O     O_R   0.078460 0.476640 0.366010 -0.587366
O7    O     O_R   0.062170 0.481520 0.597440 -0.588042
O8    O     O_R   0.937830 0.518480 0.402560 -0.599640
C53   C     C_3   0.547577 0.195969 0.446779 -0.799107
H17   H     H_    0.576986 0.275209 0.481287 0.211758
H18   H     H_    0.611675 0.177195 0.401681 0.227780
H19   H     H_    0.496293 0.191114 0.408946 0.273791
C54   C     C_3   0.433410 0.814024 0.598791 -0.789724
H20   H     H_    0.365353 0.829573 0.639372 0.228347
H21   H     H_    0.408467 0.735457 0.562369 0.210091
H22   H     H_    0.480086 0.819504 0.640879 0.277192
O9    O     O_3   0.490792 0.307996 0.290101 -0.586219
C55   C     C_3   0.554575 0.366060 0.228647 0.038386
H23   H     H_    0.632479 0.412016 0.242513 0.145730
H24   H     H_    0.520958 0.417671 0.223518 0.135058
C56   C     C_3   0.565358 0.294791 0.145223 -0.776161
H25   H     H_    0.488837 0.247761 0.129435 0.244729
H26   H     H_    0.614185 0.339737 0.096242 0.198426
H27   H     H_    0.601359 0.244091 0.147544 0.252200
O10   O     O_3   0.506738 0.686819 0.713580 -0.587766
C57   C     C_3   0.444704 0.631150 0.776850 0.033697
H28   H     H_    0.479033 0.580473 0.782591 0.135533
H29   H     H_    0.366095 0.584615 0.764663 0.143699
C58   C     C_3   0.435925 0.704851 0.859154 -0.777266
H30   H     H_    0.399277 0.754687 0.856226 0.252793
H31   H     H_    0.388509 0.661830 0.909583 0.198765
H32   H     H_    0.513175 0.752657 0.873276 0.245896
C59   C     C_3   0.858343 0.698494 0.677556 -0.751263
H33   H     H_    0.929949 0.686291 0.658511 0.276164
H34   H     H_    0.878624 0.780132 0.679292 0.225865
H35   H     H_    0.824849 0.684808 0.741902 0.168928
C60   C     C_3   0.157849 0.330035 0.309436 -0.813863
H36   H     H_    0.076215 0.309368 0.338043 0.270317
H37   H     H_    0.184217 0.386509 0.269785 0.220253
H38   H     H_    0.165498 0.259664 0.267216 0.180401
C61   C     C_3   0.145994 0.600091 0.971603 -0.907959
H39   H     H_    0.203525 0.642023 0.011746 0.235916
H40   H     H_    0.178303 0.552595 0.917174 0.230885
H41   H     H_    0.133642 0.656864 0.950753 0.243258
C62   C     C_3   0.858961 0.424600 0.036779 -0.907317
H42   H     H_    0.798240 0.387148 0.999571 0.234458
H43   H     H_    0.866848 0.364487 0.056749 0.243291
H44   H     H_    0.834128 0.476428 0.092247 0.233366
O11   O     O_3   0.352339 0.183897 0.546892 -0.576275
C63   C     C_3   0.384494 0.260884 0.615783 0.082318
H45   H     H_    0.465409 0.311671 0.597724 0.158681
H46   H     H_    0.377157 0.229243 0.669413 0.119401
C64   C     C_3   0.318974 0.325090 0.644966 -0.805768
H47   H     H_    0.241913 0.283371 0.679108 0.224657
H48   H     H_    0.355770 0.396523 0.687194 0.186187
H49   H     H_    0.309773 0.343943 0.591171 0.275782
O12   O     O_3   0.629482 0.823666 0.498408 -0.578089
C65   C     C_3   0.596406 0.751267 0.427593 0.090298
H50   H     H_    0.594750 0.786136 0.379293 0.116809
H51   H     H_    0.518534 0.695266 0.446468 0.161638
C66   C     C_3   0.668300 0.693965 0.387529 -0.822493
H52   H     H_    0.686336 0.672513 0.435551 0.275370
H53   H     H_    0.631849 0.623986 0.343819 0.197403
H54   H     H_    0.740658 0.742221 0.352296 0.218422
O13   O     O_3   0.952948 0.145597 0.443306 -0.562109
C67   C     C_3   0.973727 0.094836 0.360030 0.060003
H55   H     H_    0.978169 0.140070 0.317335 0.132445
H56   H     H_    0.914560 0.017548 0.345151 0.131415
C68   C     C_3   0.075195 0.082174 0.342766 -0.791543
H57   H     H_    0.066210 0.024076 0.375256 0.222717
H58   H     H_    0.100121 0.057097 0.275122 0.196475
H59   H     H_    0.134981 0.154727 0.365175 0.273468
O14   O     O_3   0.039319 0.844628 0.545579 -0.577631
C69   C     C_3   0.027396 0.840515 0.466186 0.080301
H60   H     H_    0.079417 0.809136 0.414463 0.120105
H61   H     H_    0.042420 0.917983 0.459845 0.143441
C70   C     C_3   0.918132 0.772417 0.456812 -0.783061
H62   H     H_    0.862820 0.794846 0.510690 0.264418
H63   H     H_    0.905070 0.777973 0.398741 0.178991
H64   H     H_    0.905161 0.692338 0.452981 0.274860
C71   C     C_3   0.155329 0.054984 0.586082 -0.747225
H65   H     H_    0.070654 0.020111 0.603352 0.235461
H66   H     H_    0.180319 0.107640 0.643052 0.232700
H67   H     H_    0.173947 0.096637 0.536140 0.263953
C72   C     C_3   0.824130 0.958641 0.495989 -0.749570
H68   H     H_    0.906325 0.997504 0.499219 0.242295
H69   H     H_    0.784588 0.931655 0.555384 0.256847
H70   H     H_    0.816948 0.894082 0.442658 0.241752

loop_
_geom_bond_atom_site_label_1
_geom_bond_atom_site_label_2
_ccdc_geom_bond_type
C15   C18   A    
C56   H25   S    
C66   H52   S    
C46   C52   S    
C27   C29   A    
C26   N2    A    
C2    C4    S    
C20   O12   S    
C4    C8    A    
C53   H19   S    
C62   H43   S    
C53   H17   S    
C27   N1    A    
C39   C41   A    
C52   C61   S    
C7    O14   S    
C21   C31   A    
C58   H30   S    
C22   C32   A    
C24   C40   S    
C56   H27   S    
C35   C37   A    
C61   H39   S    
C3    C7    A    
C60   H37   S    
C22   H6    S    
C23   C39   S    
C70   H62   S    
C45   C51   S    
C15   C16   A    
C29   C33   A    
C33   C36   A    
C18   C20   A    
C34   C35   A    
C45   C47   A    
C56   H26   S    
C41   H1    S    
C42   H2    S    
Cu2   O2    S    
C11   C15   A    
C24   O8    A    
C72   H68   S    
Cu2   N1    S    
C12   C16   A    
C16   C17   A    
C66   H54   S    
C25   N1    A    
C32   C38   A    
C71   H66   S    
C60   H38   S    
C5    C13   A    
C2    O2    A    
C25   C60   S    
C61   H41   S    
C40   C42   A    
C72   H69   S    
C49   H10   S    
C28   H3    S    
C50   H9    S    
C41   C43   A    
C28   N2    A    
C23   O7    A    
C42   C44   A    
C38   O10   S    
C36   H8    S    
C26   C59   S    
C53   H18   S    
C44   C46   A    
O10   C57   S    
C69   H61   S    
C63   H45   S    
C54   H21   S    
C59   H35   S    
C46   C48   A    
C18   C54   S    
C30   C34   A    
C51   C52   D    
C1    O3    A    
C14   C20   A    
Cu1   O8    S    
C9    H16   S    
C47   C49   A    
C70   H64   S    
C5    C7    A    
C13   C19   A    
C43   H14   S    
C6    C8    A    
Cu1   Cu2   S    
C67   C68   S    
C68   H59   S    
C31   C37   A    
C61   H40   S    
C8    O13   S    
C1    C3    S    
C68   H58   S    
C65   H51   S    
C3    C9    A    
C6    C14   A    
C69   C70   S    
C59   H34   S    
C55   H24   S    
C33   C34   A    
C35   H7    S    
C23   O5    A    
C71   H67   S    
C43   C45   A    
O11   C63   S    
C10   C12   A    
C24   O6    A    
C39   C49   A    
C12   C14   A    
C58   H32   S    
C57   H29   S    
C9    C11   A    
Cu1   O5    S    
C51   C62   S    
C62   H44   S    
Cu1   O4    S    
C63   H46   S    
C36   C38   A    
O14   C69   S    
C6    C72   S    
C2    O4    A    
C55   C56   S    
C64   H48   S    
C69   H60   S    
O13   C67   S    
C54   H22   S    
C21   C25   A    
C19   O11   S    
Cu1   O1    S    
C27   H4    S    
C54   H20   S    
C21   H5    S    
C67   H56   S    
C72   H70   S    
C57   C58   S    
C59   H33   S    
C37   O9    S    
C1    O1    A    
C63   C64   S    
C70   H63   S    
C65   H50   S    
O12   C65   S    
C28   C30   A    
C29   C31   A    
C68   H57   S    
C30   C32   A    
C11   C13   A    
C55   H23   S    
C64   H47   S    
C64   H49   S    
C5    C71   S    
C48   C50   A    
C17   C19   A    
C17   C53   S    
C71   H65   S    
C67   H55   S    
Cu2   O7    S    
Cu2   O3    S    
C65   C66   S    
C10   H15   S    
C40   C50   A    
C58   H31   S    
C57   H28   S    
C22   C26   A    
C60   H36   S    
C66   H53   S    
C44   H13   S    
C48   H12   S    
O9    C55   S    
C62   H42   S    
Cu1   N2    S    
C4    C10   A    
C47   H11   S    
Cu2   O6    S    
