data_mof_unit_10825.cif
_audit_creation_date              2012-10-26T20:51:59-0400
_audit_creation_method            fapswitch 2.2
_symmetry_space_group_name_H-M    P1
_symmetry_Int_Tables_number       1
_space_group_crystal_system       triclinic
_cell_length_a                    8.679309
_cell_length_b                    16.023396
_cell_length_c                    14.764825
_cell_angle_alpha                 89.871189
_cell_angle_beta                  97.533176
_cell_angle_gamma                 90.045049
_cell_volume                      2035.64599318

loop_
_atom_site_label
_atom_site_type_symbol
_atom_type_description
_atom_site_fract_x
_atom_site_fract_y
_atom_site_fract_z
_atom_type_partial_charge
C1    C     C_R   0.499975 0.340964 0.500093 0.564967
C2    C     C_R   0.794863 0.513473 0.522605 0.567664
C3    C     C_2   0.041873 0.539949 0.463915 -0.024183
C4    C     C_2   0.958182 0.540025 0.535651 -0.023670
C5    C     C_R   0.641503 0.955686 0.498574 0.038795
C6    C     C_R   0.359533 0.044014 0.501453 0.036932
C7    C     C_R   0.499413 0.912344 0.497727 -0.011989
C8    C     C_R   0.501590 0.087410 0.502229 -0.012343
C9    C     C_R   0.357870 0.956318 0.497969 0.242544
C10   C     C_R   0.643134 0.043400 0.501902 0.242861
C11   C     C_1   0.499905 0.822598 0.498732 -0.072446
C12   C     C_R   0.500171 0.659013 0.499919 0.531156
C13   C     C_1   0.500971 0.177226 0.501292 -0.069712
C14   C     C_1   0.500405 0.252107 0.500533 -0.035149
C15   C     C_1   0.500157 0.747766 0.499504 -0.043661
C16   C     C_R   0.640731 0.502260 0.961628 0.031127
C17   C     C_R   0.359039 0.500967 0.038361 0.030097
C18   C     C_3   0.974705 0.570936 0.368660 -0.274016
C19   C     C_3   0.066359 0.645111 0.337609 -0.440436
C20   C     C_3   0.025113 0.572178 0.630292 -0.270920
C21   C     C_3   0.932570 0.646487 0.659727 -0.447707
C22   C     C_3   0.793796 0.908889 0.497317 -0.224714
C23   C     C_R   0.498051 0.500032 0.902614 -0.043908
C24   C     C_3   0.868043 0.888070 0.594148 -0.411422
C25   C     C_3   0.207275 0.090746 0.502883 -0.224506
C26   C     C_3   0.133185 0.111952 0.406125 -0.403798
C27   C     C_3   0.793546 0.503198 0.921931 -0.223005
C28   C     C_3   0.844373 0.592519 0.905420 -0.422381
C29   C     C_3   0.206279 0.500713 0.078110 -0.226547
C30   C     C_3   0.154012 0.411594 0.094286 -0.411064
C31   C     C_R   0.501730 0.502604 0.097371 -0.044428
C32   C     C_R   0.356630 0.498742 0.941806 0.235521
C33   C     C_R   0.643078 0.504669 0.058169 0.235586
C34   C     C_1   0.498336 0.500046 0.802363 0.103733
C35   C     C_1   0.501575 0.501056 0.197632 0.103029
C36   C     C_R   0.205196 0.513532 0.477296 0.566579
Cu1   Cu    Cu3+1 0.500040 0.500000 0.589220 0.955403
Cu2   Cu    Cu3+1 0.499960 0.500000 0.410780 0.952762
H1    H     H_    0.079133 0.694391 0.390929 0.141319
H2    H     H_    0.144830 0.596525 0.631820 0.179664
H3    H     H_    0.775105 0.143978 0.513751 0.330325
H4    H     H_    0.225701 0.855793 0.485185 0.325093
H5    H     H_    0.894204 0.946252 0.633990 0.185125
H6    H     H_    0.788991 0.848329 0.629128 0.141610
H7    H     H_    0.978272 0.853601 0.591573 0.159170
H8    H     H_    0.775687 0.850496 0.456918 0.125977
H9    H     H_    0.876958 0.946289 0.462777 0.218301
H10   H     H_    0.212862 0.151238 0.371096 0.146570
H11   H     H_    0.105852 0.053888 0.366249 0.181378
H12   H     H_    0.182988 0.626119 0.322414 0.189064
H13   H     H_    0.023684 0.147064 0.408837 0.165900
H14   H     H_    0.124009 0.053210 0.537199 0.218816
H15   H     H_    0.225479 0.148944 0.543600 0.132746
H16   H     H_    0.774378 0.515652 0.176562 0.324680
H17   H     H_    0.224788 0.491312 0.823146 0.326166
H18   H     H_    0.754967 0.624951 0.857167 0.143181
H19   H     H_    0.862677 0.627471 0.970832 0.174830
H20   H     H_    0.954983 0.591888 0.875334 0.173666
H21   H     H_    0.885093 0.470620 0.968167 0.199559
H22   H     H_    0.784730 0.467847 0.856856 0.144000
H23   H     H_    0.002940 0.671957 0.273963 0.141390
H24   H     H_    0.134304 0.377019 0.028663 0.176099
H25   H     H_    0.243327 0.378498 0.141973 0.151964
H26   H     H_    0.043927 0.412633 0.124912 0.177208
H27   H     H_    0.215862 0.535888 0.143340 0.136257
H28   H     H_    0.115237 0.533860 0.032049 0.197926
H29   H     H_    0.973963 0.519201 0.318642 0.162643
H30   H     H_    0.854870 0.595112 0.366553 0.178130
H31   H     H_    0.916471 0.694164 0.604559 0.141762
H32   H     H_    0.817328 0.626972 0.676912 0.189023
H33   H     H_    0.996962 0.675526 0.721709 0.134194
H34   H     H_    0.026344 0.521093 0.681368 0.163201
N1    N     N_1   0.500050 0.499980 0.276720 -0.206423
N2    N     N_1   0.499950 0.500020 0.723280 -0.205885
O1    O     O_R   0.500070 0.380310 0.575330 -0.478096
O2    O     O_3   0.215355 0.916456 0.494508 -0.740765
O3    O     O_3   0.786643 0.509667 0.111321 -0.745144
O4    O     O_3   0.212924 0.494593 0.888672 -0.743304
O5    O     O_R   0.499930 0.619690 0.424670 -0.506759
O6    O     O_R   0.500000 0.380310 0.424640 -0.479021
O7    O     O_R   0.500000 0.619690 0.575360 -0.505959
O8    O     O_R   0.274870 0.500000 0.557960 -0.509838
O9    O     O_R   0.725130 0.500000 0.442040 -0.509894
O10   O     O_R   0.274790 0.500000 0.407270 -0.492880
O11   O     O_R   0.725210 0.500000 0.592730 -0.491539
O12   O     O_3   0.785627 0.083230 0.505180 -0.738185

loop_
_geom_bond_atom_site_label_1
_geom_bond_atom_site_label_2
_ccdc_geom_bond_type
Cu1   N2    S    
C8    C13   S    
C30   H26   S    
Cu2   O9    S    
C17   C29   S    
C6    C9    A    
C28   H18   S    
C28   H19   S    
C7    C11   S    
H3    O12   S    
Cu1   Cu2   S    
C21   H33   S    
C24   H7    S    
Cu1   O11   S    
C25   H15   S    
C27   H22   S    
C20   H2    S    
C6    C25   S    
Cu2   O5    S    
C18   H30   S    
C12   O5    A    
C3    C18   S    
C18   C19   S    
C11   C15   T    
C1    O6    A    
C10   O12   S    
C5    C22   S    
C36   O8    A    
C31   C33   A    
C9    O2    S    
C26   H10   S    
H16   O3    S    
C16   C27   S    
C22   H9    S    
Cu1   O1    S    
C13   C14   T    
Cu1   O7    S    
C2    O9    A    
C1    O1    A    
C26   H11   S    
C5    C7    A    
H17   O4    S    
C6    C8    A    
C2    O11   A    
C25   C26   S    
C21   H31   S    
C2    C4    S    
C29   C30   S    
C16   C33   A    
C12   C15   S    
C23   C34   S    
C19   H1    S    
C34   N2    T    
C29   H27   S    
C22   H8    S    
C16   C23   A    
C30   H24   S    
C17   C31   A    
C31   C35   S    
Cu1   O8    S    
C3    C4    D    
C7    C9    A    
C35   N1    T    
Cu2   O10   S    
C36   O10   A    
C28   H20   S    
H4    O2    S    
C21   H32   S    
C23   C32   A    
C18   H29   S    
C25   H14   S    
C5    C10   A    
C27   H21   S    
C26   H13   S    
C19   H12   S    
C33   O3    S    
Cu2   O6    S    
C3    C36   S    
C19   H23   S    
C24   H6    S    
C12   O7    A    
C22   C24   S    
C24   H5    S    
C32   O4    S    
C29   H28   S    
C4    C20   S    
C20   C21   S    
C8    C10   A    
C27   C28   S    
C17   C32   A    
C20   H34   S    
C1    C14   S    
C30   H25   S    
Cu2   N1    S    
