data_mof_unit_42458.cif
_audit_creation_date              2012-12-10T16:52:37-0500
_audit_creation_method            fapswitch 2.2
_symmetry_space_group_name_H-M    P1
_symmetry_Int_Tables_number       1
_space_group_crystal_system       triclinic
_cell_length_a                    7.855591
_cell_length_b                    8.56347
_cell_length_c                    13.762612
_cell_angle_alpha                 93.619328
_cell_angle_beta                  93.083424
_cell_angle_gamma                 94.088742
_cell_volume                      920.046595892

loop_
_atom_site_label
_atom_site_type_symbol
_atom_type_description
_atom_site_fract_x
_atom_site_fract_y
_atom_site_fract_z
_atom_type_partial_charge
C1    C     C_R   0.045032 0.794588 0.497665 0.934938
C2    C     C_R   0.937066 0.489165 0.317902 0.844581
C3    C     C_R   0.100103 0.546888 0.785847 -0.063233
C4    C     C_R   0.907773 0.482228 0.212610 -0.053754
C5    C     C_R   0.079520 0.714450 0.931762 -0.192324
C6    C     C_R   0.965298 0.378476 0.051691 -0.191802
C7    C     C_R   0.013536 0.657553 0.839248 -0.181243
C8    C     C_R   0.013876 0.404030 0.150479 -0.187089
C9    C     C_R   0.246994 0.489766 0.825755 -0.242915
C10   C     C_R   0.762401 0.545943 0.175144 -0.245453
C11   C     C_R   0.326240 0.558426 0.912556 0.094910
C12   C     C_R   0.954986 0.205421 0.502407 0.934653
C13   C     C_R   0.711462 0.523217 0.076395 0.083486
C14   C     C_R   0.237066 0.667695 0.968099 0.168036
C15   C     C_R   0.811445 0.432102 0.015073 0.176990
C16   C     C_R   0.492055 0.522023 0.944589 0.063261
C17   C     C_R   0.556709 0.578069 0.039213 0.060296
C18   C     C_R   0.464652 0.686799 0.093389 -0.215266
C19   C     C_R   0.597237 0.435522 0.883959 -0.212792
C20   C     C_R   0.308039 0.731379 0.057812 -0.218979
C21   C     C_R   0.754805 0.392621 0.918743 -0.224390
C22   C     C_2   0.068469 0.958287 0.496297 -0.364841
C23   C     C_2   0.931573 0.041727 0.503872 -0.367586
C24   C     C_R   0.063574 0.513822 0.681987 0.840003
F1    F     F_    0.498485 0.344679 0.415827 -0.576249
F2    F     F_    0.501516 0.655172 0.584288 -0.576093
H1    H     H_    0.242365 0.816257 0.100730 0.151732
H2    H     H_    0.563771 0.403052 0.808034 0.168221
H3    H     H_    0.197512 0.009544 0.489038 0.207626
H4    H     H_    0.802533 0.990470 0.511141 0.207697
H5    H     H_    0.831074 0.325396 0.870463 0.150907
H6    H     H_    0.684215 0.603811 0.226063 0.164511
H7    H     H_    0.300971 0.395688 0.784814 0.147622
H8    H     H_    0.128778 0.355909 0.178916 0.173832
H9    H     H_    0.899103 0.703410 0.808374 0.174689
H10   H     H_    0.011342 0.799354 0.973054 0.141861
H11   H     H_    0.044494 0.312169 0.004706 0.142741
H12   H     H_    0.513597 0.744786 0.162049 0.153842
N1    N     N_2   0.440860 0.456490 0.474790 0.254397
N2    N     N_2   0.559140 0.543510 0.525210 0.253068
O1    O     O_R   0.891570 0.738930 0.506190 -0.605779
O2    O     O_R   0.108430 0.261070 0.493810 -0.604944
O3    O     O_R   0.174650 0.711050 0.490030 -0.579874
O4    O     O_R   0.825350 0.288950 0.509970 -0.580570
O5    O     O_R   0.909850 0.521900 0.644940 -0.621191
O6    O     O_R   0.090150 0.478100 0.355060 -0.617210
O7    O     O_R   0.192930 0.494020 0.628780 -0.574835
O8    O     O_R   0.807070 0.505980 0.371220 -0.579801
Zn1   Zn    Zn3+2 0.810990 0.518620 0.510790 1.089922
Zn2   Zn    Zn3+2 0.189010 0.481380 0.489210 1.094390

loop_
_geom_bond_atom_site_label_1
_geom_bond_atom_site_label_2
_ccdc_geom_bond_type
O4    Zn1   S    
C2    C4    S    
C23   H4    S    
O3    Zn2   S    
C3    C9    A    
C22   H3    S    
O5    Zn1   S    
C9    C11   A    
C11   C16   A    
O6    Zn2   S    
C18   C20   A    
C13   C17   A    
C4    C8    A    
C2    O8    A    
C17   C18   A    
C18   H12   S    
C6    H11   S    
C1    C22   S    
C12   O4    A    
C8    H8    S    
C2    O6    A    
C9    H7    S    
C19   H2    S    
C21   H5    S    
C12   C23   S    
F2    N2    S    
C5    C14   A    
O2    Zn2   S    
C16   C19   A    
C6    C8    A    
C24   O5    A    
O1    Zn1   S    
O8    Zn1   S    
C20   H1    S    
O7    Zn2   S    
C3    C7    A    
C13   C15   A    
C11   C14   A    
C4    C10   A    
N2    Zn1   S    
C5    H10   S    
C10   H6    S    
C15   C21   A    
N1    Zn2   S    
C14   C20   A    
C1    O1    A    
N1    N2    D    
C5    C7    A    
C22   C23   D    
C12   O2    A    
C19   C21   A    
C6    C15   A    
C24   O7    A    
C7    H9    S    
C1    O3    A    
F1    N1    S    
C3    C24   S    
C16   C17   A    
C10   C13   A    
