data_mof_unit_67660.cif
_audit_creation_date              2012-12-10T19:42:33-0500
_audit_creation_method            fapswitch 2.2
_symmetry_space_group_name_H-M    P1
_symmetry_Int_Tables_number       1
_space_group_crystal_system       triclinic
_cell_length_a                    10.891593
_cell_length_b                    10.715354
_cell_length_c                    9.84389
_cell_angle_alpha                 97.408024
_cell_angle_beta                  98.3219
_cell_angle_gamma                 93.427637
_cell_volume                      1123.65974465

loop_
_atom_site_label
_atom_site_type_symbol
_atom_type_description
_atom_site_fract_x
_atom_site_fract_y
_atom_site_fract_z
_atom_type_partial_charge
C1    C     C_R   0.493761 0.262600 0.501700 0.796264
C2    C     C_R   0.506305 0.737383 0.498329 0.796162
C3    C     C_R   0.871686 0.494091 0.501636 -0.068553
C4    C     C_R   0.128212 0.504471 0.498120 -0.068385
C5    C     C_R   0.954887 0.486812 0.624453 0.036192
C6    C     C_R   0.045040 0.511417 0.375243 0.035276
C7    C     C_R   0.083108 0.184659 0.528302 -0.097952
C8    C     C_R   0.916758 0.813536 0.474985 -0.101772
C9    C     C_R   0.207730 0.157110 0.547905 -0.160626
C10   C     C_R   0.792720 0.842724 0.454135 -0.164220
C11   C     C_R   0.259152 0.095034 0.437734 0.066956
C12   C     C_R   0.740805 0.904770 0.563858 0.075146
C13   C     C_R   0.184788 0.062059 0.307615 -0.104307
C14   C     C_R   0.814188 0.936198 0.694810 -0.115958
C15   C     C_R   0.060773 0.091612 0.287860 -0.122210
C16   C     C_R   0.937524 0.904474 0.715990 -0.116527
C17   C     C_R   0.009817 0.152931 0.398184 -0.125438
C18   C     C_R   0.988963 0.843319 0.605949 -0.119579
C19   C     C_R   0.392077 0.919037 0.458726 -0.192619
C20   C     C_R   0.608058 0.080896 0.541439 -0.186371
C21   C     C_R   0.506478 0.870942 0.494940 -0.071692
C22   C     C_R   0.493643 0.129032 0.505255 -0.067986
C23   C     C_R   0.262426 0.502515 0.499846 0.792902
C24   C     C_R   0.737549 0.497097 0.500127 0.795068
C25   C     C_R   0.616008 0.951563 0.536543 -0.002481
C26   C     C_R   0.384074 0.048418 0.464143 -0.002179
C27   C     C_2   0.506185 0.515246 0.077506 -0.071980
C28   C     C_2   0.492864 0.485488 0.922366 -0.065669
C29   C     C_R   0.193119 0.653243 0.099790 0.564233
C30   C     C_R   0.801889 0.352709 0.900571 0.548508
C31   C     C_R   0.138609 0.642026 0.218369 -0.141974
C32   C     C_R   0.857157 0.359597 0.781777 -0.160055
C33   C     C_R   0.087180 0.525066 0.241816 -0.006376
C34   C     C_R   0.913018 0.474743 0.758385 0.001020
C35   C     C_R   0.088517 0.417634 0.145139 -0.105206
C36   C     C_R   0.915091 0.583039 0.855233 -0.095926
C37   C     C_R   0.145275 0.425362 0.027398 0.027705
C38   C     C_R   0.857572 0.578152 0.973060 0.006420
C39   C     C_R   0.198932 0.542373 0.006383 -0.354482
C40   C     C_R   0.799898 0.463033 0.993800 -0.326163
C41   C     C_R   0.918171 0.504789 0.378626 -0.274619
C42   C     C_R   0.081722 0.493492 0.620985 -0.279670
Cu1   Cu    Cu3+1 0.521120 0.521140 0.639640 0.949786
Cu2   Cu    Cu3+1 0.478880 0.478860 0.360360 0.953373
H1    H     H_    0.248402 0.545332 0.919744 0.111834
H2    H     H_    0.748479 0.459087 0.079062 0.140040
H3    H     H_    0.222316 0.011482 0.222626 0.184682
H4    H     H_    0.776384 0.986785 0.779481 0.163380
H5    H     H_    0.003806 0.064915 0.187684 0.165672
H6    H     H_    0.993547 0.928717 0.817201 0.174468
H7    H     H_    0.308212 0.855703 0.431409 0.133430
H8    H     H_    0.691933 0.144106 0.568383 0.130932
H9    H     H_    0.430655 0.405608 0.869467 0.154123
H10   H     H_    0.567899 0.595568 0.130308 0.146524
H11   H     H_    0.606900 0.631411 0.901786 0.198114
H12   H     H_    0.393824 0.368116 0.098299 0.204703
H13   H     H_    0.138828 0.724579 0.294257 0.117169
H14   H     H_    0.852987 0.276575 0.705654 0.113719
H15   H     H_    0.050428 0.327414 0.165338 0.154658
H16   H     H_    0.956498 0.671846 0.835144 0.163265
H17   H     H_    0.855772 0.513311 0.285768 0.145289
H18   H     H_    0.144195 0.485345 0.713796 0.145338
H19   H     H_    0.913358 0.174540 0.383355 0.124969
H20   H     H_    0.084887 0.820044 0.621749 0.123511
H21   H     H_    0.043016 0.228950 0.614599 0.143377
H22   H     H_    0.957057 0.769093 0.389045 0.141213
H23   H     H_    0.262833 0.179520 0.649891 0.128933
H24   H     H_    0.738408 0.821293 0.351635 0.124896
N1    N     N_2   0.447120 0.447110 0.150550 -0.277475
N2    N     N_2   0.552880 0.552890 0.849450 -0.286196
O1    O     O_R   0.517830 0.337490 0.617920 -0.564633
O2    O     O_R   0.482170 0.662510 0.382080 -0.572759
O3    O     O_R   0.482150 0.301790 0.382070 -0.571324
O4    O     O_R   0.517850 0.698210 0.617930 -0.573468
O5    O     O_R   0.337480 0.517860 0.617920 -0.601862
O6    O     O_R   0.662520 0.482140 0.382080 -0.593572
O7    O     O_R   0.301810 0.482160 0.382070 -0.557718
O8    O     O_R   0.698190 0.517840 0.617930 -0.556324
O9    O     O_3   0.245621 0.772590 0.087429 -0.595771
C43   C     C_3   0.265007 0.786438 0.951013 0.052082
H25   H     H_    0.181401 0.749996 0.873678 0.137293
H26   H     H_    0.347731 0.737378 0.925848 0.165317
C44   C     C_3   0.290826 0.925760 0.940931 -0.772585
H27   H     H_    0.374271 0.965833 0.016061 0.248470
H28   H     H_    0.307722 0.937414 0.834486 0.207619
H29   H     H_    0.209589 0.977994 0.963859 0.271058
O10   O     O_3   0.734125 0.242755 0.913876 -0.586179
C45   C     C_3   0.791810 0.190335 0.029121 0.030921
H30   H     H_    0.820416 0.261669 0.123040 0.133422
H31   H     H_    0.875083 0.143819 0.001572 0.186789
C46   C     C_3   0.700974 0.091715 0.067001 -0.758617
H32   H     H_    0.669536 0.017389 0.977148 0.249009
H33   H     H_    0.746919 0.047047 0.154649 0.208805
H34   H     H_    0.618545 0.137123 0.098723 0.249992
C47   C     C_2   0.154188 0.311188 0.928639 0.292171
H35   H     H_    0.204213 0.317662 0.842057 0.054768
O11   O     O_2   0.106348 0.208650 0.942808 -0.603818
C48   C     C_2   0.851072 0.693416 0.071098 0.303828
H36   H     H_    0.801000 0.688696 0.157965 0.045374
O12   O     O_2   0.901003 0.794779 0.056030 -0.572886

loop_
_geom_bond_atom_site_label_1
_geom_bond_atom_site_label_2
_ccdc_geom_bond_type
C38   C40   A    
O10   C45   S    
C8    H22   S    
C47   H35   S    
C32   H14   S    
C38   C48   S    
C27   H10   S    
Cu1   O8    S    
C40   H2    S    
C1    O1    A    
Cu2   O7    S    
C19   C21   A    
C16   H6    S    
C46   H33   S    
C20   C25   A    
C37   C47   S    
C35   H15   S    
Cu2   O6    S    
C19   C26   A    
C7    C17   A    
C6    C41   A    
C31   C33   A    
C41   H17   S    
C42   H18   S    
C27   N1    D    
C39   H1    S    
Cu1   O4    S    
C1    C22   S    
C3    C24   S    
C43   C44   S    
C2    O2    A    
Cu1   O5    S    
C37   C39   A    
C4    C6    A    
C23   O5    A    
C46   H32   S    
C13   H3    S    
C4    C23   S    
C24   O6    A    
C14   H4    S    
C11   C26   S    
C36   H16   S    
C8    C18   A    
C32   C34   A    
Cu1   Cu2   S    
C9    H23   S    
C7    H21   S    
C44   H27   S    
C29   O9    S    
C45   C46   S    
C29   C31   A    
C5    C34   S    
C29   C39   A    
C2    C21   S    
C30   C40   A    
Cu2   N1    S    
C23   O7    A    
C9    C11   A    
C10   C12   A    
C24   O8    A    
C44   H28   S    
C45   H31   S    
H12   N1    S    
Cu1   N2    S    
C48   O12   D    
C13   C15   A    
C14   C16   A    
C20   C22   A    
C5    C42   A    
C7    C9    A    
C21   C25   A    
C3    C41   A    
Cu1   O1    S    
C35   C37   A    
C8    C10   A    
C28   N2    D    
C12   C14   A    
C43   H25   S    
C3    C5    A    
C2    O4    A    
C28   H9    S    
C47   O11   D    
C15   C17   A    
C10   H24   S    
C6    C33   S    
C12   C25   S    
C1    O3    A    
C31   H13   S    
C36   C38   A    
C20   H8    S    
C17   H19   S    
C46   H34   S    
C30   C32   A    
C11   C13   A    
C18   H20   S    
C4    C42   A    
C33   C35   A    
C43   H26   S    
Cu2   O2    S    
C34   C36   A    
C15   H5    S    
Cu2   O3    S    
H11   N2    S    
O9    C43   S    
C19   H7    S    
C44   H29   S    
C45   H30   S    
C16   C18   A    
C48   H36   S    
C22   C26   A    
C27   C28   S    
C30   O10   S    
