data_mof_unit_53205.cif
_audit_creation_date              2012-12-10T19:14:18-0500
_audit_creation_method            fapswitch 2.2
_symmetry_space_group_name_H-M    P1
_symmetry_Int_Tables_number       1
_space_group_crystal_system       triclinic
_cell_length_a                    10.672738
_cell_length_b                    9.676431
_cell_length_c                    19.110991
_cell_angle_alpha                 90.462737
_cell_angle_beta                  89.464525
_cell_angle_gamma                 89.934608
_cell_volume                      1973.5167108

loop_
_atom_site_label
_atom_site_type_symbol
_atom_type_description
_atom_site_fract_x
_atom_site_fract_y
_atom_site_fract_z
_atom_type_partial_charge
C1    C     C_R   0.257597 0.500093 0.501914 0.895235
C2    C     C_R   0.427403 0.540897 0.071069 0.302658
C3    C     C_R   0.487450 0.641975 0.817666 0.152692
C4    C     C_R   0.411110 0.401311 0.817885 0.170227
C5    C     C_R   0.510586 0.628595 0.745938 -0.211803
C6    C     C_R   0.434326 0.393085 0.746070 -0.162805
C7    C     C_R   0.484372 0.505555 0.710417 -0.127940
C8    C     C_R   0.439779 0.525678 0.854167 -0.004663
C9    C     C_3   0.066995 0.613482 0.555827 -0.194963
C10   C     C_3   0.070408 0.352488 0.526265 -0.181202
C11   C     C_3   0.923544 0.599203 0.561262 -0.489603
C12   C     C_3   0.927216 0.352069 0.520039 -0.439444
C13   C     C_3   0.071576 0.532654 0.424495 0.267915
C14   C     C_3   0.120727 0.499890 0.502713 -0.102113
C15   C     C_3   0.878134 0.499223 0.503493 0.030543
C16   C     C_R   0.501655 0.499433 0.364645 0.900750
C17   C     C_3   0.926532 0.548219 0.431301 -0.338442
C18   C     C_3   0.386441 0.080806 0.464429 -0.225825
C19   C     C_3   0.385576 0.918252 0.465300 -0.234416
C20   C     C_3   0.611181 0.080624 0.461394 -0.224075
C21   C     C_3   0.609275 0.918133 0.459725 -0.229601
C22   C     C_3   0.501913 0.082498 0.570704 -0.239063
C23   C     C_3   0.504301 0.919864 0.570637 -0.236032
C24   C     C_R   0.742280 0.499731 0.502211 0.900869
C25   C     C_R   0.498577 0.500837 0.634736 0.948421
C26   C     C_R   0.532258 0.622012 0.251100 -0.025447
C27   C     C_R   0.431594 0.394235 0.250019 -0.035385
C28   C     C_R   0.498247 0.638637 0.181609 -0.203312
C29   C     C_R   0.396700 0.415696 0.180800 -0.201128
C30   C     C_R   0.431613 0.536255 0.146645 0.038459
C31   C     C_R   0.493783 0.501507 0.287493 -0.200119
C32   C     C_R   0.432889 0.531182 0.930367 0.254668
H1    H     H_    0.897822 0.657775 0.426491 0.191955
H2    H     H_    0.877471 0.490555 0.389121 0.188147
H3    H     H_    0.380880 0.117793 0.409872 0.179462
H4    H     H_    0.377312 0.877180 0.411001 0.154829
H5    H     H_    0.300824 0.119802 0.491643 0.148156
H6    H     H_    0.301136 0.883140 0.494549 0.162016
H7    H     H_    0.616299 0.120977 0.407356 0.217455
H8    H     H_    0.606791 0.882034 0.404666 0.195379
H9    H     H_    0.585333 0.122598 0.598803 0.153675
H10   H     H_    0.590348 0.883125 0.597199 0.141761
H11   H     H_    0.418382 0.119897 0.600607 0.169271
H12   H     H_    0.423647 0.880959 0.601934 0.192689
H13   H     H_    0.698145 0.116128 0.487589 0.142973
H14   H     H_    0.697725 0.878099 0.482231 0.146252
H15   H     H_    0.530704 0.728297 0.152935 0.178314
H16   H     H_    0.352699 0.332860 0.151382 0.172782
H17   H     H_    0.549099 0.713932 0.716723 0.170475
H18   H     H_    0.411661 0.298931 0.717784 0.172185
H19   H     H_    0.082982 0.717329 0.533873 0.127138
H20   H     H_    0.106669 0.271831 0.489862 0.101289
H21   H     H_    0.891795 0.559214 0.612859 0.209319
H22   H     H_    0.881481 0.315280 0.569075 0.213533
H23   H     H_    0.880414 0.703448 0.555801 0.175059
H24   H     H_    0.899449 0.278537 0.477839 0.170164
N1    N     N_R   0.323357 0.503870 0.035362 -0.165587
N2    N     N_R   0.533839 0.571653 0.035568 -0.162892
N3    N     N_R   0.325761 0.500518 0.965743 -0.160724
N4    N     N_R   0.536663 0.566209 0.966388 -0.181861
N5    N     N_3   0.499750 0.138610 0.498490 -0.043109
N6    N     N_3   0.499750 0.861390 0.498490 -0.039182
O1    O     O_R   0.314910 0.616040 0.499990 -0.618751
O2    O     O_R   0.314910 0.383960 0.499990 -0.629530
O3    O     O_R   0.500100 0.616080 0.398110 -0.615325
O4    O     O_R   0.500100 0.383920 0.398110 -0.602689
O5    O     O_R   0.685320 0.616040 0.499960 -0.627063
O6    O     O_R   0.685320 0.383960 0.499960 -0.638387
O7    O     O_R   0.500130 0.616000 0.601840 -0.613762
O8    O     O_R   0.500130 0.384000 0.601840 -0.619659
Zn1   Zn    Zn3+2 0.500150 0.654960 0.499970 0.938659
Zn2   Zn    Zn3+2 0.500150 0.345040 0.499970 0.942399
C33   C     C_2   0.619092 0.725836 0.281094 0.910145
O9    O     O_2   0.609305 0.847660 0.265313 -0.622618
O10   O     O_R   0.715978 0.683540 0.324671 -0.833167
H25   H     H_    0.771291 0.763382 0.339500 0.320902
C34   C     C_2   0.414338 0.252933 0.277008 0.915810
O11   O     O_2   0.504695 0.188832 0.298365 -0.613914
O12   O     O_R   0.297940 0.188025 0.271545 -0.841821
H26   H     H_    0.299250 0.089363 0.288989 0.334623
C35   C     C_3   0.513901 0.778010 0.856049 -0.361049
C36   C     C_3   0.532255 0.905245 0.810003 -0.920268
H27   H     H_    0.620183 0.896569 0.778750 0.260851
H28   H     H_    0.450833 0.919364 0.774946 0.259979
H29   H     H_    0.540963 0.998129 0.844032 0.255886
H30   H     H_    0.433972 0.801234 0.891996 0.215088
H31   H     H_    0.599548 0.765926 0.887951 0.230150
C37   C     C_3   0.358179 0.274485 0.853409 -0.438704
C38   C     C_3   0.215531 0.272106 0.848730 -0.759749
H32   H     H_    0.174367 0.365444 0.874117 0.276297
H33   H     H_    0.186269 0.268285 0.793099 0.268203
H34   H     H_    0.178696 0.179054 0.875561 0.242846
H35   H     H_    0.395440 0.179876 0.827368 0.198387
H36   H     H_    0.387412 0.267799 0.908818 0.222963
C39   C     C_2   0.128344 0.623119 0.627268 0.974015
O13   O     O_2   0.080881 0.568886 0.678703 -0.612138
O14   O     O_R   0.237102 0.701801 0.634817 -0.814600
H37   H     H_    0.267411 0.705186 0.684905 0.340226
C40   C     C_2   0.112112 0.297316 0.597057 0.949636
O15   O     O_2   0.204652 0.343151 0.626333 -0.633685
O16   O     O_R   0.050372 0.183140 0.625637 -0.829148
H38   H     H_    0.088197 0.152359 0.671433 0.338810
C41   C     C_3   0.134620 0.668164 0.393414 -0.341449
C42   C     C_3   0.059938 0.752679 0.340058 -0.885667
H39   H     H_    0.999819 0.688554 0.306189 0.288726
H40   H     H_    0.999513 0.829669 0.367597 0.236992
H41   H     H_    0.125927 0.811162 0.306174 0.255842
H42   H     H_    0.158895 0.743437 0.434444 0.188437
H43   H     H_    0.226255 0.639986 0.368980 0.204441
C43   C     C_3   0.103008 0.407970 0.372910 -0.402847
C44   C     C_3   0.079512 0.430932 0.294755 -0.787347
H44   H     H_    0.980962 0.460765 0.285055 0.254924
H45   H     H_    0.144951 0.508646 0.272777 0.266698
H46   H     H_    0.096033 0.332798 0.265730 0.285945
H47   H     H_    0.202924 0.378057 0.378097 0.205131
H48   H     H_    0.045852 0.316245 0.386234 0.204350

loop_
_geom_bond_atom_site_label_1
_geom_bond_atom_site_label_2
_ccdc_geom_bond_type
C28   H15   S    
O16   H38   S    
C27   C29   A    
C33   O9    D    
C44   H44   S    
C9    H19   S    
C4    C8    A    
C10   H20   S    
C42   H40   S    
O14   H37   S    
C2    N1    A    
C34   O11   D    
C16   C31   S    
C29   C30   A    
C23   H10   S    
C18   H5    S    
C19   H4    S    
N1    N3    A    
C22   H9    S    
C19   N6    S    
N2    N4    A    
C26   C33   S    
C15   C17   S    
C18   C19   S    
C20   N5    S    
O7    Zn1   S    
C43   C44   S    
C24   O5    A    
C11   C15   S    
C23   N6    S    
O4    Zn2   S    
C39   O13   D    
C3    C35   S    
C41   H42   S    
C13   C41   S    
C18   H3    S    
C9    C39   S    
C35   H30   S    
C11   H21   S    
C41   H43   S    
C26   C31   A    
C13   C14   S    
C33   O10   S    
C5    H17   S    
C17   H1    S    
C1    O1    A    
C42   H39   S    
C35   C36   S    
C34   O12   S    
C37   H36   S    
C29   H16   S    
C27   C31   A    
C8    C32   S    
C4    C6    A    
C3    C8    A    
C10   C14   S    
C5    C7    A    
C9    C14   S    
C3    C5    A    
O3    Zn1   S    
C23   H12   S    
O10   H25   S    
C13   C43   S    
C19   H6    S    
C22   H11   S    
C12   C15   S    
O6    Zn2   S    
C20   C21   S    
C2    N2    A    
C44   H45   S    
C35   H31   S    
C6    H18   S    
C38   H34   S    
C9    C11   S    
C21   N6    S    
C12   H24   S    
C16   O4    A    
C10   C12   S    
N5    Zn2   S    
C15   C24   S    
C40   O16   S    
O1    Zn1   S    
C36   H28   S    
C38   H33   S    
C17   H2    S    
C32   N4    A    
C1    O2    A    
C43   H48   S    
C11   H23   S    
C21   H14   S    
C20   H7    S    
C37   H35   S    
C20   H13   S    
C27   C34   S    
C39   O14   S    
C18   N5    S    
C6    C7    A    
C4    C37   S    
C1    C14   S    
C36   H29   S    
C26   C28   A    
C7    C25   S    
C40   O15   D    
C13   C17   S    
C2    C30   S    
C28   C30   A    
C22   N5    S    
C21   H8    S    
C16   O3    A    
N6    Zn1   S    
C44   H46   S    
O5    Zn1   S    
O2    Zn2   S    
C10   C40   S    
C24   O6    A    
O12   H26   S    
C25   O7    A    
C37   C38   S    
C36   H27   S    
C41   C42   S    
C22   C23   S    
O8    Zn2   S    
C25   O8    A    
C32   N3    A    
C38   H32   S    
C43   H47   S    
C42   H41   S    
C12   H22   S    
