data_mof_unit_15100.cif
_audit_creation_date              2012-10-26T19:39:09-0400
_audit_creation_method            fapswitch 2.2
_symmetry_space_group_name_H-M    P1
_symmetry_Int_Tables_number       1
_space_group_crystal_system       triclinic
_cell_length_a                    12.305951
_cell_length_b                    12.506841
_cell_length_c                    7.447114
_cell_angle_alpha                 90.00006
_cell_angle_beta                  106.802086
_cell_angle_gamma                 89.999971
_cell_volume                      1097.24331173

loop_
_atom_site_label
_atom_site_type_symbol
_atom_type_description
_atom_site_fract_x
_atom_site_fract_y
_atom_site_fract_z
_atom_type_partial_charge
C1    C     C_R   0.357129 0.844956 0.456143 0.551189
C2    C     C_2   0.711162 0.748343 0.570525 -0.027984
C3    C     C_2   0.716960 0.243929 0.557210 -0.008210
C4    C     C_2   0.288837 0.748343 0.429475 -0.027985
C5    C     C_2   0.734360 0.698168 0.424990 -0.030290
C6    C     C_2   0.213027 0.253269 0.553528 0.000859
C7    C     C_2   0.265639 0.698168 0.575010 -0.030290
C8    C     C_2   0.786972 0.253271 0.446471 0.000856
C9    C     C_3   0.652704 0.695764 0.227381 -0.271522
C10   C     C_3   0.626523 0.580917 0.154614 -0.454873
C11   C     C_3   0.181519 0.161146 0.663725 -0.282855
C12   C     C_R   0.649463 0.149267 0.544136 0.556813
C13   C     C_3   0.233762 0.174633 0.874838 -0.400253
C14   C     C_3   0.347295 0.695765 0.772620 -0.271521
C15   C     C_3   0.373477 0.580918 0.845387 -0.454874
C16   C     C_3   0.818473 0.161150 0.336261 -0.282857
C17   C     C_3   0.766213 0.174639 0.125154 -0.400245
C18   C     C_3   0.307463 0.332820 0.318295 -0.279250
C19   C     C_3   0.357127 0.432458 0.429952 -0.458800
C20   C     C_3   0.748379 0.705479 0.770670 -0.245431
C21   C     C_3   0.850022 0.767040 0.894473 -0.404475
C22   C     C_3   0.692537 0.332819 0.681707 -0.279251
C23   C     C_R   0.642871 0.844956 0.543857 0.551189
C24   C     C_3   0.642873 0.432458 0.570052 -0.458800
C25   C     C_3   0.251621 0.705479 0.229330 -0.245431
C26   C     C_3   0.149978 0.767040 0.105527 -0.404475
C27   C     C_R   0.350537 0.149267 0.455864 0.556813
C28   C     C_R   0.852921 0.348851 0.456779 0.559952
C29   C     C_R   0.159341 0.639908 0.546593 0.560234
C30   C     C_R   0.147079 0.348851 0.543220 0.559953
C31   C     C_R   0.840659 0.639908 0.453407 0.560234
C32   C     C_2   0.283040 0.243929 0.442790 -0.008212
Cu1   Cu    Cu3+1 0.517640 0.000000 0.687200 0.900441
Cu2   Cu    Cu3+1 0.482360 0.000000 0.312800 0.900442
Cu3   Cu    Cu3+1 0.017640 0.500000 0.687200 0.889718
Cu4   Cu    Cu3+1 0.982360 0.500000 0.312800 0.889718
H1    H     H_    0.379035 0.996194 0.929438 0.238696
H2    H     H_    0.326458 0.189494 0.909229 0.178187
H3    H     H_    0.193481 0.241985 0.928013 0.167446
H4    H     H_    0.218576 0.101170 0.947682 0.138401
H5    H     H_    0.087678 0.158326 0.633965 0.123021
H6    H     H_    0.204617 0.081738 0.619402 0.146589
H7    H     H_    0.301550 0.524690 0.807162 0.196079
H8    H     H_    0.439519 0.546128 0.788855 0.121410
H9    H     H_    0.401270 0.582478 0.999885 0.125419
H10   H     H_    0.431349 0.730885 0.782443 0.175283
H11   H     H_    0.308828 0.741956 0.865525 0.156389
H12   H     H_    0.620965 0.996186 0.070562 0.238693
H13   H     H_    0.673518 0.189502 0.090783 0.178193
H14   H     H_    0.806488 0.241993 0.071971 0.167439
H15   H     H_    0.781390 0.101174 0.052298 0.138411
H16   H     H_    0.912312 0.158333 0.365998 0.123026
H17   H     H_    0.795383 0.081741 0.380589 0.146587
H18   H     H_    0.290886 0.480550 0.464206 0.171859
H19   H     H_    0.420312 0.408767 0.562774 0.151136
H20   H     H_    0.397432 0.484042 0.346047 0.115709
H21   H     H_    0.370780 0.305713 0.247572 0.152776
H22   H     H_    0.230758 0.352567 0.202932 0.155030
H23   H     H_    0.879076 0.496765 0.930333 0.228617
H24   H     H_    0.916562 0.777976 0.822547 0.161986
H25   H     H_    0.823550 0.847101 0.930515 0.146751
H26   H     H_    0.886691 0.722507 0.026513 0.173892
H27   H     H_    0.676348 0.711758 0.831195 0.134293
H28   H     H_    0.763207 0.618684 0.775348 0.143109
H29   H     H_    0.709114 0.480550 0.535797 0.171859
H30   H     H_    0.579688 0.408767 0.437230 0.151136
H31   H     H_    0.602569 0.484042 0.653957 0.115708
H32   H     H_    0.629221 0.305712 0.752430 0.152776
H33   H     H_    0.769244 0.352567 0.797069 0.155030
H34   H     H_    0.120924 0.496765 0.069667 0.228617
H35   H     H_    0.083438 0.777977 0.177453 0.161985
H36   H     H_    0.176450 0.847101 0.069485 0.146751
H37   H     H_    0.113308 0.722507 0.973487 0.173892
H38   H     H_    0.323651 0.711758 0.168805 0.134293
H39   H     H_    0.236793 0.618684 0.224651 0.143109
H40   H     H_    0.698450 0.524689 0.192841 0.196079
H41   H     H_    0.560481 0.546127 0.211146 0.121410
H42   H     H_    0.598730 0.582476 0.000116 0.125420
H43   H     H_    0.568650 0.730884 0.217558 0.175282
H44   H     H_    0.691171 0.741955 0.134474 0.156388
N1    N     N_2   0.455760 0.000000 0.031460 -0.274439
N2    N     N_2   0.544240 0.000000 0.968540 -0.274440
N3    N     N_2   0.955760 0.500000 0.031460 -0.269588
N4    N     N_2   0.044240 0.500000 0.968540 -0.269588
O1    O     O_R   0.398880 0.887420 0.621600 -0.526402
O2    O     O_R   0.630920 0.112580 0.694560 -0.514875
O3    O     O_R   0.630920 0.887420 0.694560 -0.510053
O4    O     O_R   0.369080 0.112580 0.305440 -0.514874
O5    O     O_R   0.869080 0.387420 0.305440 -0.518068
O6    O     O_R   0.130920 0.612580 0.694560 -0.512862
O7    O     O_R   0.130920 0.387420 0.694560 -0.518067
O8    O     O_R   0.869080 0.612580 0.305440 -0.512862
O9    O     O_R   0.601120 0.112580 0.378400 -0.504354
O10   O     O_R   0.601120 0.887420 0.378400 -0.526403
O11   O     O_R   0.398880 0.112580 0.621600 -0.504353
O12   O     O_R   0.898880 0.387420 0.621600 -0.515350
O13   O     O_R   0.101120 0.612580 0.378400 -0.511355
O14   O     O_R   0.101120 0.387420 0.378400 -0.515350
O15   O     O_R   0.898880 0.612580 0.621600 -0.511355
O16   O     O_R   0.369080 0.887420 0.305440 -0.510051

loop_
_geom_bond_atom_site_label_1
_geom_bond_atom_site_label_2
_ccdc_geom_bond_type
C19   H20   S    
Cu4   O5    S    
C6    C32   D    
C7    C29   S    
C26   H36   S    
C27   O11   A    
Cu3   Cu4   S    
Cu2   O9    S    
C17   H15   S    
C4    C25   S    
C10   H42   S    
C14   H10   S    
Cu3   O12   S    
H23   N3    S    
C15   H8    S    
C18   C19   S    
Cu4   N3    S    
C26   H37   S    
C11   H6    S    
C25   H38   S    
C9    H43   S    
Cu1   O1    S    
C16   H17   S    
C13   H4    S    
C3    C12   S    
C24   H31   S    
C10   H40   S    
C18   H22   S    
C7    C14   S    
C16   C17   S    
Cu2   O16   S    
C28   O5    A    
Cu2   N1    S    
C31   O15   A    
H34   N4    S    
C9    C10   S    
C22   H33   S    
C21   H25   S    
C24   H30   S    
Cu4   O8    S    
C8    C16   S    
C23   O3    A    
C26   H35   S    
H1    N1    S    
C4    C7    D    
Cu3   O15   S    
Cu1   O11   S    
C1    O16   A    
C29   O6    A    
C10   H41   S    
N1    N2    D    
C1    O1    A    
C2    C20   S    
C16   H16   S    
C21   H24   S    
C3    C8    D    
C17   H13   S    
C6    C11   S    
C25   C26   S    
C25   H39   S    
C9    H44   S    
C20   H28   S    
Cu1   O2    S    
C5    C9    S    
C18   H21   S    
N3    N4    D    
Cu1   Cu2   S    
C13   H2    S    
Cu2   O4    S    
C22   H32   S    
C21   H26   S    
Cu4   O13   S    
C24   H29   S    
C19   H18   S    
C6    C30   S    
C8    C28   S    
C22   C24   S    
C12   O9    A    
C2    C5    D    
C18   C32   S    
C15   H9    S    
Cu1   N2    S    
C19   H19   S    
C27   C32   S    
Cu2   O10   S    
C30   O7    A    
C17   H14   S    
Cu3   N4    S    
C14   H11   S    
C29   O13   A    
C30   O14   A    
C23   O10   A    
C12   O2    A    
C28   O12   A    
C1    C4    S    
C20   H27   S    
Cu1   O3    S    
C15   H7    S    
C11   C13   S    
H12   N2    S    
C11   H5    S    
C27   O4    A    
C13   H3    S    
Cu3   O6    S    
C20   C21   S    
C31   O8    A    
C2    C23   S    
C14   C15   S    
C3    C22   S    
Cu4   O14   S    
C5    C31   S    
Cu3   O7    S    
