data_mof_unit_34602.cif
_audit_creation_date              2012-12-10T19:27:27-0500
_audit_creation_method            fapswitch 2.2
_symmetry_space_group_name_H-M    P1
_symmetry_Int_Tables_number       1
_space_group_crystal_system       triclinic
_cell_length_a                    23.412232
_cell_length_b                    10.48915
_cell_length_c                    9.73997
_cell_angle_alpha                 89.683288
_cell_angle_beta                  90.17676
_cell_angle_gamma                 90.251172
_cell_volume                      2391.81668882

loop_
_atom_site_label
_atom_site_type_symbol
_atom_type_description
_atom_site_fract_x
_atom_site_fract_y
_atom_site_fract_z
_atom_type_partial_charge
C1    C     C_R   0.500396 0.257682 0.500400 0.868317
C2    C     C_R   0.499726 0.742284 0.499566 0.864900
C3    C     C_R   0.237504 0.564470 0.389551 -0.266646
C4    C     C_R   0.763232 0.451122 0.610553 -0.273562
C5    C     C_R   0.297002 0.563139 0.385986 0.200578
C6    C     C_R   0.703811 0.445100 0.612812 0.199340
C7    C     C_R   0.327285 0.512553 0.499779 -0.146351
C8    C     C_R   0.672766 0.496840 0.501033 -0.136160
C9    C     C_R   0.297600 0.470409 0.616613 -0.376239
C10   C     C_R   0.701654 0.550946 0.388794 -0.394818
C11   C     C_R   0.238208 0.477074 0.621371 0.594246
C12   C     C_R   0.761250 0.559025 0.388674 0.594419
C13   C     C_R   0.208546 0.520751 0.505635 0.190042
C14   C     C_R   0.791508 0.506342 0.499126 0.197768
C15   C     C_3   0.507070 0.040022 0.631271 -0.188459
C16   C     C_3   0.493161 0.959803 0.368551 -0.188883
C17   C     C_3   0.550442 0.956865 0.551740 -0.261194
C18   C     C_3   0.449800 0.042973 0.448051 -0.260910
C19   C     C_3   0.499965 0.876898 0.498419 -0.071318
C20   C     C_3   0.500281 0.123000 0.501377 -0.074502
C21   C     C_3   0.457624 0.958666 0.575842 0.272053
C22   C     C_3   0.542617 0.041144 0.423901 0.275850
C23   C     C_R   0.389453 0.502998 0.499696 0.902797
C24   C     C_R   0.610529 0.498357 0.500349 0.899963
C25   C     C_3   0.533744 0.413238 0.049356 -0.066926
C26   C     C_3   0.466252 0.586764 0.950643 -0.072180
C27   C     C_3   0.550634 0.522162 0.951569 -0.069731
C28   C     C_3   0.449365 0.477842 0.048428 -0.072468
C29   C     C_3   0.483073 0.391106 0.951875 -0.078833
C30   C     C_3   0.516924 0.608900 0.048126 -0.079210
C31   C     C_R   0.879748 0.617159 0.538630 0.577620
C32   C     C_R   0.120310 0.410780 0.466254 0.592920
C33   C     C_R   0.880772 0.401302 0.461050 0.571989
C34   C     C_R   0.119381 0.626701 0.543624 0.548120
C35   C     C_R   0.940739 0.399704 0.462693 -0.129312
C36   C     C_R   0.059391 0.627309 0.545304 -0.115516
C37   C     C_R   0.970013 0.511781 0.503446 -0.084526
C38   C     C_R   0.030092 0.515049 0.505160 -0.085515
C39   C     C_R   0.939278 0.621117 0.541543 -0.053511
C40   C     C_R   0.060806 0.406212 0.465381 -0.075432
C41   C     C_R   0.972144 0.290218 0.425885 0.533639
C42   C     C_R   0.027974 0.735453 0.586288 0.537003
C43   C     C_R   0.031753 0.295517 0.425187 -0.247241
C44   C     C_R   0.968347 0.731785 0.581721 -0.281044
H1    H     H_    0.593252 0.540857 0.905854 0.139871
H2    H     H_    0.406748 0.459092 0.094105 0.139637
H3    H     H_    0.562111 0.340273 0.096128 0.136738
H4    H     H_    0.437868 0.659706 0.903885 0.133484
H5    H     H_    0.468819 0.299502 0.906258 0.120009
H6    H     H_    0.531175 0.700504 0.093749 0.117895
H7    H     H_    0.055115 0.212226 0.392223 0.209927
H8    H     H_    0.944963 0.816544 0.609749 0.183985
H9    H     H_    0.213481 0.600179 0.302300 0.154767
H10   H     H_    0.787819 0.411364 0.694814 0.161904
H11   H     H_    0.320358 0.429958 0.703419 0.185191
H12   H     H_    0.677839 0.587890 0.301930 0.180335
H13   H     H_    0.591405 0.917964 0.591103 0.150589
H14   H     H_    0.408819 0.081799 0.408714 0.154745
H15   H     H_    0.511971 0.076067 0.737655 0.149408
H16   H     H_    0.488272 0.923729 0.262171 0.149875
N1    N     N_R   0.852209 0.508644 0.498837 -0.335488
N2    N     N_R   0.147874 0.519534 0.505096 -0.338773
N3    N     N_3   0.499960 0.500030 0.863290 -0.073222
N4    N     N_3   0.500040 0.499970 0.136710 -0.072951
O1    O     O_R   0.500000 0.313960 0.616610 -0.627465
O2    O     O_R   0.500000 0.686040 0.383390 -0.629916
O3    O     O_R   0.500030 0.313950 0.383350 -0.610834
O4    O     O_R   0.499970 0.686050 0.616650 -0.610848
O5    O     O_R   0.416140 0.499970 0.616650 -0.628273
O6    O     O_R   0.583860 0.500030 0.383350 -0.625867
O7    O     O_R   0.416170 0.499960 0.383400 -0.589111
O8    O     O_R   0.583830 0.500040 0.616600 -0.591765
O9    O     O_2   0.849375 0.720418 0.575873 -0.585320
O10   O     O_2   0.150671 0.307588 0.428682 -0.544605
O11   O     O_2   0.850834 0.297297 0.422181 -0.499162
O12   O     O_2   0.149378 0.731384 0.580006 -0.512563
Zn1   Zn    Zn3+2 0.499980 0.500010 0.655740 0.946645
Zn2   Zn    Zn3+2 0.500020 0.499990 0.344260 0.947212
O13   O     O_3   0.944976 0.180898 0.380261 -0.562037
C45   C     C_3   0.947988 0.086987 0.484205 -0.216989
H17   H     H_    0.922255 0.003429 0.451432 0.206785
H18   H     H_    0.929686 0.121655 0.582545 0.157030
H19   H     H_    0.992595 0.053990 0.500177 0.178769
O14   O     O_3   0.055174 0.848095 0.621299 -0.573343
C46   C     C_3   0.051802 0.863972 0.764742 -0.237976
H20   H     H_    0.077407 0.949028 0.793421 0.207438
H21   H     H_    0.070016 0.780616 0.820835 0.163004
H22   H     H_    0.007100 0.881247 0.797886 0.140103
N5    N     N_2   0.325688 0.612033 0.267985 -0.289014
H23   H     H_    0.303057 0.601131 0.177691 0.210458
C47   C     C_3   0.347624 0.740395 0.283328 -0.738486
H24   H     H_    0.311843 0.808487 0.296482 0.238295
H25   H     H_    0.372177 0.767677 0.190237 0.227081
H26   H     H_    0.376739 0.746710 0.373168 0.230424
N6    N     N_2   0.675958 0.386728 0.727060 -0.288777
H27   H     H_    0.698320 0.394350 0.818129 0.224673
C48   C     C_3   0.656203 0.257815 0.703075 -0.737345
H28   H     H_    0.693029 0.194124 0.683042 0.238253
H29   H     H_    0.626335 0.254738 0.614571 0.226896
H30   H     H_    0.633017 0.222309 0.795044 0.228447
O15   O     O_3   0.208305 0.430714 0.733431 -0.592182
C49   C     C_3   0.216227 0.514396 0.844820 -0.317532
H31   H     H_    0.204125 0.613892 0.817173 0.184571
H32   H     H_    0.260916 0.511450 0.883678 0.152430
H33   H     H_    0.187989 0.483214 0.929975 0.201540
O16   O     O_3   0.791185 0.608757 0.277882 -0.600567
C50   C     C_3   0.775076 0.736540 0.253936 -0.272216
H34   H     H_    0.772974 0.792692 0.350610 0.183813
H35   H     H_    0.733774 0.741319 0.197783 0.150028
H36   H     H_    0.807846 0.782267 0.187778 0.206045
N7    N     N_2   0.411621 0.906599 0.658008 -0.304908
H37   H     H_    0.387065 0.840755 0.606042 0.215270
C51   C     C_3   0.377982 0.000363 0.729313 -0.765483
H38   H     H_    0.345847 0.951247 0.794677 0.244164
H39   H     H_    0.355371 0.062712 0.654447 0.244910
H40   H     H_    0.405693 0.059514 0.796609 0.236495
N8    N     N_2   0.588603 0.092444 0.341106 -0.297409
H41   H     H_    0.612790 0.159894 0.391569 0.217166
C52   C     C_3   0.622784 0.997863 0.272491 -0.796054
H42   H     H_    0.654670 0.046223 0.205798 0.246355
H43   H     H_    0.595426 0.936295 0.206896 0.239222
H44   H     H_    0.645747 0.937967 0.349062 0.233524

loop_
_geom_bond_atom_site_label_1
_geom_bond_atom_site_label_2
_ccdc_geom_bond_type
C22   N8    S    
C12   O16   S    
C29   N3    S    
C15   H15   S    
O15   C49   S    
C8    C24   S    
C30   N4    S    
O6    Zn2   S    
C18   C21   S    
C41   C43   A    
C23   O5    A    
C36   C42   A    
N7    H37   S    
C48   H28   S    
C24   O6    A    
N7    C51   S    
C29   H5    S    
C46   H20   S    
C28   H2    S    
O8    Zn1   S    
C28   C29   S    
C35   C37   A    
C2    O4    A    
N8    C52   S    
C32   O10   S    
C8    C10   A    
C31   O9    S    
C11   C13   A    
O16   C50   S    
C34   N2    A    
C49   H33   S    
C7    C9    A    
C16   H16   S    
C31   N1    A    
C33   C35   A    
O5    Zn1   S    
C33   O11   S    
C40   C43   A    
C13   N2    S    
N6    H27   S    
C1    O1    A    
C50   H34   S    
C9    H11   S    
N5    C47   S    
C10   H12   S    
C25   H3    S    
C18   C20   S    
C3    C13   A    
C26   H4    S    
C51   H40   S    
C4    H10   S    
C44   H8    S    
C46   H21   S    
C30   H6    S    
C27   C30   S    
C50   H35   S    
O3    Zn2   S    
C42   C44   A    
C45   H19   S    
C48   H29   S    
C18   H14   S    
C52   H43   S    
C25   C29   S    
C15   C20   S    
O2    Zn2   S    
O1    Zn1   S    
C23   O7    A    
C42   O14   S    
O14   C46   S    
C4    C6    A    
C47   H24   S    
C5    C7    A    
C6    C8    A    
C3    C5    A    
C14   N1    S    
C25   N4    S    
C26   N3    S    
C37   C38   A    
C47   H25   S    
C21   N7    S    
C11   O15   S    
C49   H32   S    
C9    C11   A    
C10   C12   A    
C28   N4    S    
C16   C18   S    
C12   C14   A    
C27   H1    S    
C26   C30   S    
C50   H36   S    
C48   H30   S    
C24   O8    A    
C51   H38   S    
N3    Zn1   S    
C46   H22   S    
O4    Zn1   S    
C15   C17   S    
C1    C20   S    
C16   C22   S    
C19   C21   S    
C2    C19   S    
N4    Zn2   S    
C52   H44   S    
C20   C22   S    
C45   H17   S    
C2    O2    A    
C41   O13   S    
C52   H42   S    
N6    C48   S    
C39   C44   A    
C1    O3    A    
C25   C27   S    
C26   C28   S    
C17   C22   S    
C36   C38   A    
C32   N2    A    
C37   C39   A    
N8    H41   S    
C47   H26   S    
C38   C40   A    
C3    H9    S    
C43   H7    S    
C16   C19   S    
C7    C23   S    
C17   C19   S    
C45   H18   S    
C31   C39   A    
C34   C36   A    
C32   C40   A    
C4    C14   A    
C49   H31   S    
C35   C41   A    
O13   C45   S    
C15   C21   S    
C33   N1    A    
C6    N6    S    
C34   O12   S    
C27   N3    S    
N5    H23   S    
O7    Zn2   S    
C5    N5    S    
C17   H13   S    
C51   H39   S    
