data_mof_unit_45470.cif
_audit_creation_date              2012-12-10T16:58:56-0500
_audit_creation_method            fapswitch 2.2
_symmetry_space_group_name_H-M    P1
_symmetry_Int_Tables_number       1
_space_group_crystal_system       triclinic
_cell_length_a                    9.687002
_cell_length_b                    10.860141
_cell_length_c                    17.194326
_cell_angle_alpha                 90.192843
_cell_angle_beta                  85.46117
_cell_angle_gamma                 89.094149
_cell_volume                      1802.96357912

loop_
_atom_site_label
_atom_site_type_symbol
_atom_type_description
_atom_site_fract_x
_atom_site_fract_y
_atom_site_fract_z
_atom_type_partial_charge
C1    C     C_R   0.498305 0.734963 0.503793 0.885755
C2    C     C_R   0.367768 0.427246 0.773549 -0.220041
C3    C     C_R   0.486951 0.373106 0.150994 0.465606
C4    C     C_R   0.470211 0.392399 0.231242 -0.325476
C5    C     C_R   0.611620 0.576814 0.218849 -0.018089
C6    C     C_R   0.633690 0.554088 0.137920 0.442833
C7    C     C_R   0.565059 0.456379 0.104015 -0.074776
C8    C     C_2   0.452576 0.450131 0.982025 -0.172645
C9    C     C_2   0.569491 0.448158 0.018782 -0.117371
C10   C     C_R   0.532126 0.492368 0.265303 -0.173177
C11   C     C_2   0.573686 0.066889 0.553932 0.026254
C12   C     C_R   0.481468 0.502318 0.650242 0.764671
C13   C     C_2   0.506717 0.132637 0.501529 -0.404111
C14   C     C_2   0.594793 0.933133 0.540247 0.491925
C15   C     C_2   0.490723 0.867409 0.514774 -0.456713
C16   C     C_2   0.070433 0.571985 0.544535 -0.077824
C17   C     C_2   0.915025 0.575266 0.542269 -0.080777
C18   C     C_R   0.501036 0.265299 0.501814 0.867248
C19   C     C_R   0.518811 0.501090 0.350049 0.840171
C20   C     C_R   0.470362 0.500623 0.735699 -0.067137
C21   C     C_R   0.562544 0.567204 0.779789 0.061573
C22   C     C_R   0.552599 0.551343 0.860983 -0.151228
C23   C     C_R   0.455991 0.471005 0.897576 0.110702
C24   C     C_R   0.360602 0.412623 0.854004 -0.168299
Cu1   Cu    Cu3+1 0.361370 0.499980 0.499980 0.931093
Cu2   Cu    Cu3+1 0.638630 0.500020 0.500020 0.935258
H1    H     H_    0.464491 0.088485 0.452094 0.121243
H2    H     H_    0.391774 0.911498 0.505870 0.122048
H3    H     H_    0.115035 0.634041 0.584924 0.149879
H4    H     H_    0.112538 0.445653 0.460374 0.194981
H5    H     H_    0.857516 0.643547 0.578312 0.184813
H6    H     H_    0.899590 0.433539 0.468648 0.192564
H7    H     H_    0.409663 0.327980 0.267281 0.170660
H8    H     H_    0.669123 0.456744 0.985867 0.148781
H9    H     H_    0.283516 0.352627 0.881954 0.139219
H10   H     H_    0.296258 0.377126 0.740357 0.156255
H11   H     H_    0.352582 0.440881 0.014704 0.177349
H12   H     H_    0.619500 0.601193 0.896781 0.143005
N1    N     N_2   0.152990 0.501340 0.500850 -0.278157
N2    N     N_2   0.846850 0.501370 0.500880 -0.284386
O1    O     O_R   0.382960 0.678040 0.499990 -0.589694
O2    O     O_R   0.617100 0.678080 0.500010 -0.528351
O3    O     O_R   0.369350 0.500000 0.613580 -0.574523
O4    O     O_R   0.603500 0.500040 0.613610 -0.589616
O5    O     O_R   0.382900 0.321920 0.499990 -0.573384
O6    O     O_R   0.617040 0.321960 0.500010 -0.579430
O7    O     O_R   0.396500 0.499960 0.386390 -0.579477
O8    O     O_R   0.630650 0.500000 0.386420 -0.583447
C25   C     C_3   0.669873 0.652538 0.739663 -0.380841
C26   C     C_3   0.743256 0.739379 0.793407 -0.384849
C27   C     C_3   0.841175 0.825055 0.746381 -0.821257
H13   H     H_    0.919816 0.770855 0.709570 0.245144
H14   H     H_    0.782427 0.885576 0.708577 0.289771
H15   H     H_    0.895354 0.884008 0.786763 0.234507
H16   H     H_    0.665221 0.796203 0.829010 0.229822
H17   H     H_    0.806006 0.684648 0.832697 0.220644
H18   H     H_    0.750727 0.594569 0.707332 0.215628
H19   H     H_    0.617640 0.710439 0.697128 0.216881
O9    O     O_3   0.709617 0.635218 0.090389 -0.580354
C28   C     C_3   0.849361 0.595067 0.084536 -0.379638
H20   H     H_    0.861880 0.501458 0.058185 0.156721
H21   H     H_    0.893557 0.595971 0.142334 0.164660
H22   H     H_    0.910409 0.659207 0.045898 0.197123
C29   C     C_3   0.626553 0.122826 0.627174 -0.345314
C30   C     C_3   0.541550 0.077763 0.700332 -0.371830
C31   C     C_3   0.596147 0.129647 0.774412 -0.840867
H23   H     H_    0.704636 0.097919 0.779401 0.253438
H24   H     H_    0.592342 0.231901 0.773780 0.265212
H25   H     H_    0.531244 0.097199 0.826198 0.247911
H26   H     H_    0.431646 0.107681 0.697958 0.217657
H27   H     H_    0.545419 0.975525 0.703006 0.233401
H28   H     H_    0.737262 0.096760 0.630383 0.206579
H29   H     H_    0.620899 0.224780 0.627510 0.206398
O10   O     O_3   0.712579 0.874595 0.563861 -0.585760
C32   C     C_3   0.827173 0.907165 0.512785 -0.333357
H30   H     H_    0.842118 0.008467 0.510264 0.155405
H31   H     H_    0.817057 0.869709 0.453288 0.173611
H32   H     H_    0.922016 0.865549 0.534508 0.176620
C33   C     C_3   0.663056 0.695178 0.253594 -0.372878
C34   C     C_3   0.542306 0.786011 0.273764 -0.332338
C35   C     C_3   0.593286 0.908496 0.303361 -0.884367
H33   H     H_    0.648698 0.894013 0.356694 0.254905
H34   H     H_    0.663911 0.952331 0.257901 0.253919
H35   H     H_    0.503513 0.971558 0.317789 0.238065
H36   H     H_    0.485969 0.803478 0.220892 0.229425
H37   H     H_    0.468457 0.746740 0.319435 0.213654
H38   H     H_    0.718806 0.675031 0.306130 0.203493
H39   H     H_    0.739151 0.741196 0.212209 0.233638
O11   O     O_3   0.422043 0.275509 0.118150 -0.575182
C36   C     C_3   0.505701 0.169025 0.123930 -0.311766
H40   H     H_    0.515436 0.143439 0.185924 0.157989
H41   H     H_    0.610030 0.180948 0.092982 0.159254
H42   H     H_    0.455879 0.091301 0.095574 0.193367

loop_
_geom_bond_atom_site_label_1
_geom_bond_atom_site_label_2
_ccdc_geom_bond_type
C31   H24   S    
Cu1   O3    S    
C21   C25   S    
C35   H33   S    
C15   H2    S    
Cu2   O4    S    
C13   C18   S    
C28   H22   S    
C14   O10   S    
C12   O3    A    
C3    C7    A    
C5    C6    A    
C11   C14   S    
C19   O7    A    
C31   H25   S    
C30   H26   S    
C22   H12   S    
C8    C23   S    
C25   H18   S    
C28   H21   S    
C34   H37   S    
C8    C9    D    
C29   H29   S    
C1    C15   S    
C5    C33   S    
Cu1   O7    S    
Cu2   O8    S    
H6    N2    S    
C31   H23   S    
O9    C28   S    
C21   C22   A    
C18   O6    A    
C33   H38   S    
C33   H39   S    
C35   H34   S    
C24   H9    S    
O10   C32   S    
C2    C20   A    
C27   H13   S    
C11   C29   S    
Cu1   O1    S    
C19   O8    A    
C16   C17   S    
Cu1   Cu2   S    
C30   H27   S    
C26   H17   S    
C25   H19   S    
C28   H20   S    
C27   H14   S    
C17   N2    D    
C32   H30   S    
C34   H36   S    
C36   H41   S    
C10   C19   S    
C23   C24   A    
C12   C20   S    
C26   C27   S    
C32   H31   S    
C1    O1    A    
C30   C31   S    
C2    C24   A    
C9    H8    S    
C17   H5    S    
C8    H11   S    
C4    C10   A    
C3    C4    A    
C18   O5    A    
Cu1   O5    S    
C35   H35   S    
Cu2   O2    S    
C36   H42   S    
C2    H10   S    
C7    C9    S    
C4    H7    S    
C14   C15   D    
C6    O9    S    
C34   C35   S    
C6    C7    A    
C26   H16   S    
C3    O11   S    
C27   H15   S    
C29   C30   S    
C16   H3    S    
C5    C10   A    
C12   O4    A    
Cu1   N1    S    
C11   C13   D    
Cu2   N2    S    
C36   H40   S    
H4    N1    S    
C29   H28   S    
C32   H32   S    
Cu2   O6    S    
C16   N1    D    
C33   C34   S    
C1    O2    A    
C20   C21   A    
C25   C26   S    
C22   C23   A    
C13   H1    S    
O11   C36   S    
