data_mof_unit_34684.cif
_audit_creation_date              2012-12-10T18:33:47-0500
_audit_creation_method            fapswitch 2.2
_symmetry_space_group_name_H-M    P1
_symmetry_Int_Tables_number       1
_space_group_crystal_system       triclinic
_cell_length_a                    10.502972
_cell_length_b                    14.862699
_cell_length_c                    15.339285
_cell_angle_alpha                 81.231211
_cell_angle_beta                  89.958522
_cell_angle_gamma                 103.489675
_cell_volume                      2299.58472308

loop_
_atom_site_label
_atom_site_type_symbol
_atom_type_description
_atom_site_fract_x
_atom_site_fract_y
_atom_site_fract_z
_atom_type_partial_charge
C1    C     C_R   0.483281 0.440771 0.663275 0.912079
C2    C     C_R   0.581200 0.476570 0.050517 -0.136397
C3    C     C_R   0.551475 0.379238 0.086865 0.353459
C4    C     C_R   0.686435 0.592575 0.925930 0.364353
C5    C     C_R   0.519265 0.311349 0.030064 0.449185
C6    C     C_R   0.721960 0.660143 0.982675 0.445909
C7    C     C_R   0.740307 0.851044 0.598374 -0.212914
C8    C     C_R   0.303753 0.164933 0.357001 -0.201987
C9    C     C_R   0.684567 0.757113 0.597295 0.036732
C10   C     C_R   0.331456 0.250135 0.387899 0.049138
C11   C     C_R   0.511466 0.795199 0.511518 0.038509
C12   C     C_R   0.524996 0.558963 0.337340 0.906696
C13   C     C_R   0.495626 0.205092 0.478240 0.045177
C14   C     C_R   0.569237 0.892243 0.502941 -0.033236
C15   C     C_R   0.480517 0.120648 0.443140 -0.021486
C16   C     C_R   0.742600 0.500547 0.499786 0.824325
C17   C     C_R   0.257664 0.499935 0.499618 0.877624
C18   C     C_R   0.684991 0.919656 0.549796 0.094763
C19   C     C_R   0.377568 0.098858 0.384834 0.093244
C20   C     C_R   0.515158 0.962391 0.451933 -0.048266
C21   C     C_R   0.561266 0.056581 0.466523 -0.046973
C22   C     C_R   0.688052 0.083663 0.501120 -0.111736
C23   C     C_R   0.508253 0.466774 0.818936 0.393835
C24   C     C_R   0.419851 0.944138 0.385990 -0.120142
C25   C     C_R   0.749388 0.014380 0.543076 0.388821
C26   C     C_R   0.353468 0.013987 0.351590 0.386354
C27   C     C_3   0.935505 0.432317 0.561921 -0.117469
C28   C     C_3   0.065787 0.569996 0.436943 -0.143274
C29   C     C_3   0.047359 0.514836 0.579068 -0.199174
C30   C     C_3   0.953834 0.487517 0.419671 -0.213875
C31   C     C_3   0.122533 0.500132 0.499209 -0.005443
C32   C     C_3   0.878409 0.501862 0.499591 0.007857
C33   C     C_3   0.013386 0.417685 0.481962 -0.092385
C34   C     C_R   0.521461 0.535671 0.182490 0.411687
C35   C     C_3   0.987732 0.584620 0.516814 -0.119881
C36   C     C_R   0.487527 0.403306 0.758116 -0.253200
C37   C     C_R   0.567560 0.594428 0.244621 -0.266539
C38   C     C_R   0.479331 0.276236 0.880340 -0.100062
C39   C     C_R   0.707094 0.703114 0.129360 -0.082858
C40   C     C_R   0.476732 0.306706 0.789762 0.340639
C41   C     C_R   0.665288 0.678221 0.217988 0.318032
C42   C     C_2   0.763753 0.182490 0.482894 0.853944
C43   C     C_2   0.400106 0.858791 0.343772 0.854337
C44   C     C_R   0.544939 0.437614 0.904935 -0.120867
C45   C     C_R   0.592274 0.548918 0.101802 -0.120064
C46   C     C_R   0.513608 0.341080 0.938920 -0.097556
C47   C     C_R   0.673001 0.638376 0.070558 -0.103765
C48   C     C_R   0.604131 0.502796 0.959269 -0.129707
H1    H     H_    0.090220 0.525856 0.643850 0.160041
H2    H     H_    0.123628 0.625783 0.386089 0.191127
H3    H     H_    0.029851 0.350274 0.467454 0.175686
H4    H     H_    0.973385 0.652725 0.531009 0.162996
H5    H     H_    0.461560 0.201673 0.903736 0.231082
H6    H     H_    0.775181 0.770106 0.108837 0.234852
H7    H     H_    0.816810 0.300573 0.393646 0.339318
H8    H     H_    0.481691 0.774223 0.283104 0.363983
H9    H     H_    0.493565 0.205215 0.126662 0.394325
H10   H     H_    0.826539 0.754737 0.890748 0.389282
H11   H     H_    0.367387 0.450690 0.146141 0.344811
H12   H     H_    0.911162 0.476940 0.354749 0.146434
H13   H     H_    0.461019 0.578325 0.847781 0.344956
H14   H     H_    0.743506 0.696309 0.329408 0.350125
H15   H     H_    0.535077 0.260410 0.691234 0.343049
H16   H     H_    0.630857 0.396406 0.199230 0.353410
H17   H     H_    0.750453 0.554534 0.821855 0.343161
H18   H     H_    0.927447 0.091691 0.539091 0.357082
H19   H     H_    0.291875 0.963703 0.244894 0.366763
H20   H     H_    0.562058 0.221898 0.530093 0.130658
H21   H     H_    0.418314 0.767853 0.484971 0.139583
H22   H     H_    0.278225 0.302561 0.364044 0.162228
H23   H     H_    0.732598 0.704295 0.628516 0.163671
H24   H     H_    0.829315 0.869387 0.633935 0.210828
H25   H     H_    0.226396 0.151983 0.310628 0.210510
H26   H     H_    0.877854 0.377226 0.613422 0.179031
N1    N     N_R   0.574200 0.731700 0.552740 -0.105804
N2    N     N_R   0.425800 0.268300 0.447260 -0.110002
O1    O     O_R   0.462600 0.383110 0.605620 -0.608456
O2    O     O_R   0.766474 0.233050 0.397923 -0.774947
O3    O     O_2   0.289425 0.811350 0.337336 -0.629238
O4    O     O_R   0.508332 0.832740 0.311502 -0.731943
O5    O     O_3   0.491060 0.216163 0.061484 -0.748674
O6    O     O_3   0.803024 0.747701 0.954303 -0.751306
O7    O     O_3   0.406947 0.466727 0.202072 -0.723490
O8    O     O_3   0.486480 0.555389 0.794512 -0.703501
O9    O     O_3   0.724199 0.736294 0.275726 -0.691416
O10   O     O_3   0.460585 0.240073 0.735035 -0.718589
O11   O     O_3   0.563551 0.348624 0.175513 -0.734038
O12   O     O_R   0.537400 0.616890 0.394380 -0.610398
O13   O     O_3   0.741515 0.613438 0.841236 -0.762443
O14   O     O_3   0.872698 0.036585 0.577293 -0.739257
O15   O     O_3   0.263876 0.001469 0.285748 -0.730968
O16   O     O_R   0.510210 0.531900 0.639510 -0.537040
O17   O     O_R   0.489790 0.468100 0.360490 -0.546952
O18   O     O_R   0.662240 0.425610 0.483080 -0.618093
O19   O     O_R   0.337760 0.574390 0.516920 -0.616512
O20   O     O_R   0.709860 0.574400 0.516970 -0.644180
O21   O     O_R   0.290140 0.425600 0.483030 -0.628231
O22   O     O_2   0.820447 0.219980 0.542205 -0.650792
Zn1   Zn    Zn3+2 0.468210 0.400660 0.477370 0.989661
Zn2   Zn    Zn3+2 0.531790 0.599340 0.522630 0.990173

loop_
_geom_bond_atom_site_label_1
_geom_bond_atom_site_label_2
_ccdc_geom_bond_type
C30   C32   S    
C6    O6    S    
C27   C29   S    
C34   C37   A    
C1    O1    A    
C14   C18   A    
C39   C41   A    
C29   H1    S    
C27   C33   S    
N2    Zn1   S    
H17   O13   S    
C25   O14   S    
C24   C26   A    
C42   O22   D    
C11   C14   A    
C39   H6    S    
C43   O3    D    
C40   O10   S    
C12   C37   S    
C19   C26   A    
N1    Zn2   S    
C10   N2    A    
C20   C24   A    
C28   C35   S    
C22   C25   A    
C30   H12   S    
C31   C33   S    
C17   O19   A    
C27   H26   S    
O17   Zn1   S    
H16   O11   S    
C21   C22   A    
C18   C25   A    
C28   H2    S    
O21   Zn1   S    
C44   C46   A    
C45   C47   A    
C2    C45   A    
H14   O9    S    
C16   O20   A    
C8    C19   A    
C23   O8    S    
C12   O12   A    
C3    O11   S    
C32   C35   S    
C14   C20   A    
C36   C40   A    
H18   O14   S    
C6    C47   A    
C7    H24   S    
H7    O2    S    
O19   Zn2   S    
C2    C48   A    
C43   O4    S    
C23   C44   A    
C15   C19   A    
C5    O5    S    
C13   N2    A    
C7    C18   A    
H19   O15   S    
C34   C45   A    
O12   Zn2   S    
C10   H22   S    
C4    C6    A    
C42   O2    S    
C1    O16   A    
C13   C15   A    
H15   O10   S    
C17   C31   S    
H9    O5    S    
C12   O17   A    
C16   C32   S    
C34   O7    S    
O16   Zn2   S    
C39   C47   A    
C4    O13   S    
C4    C48   A    
C7    C9    A    
C30   C33   S    
C27   C32   S    
C28   C31   S    
C9    H23   S    
H11   O7    S    
C3    C5    A    
H13   O8    S    
C11   H21   S    
C33   H3    S    
C41   O9    S    
C5    C46   A    
C29   C35   S    
C16   O18   A    
H8    O4    S    
H10   O6    S    
C2    C3    A    
C26   O15   S    
C29   C31   S    
C11   N1    A    
C38   C40   A    
C22   C42   S    
C38   H5    S    
O18   Zn1   S    
O20   Zn2   S    
C28   C30   S    
C8    H25   S    
O1    Zn1   S    
C37   C41   A    
C38   C46   A    
C15   C21   A    
C20   C21   A    
C8    C10   A    
C23   C36   A    
C35   H4    S    
C24   C43   S    
C9    N1    A    
C17   O21   A    
C44   C48   A    
C1    C36   S    
C13   H20   S    
