data_mof_unit_58325.cif
_audit_creation_date              2012-12-10T17:03:57-0500
_audit_creation_method            fapswitch 2.2
_symmetry_space_group_name_H-M    P1
_symmetry_Int_Tables_number       1
_space_group_crystal_system       triclinic
_cell_length_a                    9.894047
_cell_length_b                    11.04487
_cell_length_c                    15.706126
_cell_angle_alpha                 96.840133
_cell_angle_beta                  78.468156
_cell_angle_gamma                 111.876714
_cell_volume                      1558.71283832

loop_
_atom_site_label
_atom_site_type_symbol
_atom_type_description
_atom_site_fract_x
_atom_site_fract_y
_atom_site_fract_z
_atom_type_partial_charge
C1    C     C_R   0.557171 0.745925 0.507038 0.782555
C2    C     C_R   0.442420 0.253812 0.493958 0.738940
C3    C     C_R   0.308810 0.380893 0.072714 0.511938
C4    C     C_R   0.656902 0.444890 0.916240 0.520022
C5    C     C_R   0.208495 0.359683 0.016441 -0.315430
C6    C     C_R   0.755884 0.458150 0.971864 -0.311502
C7    C     C_2   0.592741 0.887217 0.513138 -0.218816
C8    C     C_2   0.407796 0.112227 0.490487 -0.176881
C9    C     C_2   0.481616 0.932059 0.520271 -0.103691
C10   C     C_2   0.504743 0.069771 0.515222 -0.153125
C11   C     C_2   0.916871 0.477964 0.497203 0.003612
C12   C     C_2   0.065220 0.493558 0.516692 0.088324
C13   C     C_R   0.411277 0.486465 0.663156 0.835619
C14   C     C_R   0.588709 0.513581 0.336830 0.801496
C15   C     C_R   0.355963 0.465654 0.756624 -0.195524
C16   C     C_R   0.639012 0.511598 0.241915 -0.190603
C17   C     C_R   0.155736 0.373875 0.874601 -0.176578
C18   C     C_R   0.817701 0.490007 0.116535 -0.169044
C19   C     C_R   0.204687 0.405208 0.787624 -0.245253
C20   C     C_R   0.777449 0.503820 0.206410 -0.265331
C21   C     C_R   0.457601 0.496548 0.814487 0.457954
C22   C     C_R   0.542451 0.508085 0.185826 0.463560
C23   C     C_R   0.411337 0.444255 0.897610 -0.023892
C24   C     C_R   0.571560 0.470706 0.097037 -0.027471
C25   C     C_R   0.257945 0.393106 0.929870 0.022097
C26   C     C_R   0.715840 0.473629 0.061583 0.019107
C27   C     C_R   0.512828 0.446321 0.950870 -0.117582
C28   C     C_R   0.463794 0.436411 0.041797 -0.119234
Cu1   Cu    Cu3+1 0.362980 0.479380 0.485080 1.001131
Cu2   Cu    Cu3+1 0.637020 0.520620 0.514920 0.955853
H1    H     H_    0.091132 0.317109 0.041064 0.155680
H2    H     H_    0.864741 0.456421 0.944302 0.157003
H3    H     H_    0.854841 0.509004 0.247908 0.171864
H4    H     H_    0.124317 0.381675 0.744739 0.172980
H5    H     H_    0.038100 0.330512 0.897938 0.139196
H6    H     H_    0.927020 0.488419 0.090131 0.151242
H7    H     H_    0.604286 0.140578 0.534838 0.237250
H8    H     H_    0.368873 0.863394 0.527106 0.246763
H9    H     H_    0.133427 0.415246 0.401307 0.234810
H10   H     H_    0.891614 0.625553 0.580312 0.211842
N1    N     N_2   0.842890 0.551600 0.537350 -0.318587
N2    N     N_2   0.157110 0.448400 0.462650 -0.283013
O1    O     O_R   0.426810 0.668300 0.492040 -0.520589
O2    O     O_R   0.573190 0.331700 0.507960 -0.590816
O3    O     O_R   0.658240 0.703130 0.517240 -0.587352
O4    O     O_R   0.341760 0.296870 0.482760 -0.583255
O5    O     O_R   0.319390 0.472820 0.610170 -0.568723
O6    O     O_R   0.680610 0.527180 0.389830 -0.611387
O7    O     O_R   0.550820 0.507640 0.635370 -0.520760
O8    O     O_R   0.449180 0.492360 0.364630 -0.524204
O9    O     O_3   0.422863 0.546522 0.217425 -0.523857
C29   C     C_3   0.467954 0.682365 0.209501 0.038651
H11   H     H_    0.503617 0.707292 0.139858 0.130586
H12   H     H_    0.559920 0.737006 0.246240 0.129188
C30   C     C_3   0.338149 0.725488 0.247222 -0.678932
H13   H     H_    0.300546 0.701876 0.316824 0.277920
H14   H     H_    0.371987 0.832522 0.242058 0.207031
H15   H     H_    0.245221 0.674402 0.210966 0.230801
O10   O     O_3   0.600673 0.582584 0.790767 -0.521417
C31   C     C_3   0.604342 0.711096 0.813708 0.056480
H16   H     H_    0.579071 0.725807 0.885714 0.130804
H17   H     H_    0.524314 0.733317 0.783095 0.131055
C32   C     C_3   0.758332 0.806692 0.781504 -0.730125
H18   H     H_    0.785563 0.795044 0.709585 0.254656
H19   H     H_    0.763083 0.908378 0.799411 0.189896
H20   H     H_    0.841074 0.788309 0.811482 0.248431
O11   O     O_3   0.252426 0.338077 0.156216 -0.533679
C33   C     C_3   0.257196 0.212517 0.159265 0.042535
H21   H     H_    0.370985 0.211624 0.136426 0.130838
H22   H     H_    0.180467 0.140298 0.118659 0.135501
C34   C     C_3   0.209089 0.171049 0.252879 -0.730254
H23   H     H_    0.095348 0.169791 0.277896 0.258522
H24   H     H_    0.285623 0.240336 0.294513 0.258541
H25   H     H_    0.210682 0.071717 0.256187 0.197229
O12   O     O_3   0.699128 0.419005 0.828717 -0.534294
C35   C     C_3   0.646001 0.282442 0.811534 0.005609
H26   H     H_    0.524229 0.238276 0.833204 0.135827
H27   H     H_    0.702464 0.235741 0.844535 0.134148
C36   C     C_3   0.677876 0.253529 0.714103 -0.677427
H28   H     H_    0.798858 0.291639 0.690253 0.247547
H29   H     H_    0.623828 0.300061 0.679510 0.258548
H30   H     H_    0.633737 0.146346 0.699993 0.217180
C37   C     C_2   0.270029 0.024861 0.458153 0.346633
H31   H     H_    0.178442 0.058321 0.463200 0.109398
O13   O     O_2   0.259591 0.918609 0.421676 -0.570968
C38   C     C_2   0.751113 0.972140 0.508148 0.431717
H32   H     H_    0.834601 0.943710 0.463737 0.077308
O14   O     O_2   0.790652 0.067891 0.557406 -0.549933
C39   C     C_2   0.096590 0.552500 0.603226 0.439608
H33   H     H_    0.025252 0.505101 0.660968 0.047785
O15   O     O_2   0.193446 0.658678 0.611083 -0.560052
C40   C     C_2   0.854801 0.371229 0.433118 0.407652
H34   H     H_    0.795784 0.382431 0.386044 0.111497
O16   O     O_2   0.871298 0.266829 0.431787 -0.570379

loop_
_geom_bond_atom_site_label_1
_geom_bond_atom_site_label_2
_ccdc_geom_bond_type
C6    H2    S    
C30   H13   S    
C32   H19   S    
Cu1   N2    S    
C8    C37   S    
Cu2   O3    S    
C18   C26   A    
C35   C36   S    
C6    C26   A    
C2    O4    A    
C15   C19   A    
Cu1   O5    S    
C31   C32   S    
Cu2   O6    S    
C3    C28   A    
C24   C26   A    
C21   O10   S    
C38   O14   D    
C7    C38   S    
C31   H17   S    
C9    H8    S    
C4    O12   S    
C12   N2    D    
C11   C40   S    
C1    O1    A    
C2    O2    A    
C33   H21   S    
Cu2   N1    S    
C23   C27   A    
C39   O15   D    
C9    C10   S    
C18   C20   A    
C29   C30   S    
C32   H20   S    
O10   C31   S    
Cu1   O1    S    
Cu2   O2    S    
C29   H12   S    
H9    N2    S    
Cu1   O8    S    
C21   C23   A    
C2    C8    S    
O11   C33   S    
C12   C39   S    
C35   H26   S    
C4    C6    A    
C36   H29   S    
C38   H32   S    
C14   O6    A    
O9    C29   S    
C31   H16   S    
O12   C35   S    
Cu1   Cu2   S    
C34   H25   S    
C37   H31   S    
C16   C20   A    
C40   O16   D    
C13   O7    A    
C5    C25   A    
C20   H3    S    
C8    C10   D    
H10   N1    S    
C37   O13   D    
Cu2   O7    S    
C30   H14   S    
C14   C16   S    
C4    C27   A    
C29   H11   S    
C13   O5    A    
C7    C9    D    
C16   C22   A    
C1    C7    S    
C3    O11   S    
C24   C28   A    
C35   H27   S    
C32   H18   S    
C3    C5    A    
C19   H4    S    
C36   H30   S    
C11   C12   S    
C10   H7    S    
Cu1   O4    S    
C17   C25   A    
C13   C15   S    
C34   H23   S    
C1    O3    A    
C14   O8    A    
C33   C34   S    
C40   H34   S    
C17   C19   A    
C11   N1    D    
C22   C24   A    
C23   C25   A    
C36   H28   S    
C15   C21   A    
C33   H22   S    
C30   H15   S    
C34   H24   S    
C27   C28   A    
C17   H5    S    
C39   H33   S    
C18   H6    S    
C22   O9    S    
C5    H1    S    
