data_mof_unit_28269.cif
_audit_creation_date              2012-12-11T14:24:58-0500
_audit_creation_method            fapswitch 2.2
_symmetry_space_group_name_H-M    P1
_symmetry_Int_Tables_number       1
_space_group_crystal_system       triclinic
_cell_length_a                    19.010841
_cell_length_b                    10.99868
_cell_length_c                    18.780163
_cell_angle_alpha                 90.217753
_cell_angle_beta                  91.091511
_cell_angle_gamma                 90.268009
_cell_volume                      3926.03714277

loop_
_atom_site_label
_atom_site_type_symbol
_atom_type_description
_atom_site_fract_x
_atom_site_fract_y
_atom_site_fract_z
_atom_type_partial_charge
Br1   Br    Br    0.598121 0.889795 0.835958 -0.560307
Br2   Br    Br    0.407448 0.865796 0.157872 -0.526340
Br3   Br    Br    0.098122 0.389798 0.835957 -0.560307
Br4   Br    Br    0.907446 0.365806 0.157873 -0.526339
C1    C     C_R   0.731149 0.377767 0.146998 0.566354
C2    C     C_R   0.251780 0.919063 0.075643 0.012938
C3    C     C_R   0.622916 0.526950 0.436838 -0.091975
C4    C     C_R   0.869464 0.177123 0.568012 -0.118065
C5    C     C_R   0.061359 0.033835 0.475196 -0.153123
C6    C     C_R   0.369465 0.677122 0.568012 -0.118065
C7    C     C_R   0.561359 0.533835 0.475196 -0.153123
C8    C     C_R   0.893993 0.164996 0.499334 -0.149378
C9    C     C_R   0.060163 0.993472 0.544962 -0.123487
C10   C     C_R   0.393993 0.664995 0.499334 -0.149378
C11   C     C_R   0.560163 0.493472 0.544962 -0.123487
C12   C     C_R   0.861735 0.082854 0.452071 -0.082737
C13   C     C_R   0.254206 0.409037 0.927937 0.013408
C14   C     C_R   0.120201 0.942078 0.575296 -0.077663
C15   C     C_R   0.361735 0.582853 0.452071 -0.082737
C16   C     C_R   0.620202 0.442078 0.575296 -0.077663
C17   C     C_R   0.763463 0.930446 0.427169 0.009172
C18   C     C_R   0.249827 0.927812 0.571472 -0.003824
C19   C     C_R   0.263463 0.430445 0.427169 0.009172
C20   C     C_R   0.749827 0.427813 0.571472 -0.003824
C21   C     C_R   0.730477 0.383156 0.353292 0.547175
C22   C     C_R   0.269241 0.377997 0.645694 0.539146
C23   C     C_R   0.230477 0.883156 0.353292 0.547173
C24   C     C_R   0.751778 0.419062 0.075643 0.012939
C25   C     C_R   0.769241 0.877997 0.645694 0.539146
C26   C     C_R   0.561008 0.152464 0.361256 0.555817
C27   C     C_R   0.468786 0.158002 0.648234 0.535505
C28   C     C_R   0.061007 0.652464 0.361256 0.555817
C29   C     C_R   0.968786 0.658003 0.648234 0.535505
C30   C     C_R   0.744686 0.970590 0.355797 0.535129
C31   C     C_R   0.257609 0.970221 0.643849 0.524796
C32   C     C_R   0.244686 0.470590 0.355797 0.535129
C33   C     C_R   0.757610 0.470221 0.643849 0.524795
C34   C     C_3   0.488845 0.279421 0.978914 -0.126694
C35   C     C_R   0.693155 0.867844 0.963339 0.022505
C36   C     C_3   0.443989 0.210783 0.034094 -0.132592
C37   C     C_3   0.988843 0.779421 0.978914 -0.126694
C38   C     C_3   0.943989 0.710781 0.034094 -0.132591
C39   C     C_3   0.556931 0.231339 0.015190 -0.134474
C40   C     C_3   0.442745 0.097449 0.985263 -0.093886
C41   C     C_3   0.056930 0.731342 0.015190 -0.134475
C42   C     C_3   0.942746 0.597447 0.985263 -0.093885
C43   C     C_3   0.511503 0.162390 0.068848 0.051176
C44   C     C_3   0.488289 0.165443 0.931266 0.057115
C45   C     C_3   0.011503 0.662390 0.068848 0.051176
C46   C     C_R   0.305871 0.861603 0.036756 0.029242
C47   C     C_3   0.988290 0.665443 0.931266 0.057115
C48   C     C_R   0.193155 0.367845 0.963339 0.022503
C49   C     C_R   0.805871 0.361606 0.036756 0.029240
C50   C     C_R   0.696786 0.857793 0.038932 0.004184
C51   C     C_R   0.298705 0.854374 0.961208 -0.014127
C52   C     C_R   0.196785 0.357793 0.038932 0.004184
C53   C     C_R   0.269969 0.376102 0.854010 0.573941
C54   C     C_R   0.798706 0.354375 0.961208 -0.014127
C55   C     C_R   0.811117 0.954889 0.041600 -0.159427
C56   C     C_R   0.199976 0.992609 0.965769 -0.155937
C57   C     C_R   0.311118 0.454886 0.041601 -0.159427
C58   C     C_R   0.699971 0.492600 0.965767 -0.155936
C59   C     C_R   0.812573 0.949240 0.968779 -0.155045
C60   C     C_R   0.201366 0.987505 0.038812 -0.173582
C61   C     C_R   0.312575 0.449237 0.968780 -0.155043
C62   C     C_R   0.701361 0.487497 0.038810 -0.173581
C63   C     C_R   0.629860 0.830452 0.927650 0.162770
C64   C     C_R   0.231150 0.877767 0.146998 0.566352
C65   C     C_R   0.366012 0.808447 0.069443 0.179378
C66   C     C_R   0.129860 0.330454 0.927649 0.162768
C67   C     C_R   0.866012 0.308454 0.069444 0.179376
C68   C     C_R   0.081447 0.259135 0.963648 -0.111016
C69   C     C_R   0.906102 0.226501 0.031144 -0.106983
C70   C     C_R   0.581447 0.759134 0.963650 -0.111016
C71   C     C_R   0.406101 0.726495 0.031142 -0.106984
C72   C     C_R   0.591818 0.732474 0.035335 -0.180453
C73   C     C_R   0.393725 0.708315 0.958772 -0.158460
C74   C     C_R   0.091818 0.232475 0.035333 -0.180456
C75   C     C_R   0.769969 0.876102 0.854010 0.573941
C76   C     C_R   0.893728 0.208319 0.958775 -0.158462
C77   C     C_R   0.646953 0.785628 0.073537 -0.096231
C78   C     C_R   0.341546 0.773461 0.923487 -0.087112
C79   C     C_R   0.146952 0.285629 0.073537 -0.096235
C80   C     C_R   0.841548 0.273464 0.923489 -0.087113
C81   C     C_R   0.532953 0.155144 0.143995 0.579865
C82   C     C_R   0.466844 0.156031 0.856129 0.568752
C83   C     C_R   0.032953 0.655144 0.143995 0.579868
C84   C     C_R   0.966844 0.656031 0.856129 0.568753
C85   C     C_R   0.752046 0.915933 0.077619 -0.004451
C86   C     C_3   0.510613 0.049265 0.020780 -0.079077
C87   C     C_R   0.249094 0.928979 0.925682 -0.006694
C88   C     C_R   0.252046 0.415932 0.077620 -0.004451
C89   C     C_R   0.749093 0.428976 0.925682 -0.006693
C90   C     C_R   0.505044 0.167900 0.580741 -0.007552
C91   C     C_R   0.539787 0.153390 0.436245 0.006871
C92   C     C_R   0.005044 0.667900 0.580741 -0.007552
C93   C     C_R   0.039787 0.653390 0.436245 0.006871
C94   C     C_R   0.545596 0.069967 0.556894 0.018964
C95   C     C_R   0.554444 0.053787 0.482982 0.021293
C96   C     C_R   0.045596 0.569967 0.556894 0.018963
C97   C     C_3   0.555729 0.117920 0.966395 -0.120250
C98   C     C_R   0.054444 0.553787 0.482982 0.021293
C99   C     C_R   0.502787 0.253233 0.462099 -0.133431
C100  C     C_R   0.482007 0.256456 0.532469 -0.152369
C101  C     C_R   0.002786 0.753233 0.462099 -0.133431
C102  C     C_R   0.982007 0.756456 0.532469 -0.152368
C103  C     C_R   0.569739 0.979489 0.604647 -0.084451
C104  C     C_R   0.572531 0.935592 0.459656 -0.103962
C105  C     C_R   0.069739 0.479489 0.604648 -0.084451
C106  C     C_R   0.072530 0.435592 0.459656 -0.103962
C107  C     C_R   0.081331 0.362769 0.580254 -0.109779
C108  C     C_3   0.010615 0.549266 0.020780 -0.079078
C109  C     C_R   0.079364 0.340654 0.507731 -0.154800
C110  C     C_R   0.581331 0.862768 0.580254 -0.109779
C111  C     C_R   0.579364 0.840654 0.507731 -0.154799
C112  C     C_R   0.753892 0.909125 0.572996 0.009693
C113  C     C_R   0.242881 0.932639 0.424263 0.002092
C114  C     C_R   0.253892 0.409125 0.572996 0.009693
C115  C     C_R   0.742881 0.432640 0.424263 0.002092
C116  C     C_R   0.786651 0.012422 0.545119 0.020968
C117  C     C_R   0.183420 0.968149 0.465282 0.034325
C118  C     C_R   0.286651 0.512421 0.545119 0.020969
C119  C     C_3   0.055731 0.617923 0.966395 -0.120251
C120  C     C_R   0.683420 0.468150 0.465282 0.034324
C121  C     C_R   0.803879 0.009677 0.473354 0.040172
C122  C     C_R   0.183953 0.939952 0.537494 0.020410
C123  C     C_R   0.303879 0.509676 0.473354 0.040172
C124  C     C_R   0.683953 0.439952 0.537494 0.020410
C125  C     C_R   0.731113 0.828650 0.454780 -0.168880
C126  C     C_R   0.311484 0.921575 0.530977 -0.141696
C127  C     C_R   0.231113 0.328650 0.454780 -0.168880
C128  C     C_R   0.811485 0.421576 0.530977 -0.141696
C129  C     C_R   0.742105 0.967273 0.149131 0.536368
C130  C     C_R   0.754205 0.909038 0.927937 0.013407
C131  C     C_R   0.258089 0.970052 0.851837 0.529025
C132  C     C_R   0.242106 0.467273 0.149132 0.536368
C133  C     C_R   0.758089 0.470052 0.851836 0.529026
C134  C     C_R   0.731601 0.813477 0.527717 -0.139897
C135  C     C_R   0.307246 0.913265 0.457802 -0.150657
C136  C     C_R   0.231600 0.313477 0.527717 -0.139897
C137  C     C_R   0.807246 0.413265 0.457802 -0.150657
C138  C     C_R   0.813024 0.107029 0.589485 -0.080767
C139  C     C_R   0.122916 0.026950 0.436838 -0.091975
C140  C     C_R   0.313024 0.607028 0.589485 -0.080767
Cr1   Cr    Cr6+3 0.772820 0.169820 0.252640 1.058771
Cr2   Cr    Cr6+3 0.383280 0.011130 0.749340 1.030673
Cr3   Cr    Cr6+3 0.116720 0.511130 0.250660 1.028780
Cr4   Cr    Cr6+3 0.883280 0.511130 0.749340 1.030673
Cr5   Cr    Cr6+3 0.227180 0.169820 0.747360 1.047594
Cr6   Cr    Cr6+3 0.272820 0.669820 0.252640 1.058772
Cr7   Cr    Cr6+3 0.727180 0.669820 0.747360 1.047595
Cr8   Cr    Cr6+3 0.615040 0.323610 0.249150 1.012010
Cr9   Cr    Cr6+3 0.384960 0.323610 0.750850 1.009730
Cr10  Cr    Cr6+3 0.115040 0.823610 0.249150 1.012010
Cr11  Cr    Cr6+3 0.884960 0.823610 0.750850 1.009730
Cr12  Cr    Cr6+3 0.616720 0.011130 0.250660 1.028781
H1    H     H_    0.604215 0.286543 0.029153 0.134346
H2    H     H_    0.578953 0.909285 0.405290 0.171124
H3    H     H_    0.073907 0.495723 0.661475 0.161464
H4    H     H_    0.078951 0.409284 0.405290 0.171123
H5    H     H_    0.093253 0.290136 0.617240 0.146175
H6    H     H_    0.090925 0.251894 0.488203 0.120769
H7    H     H_    0.593253 0.790135 0.617240 0.146175
H8    H     H_    0.590926 0.751895 0.488203 0.120769
H9    H     H_    0.705194 0.762491 0.420276 0.111832
H10   H     H_    0.363398 0.924471 0.555598 0.153646
H11   H     H_    0.205193 0.262492 0.420277 0.111832
H12   H     H_    0.395433 0.042681 0.971247 0.142033
H13   H     H_    0.863398 0.424472 0.555597 0.153645
H14   H     H_    0.794774 0.118868 0.643361 0.123279
H15   H     H_    0.122718 0.071342 0.385539 0.134499
H16   H     H_    0.294775 0.618868 0.643361 0.123280
H17   H     H_    0.622718 0.571342 0.385539 0.134500
H18   H     H_    0.712134 0.728349 0.548743 0.153172
H19   H     H_    0.353798 0.893460 0.427528 0.140414
H20   H     H_    0.212133 0.228350 0.548743 0.153173
H21   H     H_    0.853798 0.393461 0.427528 0.140414
H22   H     H_    0.894517 0.240204 0.604983 0.124570
H23   H     H_    0.104213 0.786548 0.029153 0.134347
H24   H     H_    0.015400 0.073765 0.450689 0.101649
H25   H     H_    0.394517 0.740203 0.604983 0.124570
H26   H     H_    0.515400 0.573766 0.450689 0.101650
H27   H     H_    0.937546 0.220846 0.482470 0.111942
H28   H     H_    0.012869 0.002448 0.575664 0.125766
H29   H     H_    0.437546 0.720845 0.482470 0.111942
H30   H     H_    0.512869 0.502447 0.575664 0.125766
H31   H     H_    0.886389 0.072460 0.401112 0.142748
H32   H     H_    0.117550 0.909461 0.629526 0.129427
H33   H     H_    0.386389 0.572460 0.401112 0.142749
H34   H     H_    0.895435 0.542678 0.971247 0.142035
H35   H     H_    0.617550 0.409461 0.629526 0.129427
H36   H     H_    0.481080 0.374178 0.960340 0.111327
H37   H     H_    0.398341 0.246592 0.063349 0.124980
H38   H     H_    0.981078 0.874178 0.960341 0.111329
H39   H     H_    0.898340 0.746588 0.063349 0.124982
H40   H     H_    0.517893 0.954428 0.039001 0.176827
H41   H     H_    0.602880 0.085045 0.938680 0.156185
H42   H     H_    0.017896 0.454429 0.039000 0.176827
H43   H     H_    0.102882 0.585050 0.938680 0.156185
H44   H     H_    0.856572 0.992201 0.069776 0.146128
H45   H     H_    0.485948 0.325563 0.426823 0.144057
H46   H     H_    0.160167 0.048884 0.940773 0.163052
H47   H     H_    0.356573 0.492196 0.069777 0.146127
H48   H     H_    0.660160 0.548869 0.940770 0.163048
H49   H     H_    0.861985 0.971897 0.944825 0.142052
H50   H     H_    0.159315 0.031428 0.066546 0.148757
H51   H     H_    0.361987 0.471890 0.944826 0.142051
H52   H     H_    0.659309 0.531416 0.066543 0.148757
H53   H     H_    0.035859 0.223895 0.935490 0.142365
H54   H     H_    0.946956 0.176666 0.058036 0.120603
H55   H     H_    0.535858 0.723895 0.935492 0.142364
H56   H     H_    0.446010 0.326979 0.548672 0.143820
H57   H     H_    0.446955 0.676658 0.058032 0.120601
H58   H     H_    0.057816 0.169820 0.062098 0.113356
H59   H     H_    0.925420 0.144816 0.929437 0.102660
H60   H     H_    0.557817 0.669822 0.062100 0.113357
H61   H     H_    0.425418 0.644813 0.929433 0.102662
H62   H     H_    0.652943 0.762676 0.129285 0.141280
H63   H     H_    0.333312 0.756220 0.867202 0.140251
H64   H     H_    0.152941 0.262677 0.129285 0.141279
H65   H     H_    0.833315 0.256221 0.867203 0.140251
H66   H     H_    0.985948 0.825564 0.426823 0.144057
H67   H     H_    0.946010 0.826980 0.548672 0.143820
H68   H     H_    0.573907 0.995722 0.661475 0.161463
O1    O     O_R   0.788190 0.043000 0.172520 -0.507110
O2    O     O_R   0.454170 0.051610 0.669840 -0.517588
O3    O     O_R   0.045830 0.551610 0.330160 -0.519713
O4    O     O_R   0.954170 0.551610 0.669840 -0.517587
O5    O     O_R   0.681920 0.959720 0.327070 -0.532920
O6    O     O_R   0.318080 0.959720 0.672930 -0.514984
O7    O     O_R   0.181920 0.459720 0.327070 -0.532919
O8    O     O_R   0.818080 0.459720 0.672930 -0.514985
O9    O     O_3   0.668190 0.168190 0.250820 -0.275577
O10   O     O_3   0.331810 0.168190 0.749180 -0.257749
O11   O     O_3   0.168190 0.668190 0.250820 -0.275576
O12   O     O_R   0.211810 0.043000 0.827480 -0.513669
O13   O     O_3   0.831810 0.668190 0.749180 -0.257749
O14   O     O_R   0.766240 0.292300 0.176860 -0.451578
O15   O     O_R   0.233760 0.292300 0.823140 -0.452142
O16   O     O_R   0.266240 0.792300 0.176860 -0.451578
O17   O     O_R   0.733760 0.792300 0.823140 -0.452141
O18   O     O_R   0.670310 0.409160 0.168720 -0.540492
O19   O     O_R   0.329690 0.409160 0.831280 -0.540290
O20   O     O_R   0.170310 0.909160 0.168720 -0.540492
O21   O     O_R   0.829690 0.909160 0.831280 -0.540290
O22   O     O_R   0.556160 0.251900 0.173380 -0.507157
O23   O     O_R   0.288190 0.543000 0.172520 -0.507108
O24   O     O_R   0.443840 0.251900 0.826620 -0.516198
O25   O     O_R   0.056160 0.751900 0.173380 -0.507157
O26   O     O_R   0.943840 0.751900 0.826620 -0.516197
O27   O     O_R   0.545410 0.050140 0.168240 -0.473948
O28   O     O_R   0.454590 0.050140 0.831760 -0.473401
O29   O     O_R   0.045410 0.550140 0.168240 -0.473948
O30   O     O_R   0.954590 0.550140 0.831760 -0.473401
O31   O     O_R   0.681530 0.958350 0.176970 -0.510247
O32   O     O_R   0.318470 0.958350 0.823030 -0.511768
O33   O     O_R   0.181530 0.458350 0.176970 -0.510248
O34   O     O_R   0.711810 0.543000 0.827480 -0.513668
O35   O     O_R   0.818470 0.458350 0.823030 -0.511769
O36   O     O_R   0.788610 0.044480 0.334450 -0.531713
O37   O     O_R   0.211390 0.044480 0.665550 -0.527461
O38   O     O_R   0.288610 0.544480 0.334450 -0.531713
O39   O     O_R   0.711390 0.544480 0.665550 -0.527462
O40   O     O_R   0.766630 0.293670 0.326970 -0.481724
O41   O     O_R   0.233370 0.293670 0.673030 -0.500109
O42   O     O_R   0.266630 0.793670 0.326970 -0.481724
O43   O     O_R   0.733370 0.793670 0.673030 -0.500110
O44   O     O_R   0.670730 0.410640 0.330640 -0.542207
O45   O     O_R   0.556550 0.253260 0.323480 -0.498021
O46   O     O_R   0.329270 0.410640 0.669360 -0.525414
O47   O     O_R   0.170730 0.910640 0.330640 -0.542207
O48   O     O_R   0.829270 0.910640 0.669360 -0.525414
O49   O     O_R   0.443450 0.253260 0.676520 -0.507853
O50   O     O_R   0.056550 0.753260 0.323480 -0.498020
O51   O     O_R   0.943450 0.753260 0.676520 -0.507853
O52   O     O_R   0.545830 0.051610 0.330160 -0.519713

loop_
_geom_bond_atom_site_label_1
_geom_bond_atom_site_label_2
_ccdc_geom_bond_type
C33   O8    A    
C23   O47   A    
Cr2   O10   S    
C28   O50   A    
C26   O52   A    
Cr1   O9    S    
C36   C43   S    
C47   C119  S    
C37   C38   S    
C45   C83   S    
C135  H19   S    
Cr9   O46   S    
Cr4   O4    S    
Cr5   O41   S    
C3    C120  A    
C76   C80   A    
C29   O4    A    
C87   C131  S    
Cr5   O10   S    
C129  O31   A    
C16   H35   S    
C33   O39   A    
Cr11  O48   S    
C5    C139  A    
Cr12  O27   S    
C106  H4    S    
C86   C97   S    
C88   C132  S    
C115  C120  A    
C41   C119  S    
C3    C7    A    
C18   C31   S    
C7    H26   S    
C55   H44   S    
C26   C91   S    
C70   C72   A    
C9    C14   A    
C137  H21   S    
C43   C81   S    
C104  C111  A    
C19   C123  A    
C21   O44   A    
C54   C89   A    
C129  O1    A    
C16   C124  A    
C42   C108  S    
C80   H65   S    
C105  C107  A    
C114  C118  A    
C97   H41   S    
C18   C122  A    
C23   O42   A    
C104  H2    S    
C90   C94   A    
Cr6   O11   S    
C19   C32   S    
Cr9   O24   S    
C92   C96   A    
C111  H8    S    
C28   C93   S    
C83   O25   A    
C38   C42   S    
C2    C60   A    
C118  C123  A    
Cr10  O50   S    
C5    C9    A    
C113  C117  A    
C127  C136  A    
C4    H22   S    
Cr5   O15   S    
C109  H6    S    
C22   O46   A    
C48   C52   A    
Cr3   O7    S    
C74   C79   A    
C108  H42   S    
C55   C85   A    
C125  C134  A    
C8    C12   A    
C35   C63   A    
C107  H5    S    
Cr10  O11   S    
C134  H18   S    
C51   C87   A    
Cr8   O9    S    
C27   O2    A    
Cr4   O8    S    
C118  C140  A    
C131  O32   A    
Br2   C65   S    
C12   C121  A    
Cr12  O5    S    
C36   C40   S    
C34   C44   S    
C93   C98   A    
Cr12  O31   S    
C136  H20   S    
C35   C50   A    
C120  C124  A    
C22   O41   A    
C93   C101  A    
C126  H10   S    
C2    C64   S    
C48   C66   A    
C90   C100  A    
C96   C105  A    
C18   C126  A    
Cr1   O36   S    
C74   H58   S    
C113  C135  A    
C26   O45   A    
C7    C11   A    
C29   C92   S    
C42   H34   S    
C114  C136  A    
C126  C135  A    
C21   C115  S    
C13   C48   A    
Cr5   O37   S    
Cr11  O26   S    
C91   C99   A    
C110  C111  A    
C76   H59   S    
C112  C134  A    
C36   H37   S    
Cr11  O21   S    
C117  C122  A    
C82   O28   A    
C11   C16   A    
Cr7   O13   S    
C11   H30   S    
Cr10  O20   S    
C25   O43   A    
Cr5   O12   S    
C85   C129  S    
C1    O14   A    
C58   C62   A    
C19   C127  A    
Cr4   O13   S    
C59   C130  A    
C69   H54   S    
Br3   C66   S    
C116  C138  A    
C108  C119  S    
Cr11  O51   S    
C6    C10   A    
C67   C69   A    
C21   O40   A    
C40   H12   S    
C116  C121  A    
C84   O30   A    
C17   C30   S    
C29   O51   A    
C133  O34   A    
Cr1   O1    S    
C42   C47   S    
C71   H57   S    
Cr8   O44   S    
C94   C103  A    
C112  C116  A    
C132  O23   A    
Cr2   O28   S    
Cr6   O23   S    
C32   O38   A    
Cr3   O33   S    
C49   C67   A    
C24   C62   A    
C39   C97   S    
C103  C110  A    
Cr8   O18   S    
C37   H38   S    
C95   C104  A    
C54   C80   A    
Cr7   O17   S    
C1    C24   S    
C62   H52   S    
C20   C128  A    
C68   H53   S    
C28   O3    A    
C41   C45   S    
Cr12  O9    S    
C4    C8    A    
C9    H28   S    
C58   H48   S    
Cr1   O14   S    
C34   C39   S    
Cr1   O40   S    
C96   C98   A    
C20   C33   S    
C30   O36   A    
C107  C109  A    
C63   C70   A    
C6    C140  A    
C2    C46   A    
C51   C78   A    
C71   C73   A    
C106  C109  A    
C17   C125  A    
C53   O15   A    
C133  O35   A    
C15   H33   S    
C117  C139  A    
C82   O24   A    
C56   H46   S    
C25   C112  S    
Cr6   O38   S    
C81   O27   A    
Cr6   O16   S    
C45   C108  S    
C64   O16   A    
C81   O22   A    
C1    O18   A    
C43   C86   S    
C44   C82   S    
C55   C59   A    
C98   C106  A    
C30   O5    A    
C128  H13   S    
C100  H56   S    
Cr4   O35   S    
C17   C121  A    
Cr10  O47   S    
C27   O49   A    
C78   H63   S    
C75   O21   A    
C99   C100  A    
C34   H36   S    
C40   C86   S    
C52   C79   A    
C84   O26   A    
C103  H68   S    
Cr2   O6    S    
C56   C87   A    
Cr7   O43   S    
C128  C137  A    
C10   H29   S    
C75   C130  S    
C92   C102  A    
Cr6   O42   S    
Cr3   O3    S    
Cr8   O45   S    
Cr2   O32   S    
C25   O48   A    
Cr8   O22   S    
C10   C15   A    
C46   C65   A    
C102  H67   S    
C22   C114  S    
Cr9   O10   S    
C39   H1    S    
C12   H31   S    
C72   C77   A    
C119  H43   S    
C66   C68   A    
C49   C54   A    
C57   C88   A    
C61   H51   S    
Cr10  O25   S    
Cr7   O39   S    
C27   C90   S    
Cr2   O2    S    
C101  C102  A    
C140  H16   S    
C13   C61   A    
C46   C51   A    
C125  H9    S    
C70   H55   S    
C56   C60   A    
C31   O6    A    
C5    H24   S    
C31   O37   A    
Cr9   O19   S    
C72   H60   S    
C139  H15   S    
C99   H45   S    
C53   O19   A    
Br4   C67   S    
Cr4   O30   S    
C57   H47   S    
C34   C36   S    
C79   H64   S    
C73   H61   S    
C110  H7    S    
C47   C84   S    
C60   H50   S    
C73   C78   A    
C64   O20   A    
C32   O7    A    
C115  C137  A    
C44   C97   S    
C3    H17   S    
C14   H32   S    
Br1   C63   S    
C69   C76   A    
Cr3   O29   S    
C50   C85   A    
C65   C71   A    
C91   C95   A    
C75   O17   A    
C57   C61   A    
C38   H39   S    
Cr12  O52   S    
C89   C133  S    
C41   H23   S    
C38   C45   S    
C127  H11   S    
C8    H27   S    
C105  H3    S    
C40   C44   S    
C83   O29   A    
C86   H40   S    
Cr11  O13   S    
C94   C95   A    
C59   H49   S    
C58   C89   A    
C68   C74   A    
C132  O33   A    
C20   C124  A    
C6    H25   S    
C37   C41   S    
C131  O12   A    
C37   C47   S    
C4    C138  A    
C23   C113  S    
C77   H62   S    
Cr9   O49   S    
C13   C53   S    
C52   C88   A    
C39   C43   S    
C15   C123  A    
C50   C77   A    
C14   C122  A    
C138  H14   S    
C101  H66   S    
Cr7   O34   S    
C24   C49   A    
C35   C130  A    
Cr3   O11   S    
