data_mof_unit_56048.cif
_audit_creation_date              2012-12-11T15:10:42-0500
_audit_creation_method            fapswitch 2.2
_symmetry_space_group_name_H-M    P1
_symmetry_Int_Tables_number       1
_space_group_crystal_system       triclinic
_cell_length_a                    21.134734
_cell_length_b                    7.238732
_cell_length_c                    18.269126
_cell_angle_alpha                 90.000073
_cell_angle_beta                  93.43943
_cell_angle_gamma                 90.000036
_cell_volume                      2789.93502528

loop_
_atom_site_label
_atom_site_type_symbol
_atom_type_description
_atom_site_fract_x
_atom_site_fract_y
_atom_site_fract_z
_atom_type_partial_charge
O1    O     O_R   0.448880 0.506250 0.415280 -0.527624
O2    O     O_R   0.551120 0.006250 0.584720 -0.527624
O3    O     O_R   0.434830 0.174000 0.557310 -0.521230
O4    O     O_R   0.565170 0.674000 0.442690 -0.521231
C1    C     C_R   0.417019 0.344577 0.579692 0.701828
C2    C     C_R   0.582981 0.844577 0.420308 0.701828
O5    O     O_R   0.441680 0.176440 0.414130 -0.525394
O6    O     O_R   0.558320 0.676440 0.585870 -0.525394
O7    O     O_R   0.558020 0.007570 0.440520 -0.511296
O8    O     O_R   0.441980 0.507570 0.559480 -0.511297
C3    C     C_R   0.428199 0.344800 0.388198 0.735035
C4    C     C_R   0.571801 0.844800 0.611802 0.735035
O9    O     O_3   0.538160 0.339670 0.508820 -0.367359
O10   O     O_3   0.461840 0.839670 0.491180 -0.367359
V1    V     V_3+5 0.492920 0.064260 0.498360 1.502258
V2    V     V_3+5 0.507080 0.564260 0.501640 1.502257
C5    C     C_R   0.875626 0.980087 0.688187 -0.161828
C6    C     C_R   0.124375 0.480098 0.311813 -0.161828
H1    H     H_    0.963673 0.007692 0.751733 0.107201
H2    H     H_    0.036327 0.507704 0.248267 0.107202
H3    H     H_    0.795618 0.976416 0.570987 0.122764
H4    H     H_    0.204383 0.476433 0.429012 0.122764
H5    H     H_    0.897618 0.008431 0.637283 0.114159
H6    H     H_    0.102383 0.508448 0.362716 0.114159
C7    C     C_R   0.886946 0.942368 0.819931 -0.038127
C8    C     C_R   0.113054 0.442370 0.180069 -0.038128
C9    C     C_R   0.581455 0.816192 0.747216 0.253608
C10   C     C_R   0.418544 0.316185 0.252784 0.253608
C11   C     C_R   0.616753 0.814265 0.814000 -0.117303
C12   C     C_R   0.383246 0.314255 0.186000 -0.117303
C13   C     C_R   0.681897 0.844857 0.817407 -0.211779
C14   C     C_R   0.318103 0.344850 0.182593 -0.211779
C15   C     C_R   0.714258 0.879399 0.753346 0.080888
C16   C     C_R   0.285742 0.379397 0.246654 0.080888
C17   C     C_R   0.677837 0.883230 0.684550 0.027752
C18   C     C_R   0.322163 0.383231 0.315450 0.027752
C19   C     C_R   0.781486 0.910254 0.755350 0.087684
C20   C     C_R   0.218514 0.410255 0.244650 0.087684
C21   C     C_R   0.810232 0.946330 0.688451 0.135559
C22   C     C_R   0.189769 0.446337 0.311549 0.135560
C23   C     C_R   0.773698 0.949341 0.622052 -0.195393
C24   C     C_R   0.226302 0.449353 0.377948 -0.195393
C25   C     C_R   0.708752 0.917898 0.619983 -0.173558
C26   C     C_R   0.291248 0.417906 0.380016 -0.173558
C27   C     C_R   0.821479 0.907493 0.821104 -0.210956
C28   C     C_R   0.178521 0.407490 0.178896 -0.210957
C29   C     C_R   0.913434 0.979305 0.753302 -0.165679
C30   C     C_R   0.086566 0.479313 0.246698 -0.165679
C31   C     C_R   0.611186 0.850775 0.681786 -0.146680
C32   C     C_R   0.388813 0.350774 0.318213 -0.146680
H7    H     H_    0.803391 0.880972 0.873990 0.097926
H8    H     H_    0.196609 0.380964 0.126010 0.097927
H9    H     H_    0.705516 0.840664 0.871261 0.130192
H10   H     H_    0.294483 0.340654 0.128739 0.130192
H11   H     H_    0.593436 0.788035 0.864153 0.164023
H12   H     H_    0.406563 0.288021 0.135847 0.164023
H13   H     H_    0.682853 0.921539 0.567042 0.098520
H14   H     H_    0.317147 0.421550 0.432958 0.098522
C33   C     C_1   0.864561 0.938956 0.132148 -0.204242
C34   C     C_1   0.135439 0.438955 0.867852 -0.204242
C35   C     C_1   0.821713 0.924925 0.175916 0.005006
C36   C     C_1   0.178287 0.424925 0.824084 0.005006
C37   C     C_1   0.771146 0.905830 0.228038 0.009953
C38   C     C_1   0.228854 0.405830 0.771962 0.009953
C39   C     C_1   0.728574 0.889203 0.272027 0.018479
C40   C     C_1   0.271426 0.389203 0.727973 0.018479
C41   C     C_1   0.678025 0.870056 0.324162 0.034964
C42   C     C_1   0.321975 0.370057 0.675838 0.034964
C43   C     C_1   0.635203 0.855961 0.367949 -0.152146
C44   C     C_1   0.364797 0.355961 0.632051 -0.152147
O11   O     O_R   0.058070 0.289240 0.940580 -0.520121
O12   O     O_R   0.941930 0.789240 0.059420 -0.520121
O13   O     O_R   0.058330 0.616740 0.085880 -0.531976
O14   O     O_R   0.941670 0.116740 0.914120 -0.531977
C45   C     C_R   0.072050 0.448751 0.111711 0.685097
C46   C     C_R   0.927950 0.948751 0.888289 0.685098
O15   O     O_R   0.065180 0.619040 0.942700 -0.521724
O16   O     O_R   0.934820 0.119040 0.057300 -0.521724
O17   O     O_R   0.948870 0.787780 0.915270 -0.529894
O18   O     O_R   0.051130 0.287780 0.084730 -0.529894
C47   C     C_R   0.083183 0.450327 0.920190 0.705021
C48   C     C_R   0.916817 0.950327 0.079810 0.705021
O19   O     O_3   0.961870 0.453310 0.991210 -0.365197
O20   O     O_3   0.038130 0.953310 0.008790 -0.365198
V3    V     V_3+5 0.007070 0.728770 0.001630 1.421527
V4    V     V_3+5 0.992930 0.228770 0.998370 1.421527
Br1   Br    Br    0.491882 0.770969 0.748012 -0.539939
Br2   Br    Br    0.508117 0.270958 0.251988 -0.539939

loop_
_geom_bond_atom_site_label_1
_geom_bond_atom_site_label_2
_ccdc_geom_bond_type
C2    C43   S    
C40   C42   S    
C37   C39   T    
C9    C11   A    
C23   C25   A    
O1    C3    A    
C46   O17   A    
O2    C4    A    
C2    O7    A    
O12   V3    S    
O3    V1    S    
C21   C23   A    
O5    C3    A    
C5    H5    S    
O14   C46   A    
C6    H6    S    
C20   C22   A    
H1    C29   S    
C27   H7    S    
C28   H8    S    
C34   C36   T    
C5    C21   A    
C35   C37   S    
C6    C22   A    
C36   C38   S    
C10   C32   A    
C26   H14   S    
C39   C41   S    
C10   Br2   S    
O18   V4    S    
C33   C48   S    
C17   C25   A    
C45   O18   A    
C7    C29   A    
C8    C30   A    
O16   V4    S    
O5    V1    S    
O15   V3    S    
O6    V2    S    
O13   C45   A    
C24   C26   A    
C14   H10   S    
C4    C31   S    
C33   C35   T    
O20   V3    S    
O4    C2    A    
C25   H13   S    
C11   H11   S    
C12   H12   S    
O14   V4    S    
C41   C43   T    
C14   C16   A    
O4    V2    S    
C17   C31   A    
C1    C44   S    
O11   V4    S    
C34   C47   S    
O16   C48   A    
O15   C47   A    
O6    C4    A    
C13   C15   A    
C8    C45   S    
O1    V2    S    
C13   H9    S    
C9    Br1   S    
O2    V1    S    
O13   V3    S    
H2    C30   S    
H3    C23   S    
C42   C44   T    
C18   C26   A    
C19   C27   A    
C7    C27   A    
O17   V3    S    
C18   C32   A    
C16   C20   A    
C5    C29   A    
O3    C1    A    
C6    C30   A    
C7    C46   S    
C10   C12   A    
O7    V1    S    
C1    O8    A    
C19   C21   A    
C3    C32   S    
O8    V2    S    
C12   C14   A    
H4    C24   S    
C22   C24   A    
C15   C17   A    
C16   C18   A    
C15   C19   A    
C20   C28   A    
C8    C28   A    
O19   V4    S    
C11   C13   A    
O9    V2    S    
O10   V1    S    
O12   C48   A    
C9    C31   A    
C38   C40   T    
O11   C47   A    
