data_mof_unit_43430.cif
_audit_creation_date              2012-12-10T17:50:39-0500
_audit_creation_method            fapswitch 2.2
_symmetry_space_group_name_H-M    P1
_symmetry_Int_Tables_number       1
_space_group_crystal_system       triclinic
_cell_length_a                    15.684599
_cell_length_b                    10.643451
_cell_length_c                    9.989547
_cell_angle_alpha                 90.637057
_cell_angle_beta                  89.028949
_cell_angle_gamma                 91.615332
_cell_volume                      1666.6410311

loop_
_atom_site_label
_atom_site_type_symbol
_atom_type_description
_atom_site_fract_x
_atom_site_fract_y
_atom_site_fract_z
_atom_type_partial_charge
C1    C     C_R   0.499035 0.261001 0.499814 0.938058
C2    C     C_R   0.276909 0.055191 0.631901 -0.147341
C3    C     C_R   0.277839 0.924763 0.633882 -0.138179
C4    C     C_R   0.338189 0.499217 0.500966 0.877219
C5    C     C_R   0.350782 0.862675 0.592011 -0.139651
C6    C     C_R   0.424738 0.931017 0.547972 0.045414
C7    C     C_R   0.424102 0.062246 0.547378 0.042403
C8    C     C_R   0.497670 0.128319 0.500668 -0.175090
C9    C     C_R   0.571722 0.068483 0.456986 0.141666
C10   C     C_R   0.570756 0.937949 0.450716 0.129874
C11   C     C_R   0.498480 0.871537 0.500137 -0.176842
C12   C     C_3   0.082767 0.496724 0.502450 0.215372
C13   C     C_R   0.360038 0.384118 0.135558 0.234913
C14   C     C_R   0.282545 0.379909 0.066508 -0.230472
C15   C     C_R   0.285405 0.367596 0.927389 0.208312
C16   C     C_R   0.500836 0.739030 0.500268 0.921488
C17   C     C_R   0.364039 0.386571 0.862352 -0.232769
C18   C     C_R   0.432476 0.445354 0.928576 0.112202
C19   C     C_R   0.431491 0.445445 0.072056 0.053537
C20   C     C_R   0.565419 0.551723 0.070174 -0.121791
C21   C     C_R   0.565235 0.552154 0.927636 -0.096782
C22   C     C_R   0.661866 0.501178 0.499025 0.934089
C23   C     C_3   0.971832 0.572644 0.599878 -0.163886
C24   C     C_3   0.968604 0.380240 0.517434 -0.173203
C25   C     C_3   0.028474 0.423004 0.400922 -0.165893
C26   C     C_1   0.249148 0.497815 0.503099 -0.200995
C27   C     C_1   0.751011 0.501506 0.496983 -0.186754
C28   C     C_3   0.024796 0.453926 0.618972 -0.169845
C29   C     C_3   0.647267 0.850340 0.259855 -0.777137
C30   C     C_3   0.303992 0.204112 0.270124 -0.827572
C31   C     C_3   0.159104 0.228571 0.902058 -0.839473
C32   C     C_3   0.700524 0.172497 0.535581 -0.812191
C33   C     C_3   0.917470 0.499007 0.498349 0.214584
C34   C     C_3   0.031616 0.615394 0.483389 -0.164642
C35   C     C_3   0.975510 0.541729 0.381850 -0.159842
C36   C     C_1   0.173714 0.496806 0.503596 -0.096044
C37   C     C_1   0.826476 0.500703 0.496820 -0.096994
C38   C     C_R   0.349239 0.123781 0.589776 -0.169971
H1    H     H_    0.054041 0.361839 0.319808 0.126244
H2    H     H_    0.219479 0.103199 0.660532 0.141720
H3    H     H_    0.347914 0.761157 0.592482 0.139590
H4    H     H_    0.700838 0.904945 0.440689 0.226237
H5    H     H_    0.662652 0.938942 0.206132 0.217706
H6    H     H_    0.585642 0.811453 0.222659 0.268580
H7    H     H_    0.697717 0.782138 0.235923 0.229581
H8    H     H_    0.619129 0.593842 0.122090 0.142583
H9    H     H_    0.426785 0.233934 0.197803 0.237093
H10   H     H_    0.327779 0.127861 0.332187 0.250293
H11   H     H_    0.273174 0.157547 0.182593 0.237573
H12   H     H_    0.221486 0.871419 0.665906 0.132947
H13   H     H_    0.256858 0.258383 0.329456 0.244294
H14   H     H_    0.220894 0.330358 0.750055 0.222041
H15   H     H_    0.109030 0.203766 0.828249 0.229026
H16   H     H_    0.126214 0.254622 0.997066 0.244442
H17   H     H_    0.198678 0.145081 0.917228 0.249026
H18   H     H_    0.946477 0.633891 0.681054 0.130655
H19   H     H_    0.047190 0.418119 0.715847 0.151882
H20   H     H_    0.681226 0.107904 0.341827 0.234224
H21   H     H_    0.756743 0.229545 0.500749 0.236993
H22   H     H_    0.723513 0.085995 0.582729 0.227693
H23   H     H_    0.223459 0.359329 0.120038 0.166180
H24   H     H_    0.664911 0.228120 0.611513 0.263545
H25   H     H_    0.371657 0.350647 0.763195 0.197858
H26   H     H_    0.618610 0.595411 0.873881 0.143108
H27   H     H_    0.940546 0.284217 0.531207 0.128942
H28   H     H_    0.953173 0.577611 0.284963 0.131029
H29   H     H_    0.059661 0.711441 0.469704 0.130201
H30   H     H_    0.344467 0.224540 0.584310 0.120572
N1    N     N_R   0.499210 0.498800 0.142780 -0.111098
N2    N     N_R   0.499180 0.498720 0.857170 -0.102417
N3    N     N_2   0.643525 0.871952 0.403262 -0.310921
N4    N     N_2   0.374869 0.285586 0.227364 -0.242220
N5    N     N_2   0.211496 0.332770 0.852499 -0.293365
N6    N     N_2   0.646913 0.140826 0.422931 -0.302283
O1    O     O_R   0.500000 0.316780 0.614690 -0.640777
O2    O     O_R   0.499990 0.316750 0.385360 -0.604074
O3    O     O_R   0.376780 0.500000 0.614650 -0.647856
O4    O     O_R   0.376770 0.499980 0.385310 -0.589783
O5    O     O_R   0.500010 0.683250 0.614640 -0.620246
O6    O     O_R   0.500000 0.683220 0.385310 -0.609716
O7    O     O_R   0.623230 0.500020 0.614690 -0.624914
O8    O     O_R   0.623220 0.500000 0.385350 -0.606747
Zn1   Zn    Zn3+2 0.500010 0.500020 0.653130 0.936649
Zn2   Zn    Zn3+2 0.499990 0.499980 0.346870 0.962137

loop_
_geom_bond_atom_site_label_1
_geom_bond_atom_site_label_2
_ccdc_geom_bond_type
C18   N2    A    
C30   H13   S    
C1    C8    S    
O6    Zn2   S    
O2    Zn2   S    
C23   H18   S    
C28   H19   S    
C25   H1    S    
C12   C28   S    
C22   O8    A    
C30   H10   S    
C18   C19   A    
C32   N6    S    
C5    C6    A    
C31   N5    S    
O3    Zn1   S    
C34   C35   S    
C21   H26   S    
C8    C9    A    
C23   C33   S    
C12   C36   S    
C9    C10   A    
C10   N3    S    
C13   C14   A    
C29   H5    S    
O7    Zn1   S    
C3    H12   S    
C13   C19   A    
C1    O1    A    
C22   O7    A    
C7    C8    A    
C24   C25   S    
H14   N5    S    
C6    C11   A    
C35   H28   S    
C14   H23   S    
C33   C37   S    
C29   H7    S    
C16   O6    A    
C4    O4    A    
C2    H2    S    
C11   C16   S    
C2    C38   A    
C4    C26   S    
C23   C34   S    
C17   C18   A    
C23   C28   S    
C31   H15   S    
N2    Zn1   S    
C24   H27   S    
C25   C35   S    
C26   C36   T    
C15   N5    S    
C30   H11   S    
C38   H30   S    
O8    Zn2   S    
C22   C27   S    
C29   H6    S    
C20   N1    A    
C19   N1    A    
C9    N6    S    
C32   H22   S    
C12   C34   S    
H20   N6    S    
C15   C17   A    
C5    H3    S    
C1    O2    A    
C24   C28   S    
C3    C5    A    
C34   H29   S    
C30   N4    S    
C6    C7    A    
C13   N4    S    
C21   N2    A    
C24   C33   S    
C12   C25   S    
C16   O5    A    
C2    C3    A    
C32   H24   S    
C4    O3    A    
N1    Zn2   S    
C17   H25   S    
O5    Zn1   S    
O1    Zn1   S    
C27   C37   T    
H4    N3    S    
C33   C35   S    
C7    C38   A    
C31   H16   S    
H9    N4    S    
C10   C11   A    
O4    Zn2   S    
C20   C21   A    
C14   C15   A    
C32   H21   S    
C31   H17   S    
C20   H8    S    
C29   N3    S    
