data_mof_unit_61043.cif
_audit_creation_date              2012-12-10T18:21:59-0500
_audit_creation_method            fapswitch 2.2
_symmetry_space_group_name_H-M    P1
_symmetry_Int_Tables_number       1
_space_group_crystal_system       triclinic
_cell_length_a                    23.424913
_cell_length_b                    23.425058
_cell_length_c                    51.773985
_cell_angle_alpha                 90.000265
_cell_angle_beta                  90.008894
_cell_angle_gamma                 90.001775
_cell_volume                      28409.9356199

loop_
_atom_site_label
_atom_site_type_symbol
_atom_type_description
_atom_site_fract_x
_atom_site_fract_y
_atom_site_fract_z
_atom_type_partial_charge
C1    C     C_R   0.999953 0.500016 0.179225 0.841510
C2    C     C_R   0.000302 0.447783 0.609571 0.190465
C3    C     C_1   0.687101 0.187096 0.250001 -0.004716
C4    C     C_1   0.812903 0.687100 0.749999 -0.005071
C5    C     C_1   0.187096 0.312900 0.250001 -0.004489
C6    C     C_1   0.687096 0.187100 0.750001 -0.005231
C7    C     C_1   0.312904 0.812900 0.249999 -0.004726
C8    C     C_1   0.231311 0.731312 0.250001 0.006310
C9    C     C_1   0.768689 0.268688 0.750000 0.005802
C10   C     C_1   0.268689 0.231312 0.250000 0.006462
C11   C     C_1   0.731311 0.768688 0.750000 0.006087
C12   C     C_1   0.768688 0.268688 0.249998 0.006371
C13   C     C_R   0.552231 0.999713 0.390431 0.190470
C14   C     C_1   0.231312 0.731311 0.750000 0.006313
C15   C     C_1   0.731312 0.768688 0.250001 0.006247
C16   C     C_1   0.268688 0.231311 0.749999 0.006785
C17   C     C_1   0.231313 0.268689 0.750000 0.006812
C18   C     C_1   0.768687 0.731311 0.250001 0.006319
C19   C     C_1   0.268687 0.768689 0.749999 0.006279
C20   C     C_1   0.731313 0.231311 0.249999 0.006388
C21   C     C_1   0.768689 0.731313 0.750000 0.006036
C22   C     C_1   0.231311 0.268688 0.250001 0.006551
C23   C     C_1   0.731311 0.231312 0.750001 0.005804
C24   C     C_R   0.552202 0.000320 0.609573 0.190458
C25   C     C_1   0.268689 0.768688 0.250000 0.006358
C26   C     C_R   0.449269 0.999261 0.054839 0.538328
C27   C     C_R   0.550984 0.000890 0.945162 0.537895
C28   C     C_R   0.992573 0.449225 0.054611 0.547688
C29   C     C_R   0.999688 0.551129 0.945188 0.540920
C30   C     C_R   0.550992 0.000824 0.054846 0.538164
C31   C     C_R   0.449261 0.999279 0.945157 0.538161
C32   C     C_R   0.998999 0.550696 0.054858 0.517920
C33   C     C_R   0.994599 0.449553 0.945251 0.545496
C34   C     C_R   0.949132 0.500007 0.554838 0.538042
C35   C     C_R   0.000304 0.552217 0.390429 0.190459
C36   C     C_R   0.050867 0.500008 0.445162 0.538043
C37   C     C_R   0.499996 0.949133 0.554841 0.538047
C38   C     C_R   0.499989 0.050868 0.445159 0.538039
C39   C     C_R   0.050868 0.499993 0.554845 0.538043
C40   C     C_R   0.949132 0.499993 0.445155 0.538043
C41   C     C_R   0.499973 0.050868 0.554841 0.538047
C42   C     C_R   0.500042 0.949133 0.445159 0.538041
C43   C     C_R   0.552349 0.000270 0.027490 -0.152785
C44   C     C_R   0.447927 0.998596 0.972511 -0.152825
C45   C     C_R   0.998798 0.552278 0.027499 -0.146266
C46   C     C_R   0.999698 0.552216 0.609571 0.190465
C47   C     C_R   0.988738 0.448495 0.972490 -0.172367
C48   C     C_R   0.447910 0.999861 0.027484 -0.152591
C49   C     C_R   0.552321 0.001589 0.972517 -0.152866
C50   C     C_R   0.986523 0.448643 0.027376 -0.182733
C51   C     C_R   0.997982 0.552580 0.972533 -0.150225
C52   C     C_R   0.052215 0.499358 0.527490 -0.152826
C53   C     C_R   0.947784 0.499357 0.472510 -0.152826
C54   C     C_R   0.500614 0.052216 0.527487 -0.152827
C55   C     C_R   0.500671 0.947786 0.472513 -0.152830
C56   C     C_R   0.947785 0.500642 0.527483 -0.152827
C57   C     C_R   0.447798 0.000288 0.390427 0.190453
C58   C     C_R   0.052215 0.500644 0.472517 -0.152827
C59   C     C_R   0.499369 0.947786 0.527486 -0.152827
C60   C     C_R   0.499345 0.052215 0.472513 -0.152829
C61   C     C_R   0.500129 0.000071 0.013743 -0.145231
C62   C     C_R   0.500126 0.000084 0.986258 -0.145070
C63   C     C_R   0.992402 0.500535 0.013699 -0.139775
C64   C     C_R   0.992747 0.500567 0.986238 -0.147381
C65   C     C_R   1.000000 0.500000 0.513742 -0.145230
C66   C     C_R   1.000000 0.500000 0.486257 -0.145231
C67   C     C_R   0.499996 0.000001 0.513742 -0.145233
C68   C     C_R   0.447769 0.999681 0.609568 0.190474
C69   C     C_R   0.500004 0.000001 0.486257 -0.145228
C70   C     C_R   0.604338 0.999907 0.013572 0.360263
C71   C     C_R   0.395983 0.996446 0.986428 0.361218
C72   C     C_R   0.004828 0.603980 0.013632 0.361350
C73   C     C_R   0.978038 0.397219 0.986276 0.402012
C74   C     C_R   0.395920 0.000274 0.013561 0.360296
C75   C     C_R   0.604267 0.003774 0.986439 0.360272
C76   C     C_R   0.975021 0.397769 0.013455 0.407054
C77   C     C_R   0.001185 0.604440 0.986486 0.357695
C78   C     C_R   0.104190 0.498081 0.513574 0.360267
C79   C     C_R   0.500370 0.947827 0.890436 0.190374
C80   C     C_R   0.895810 0.498080 0.486426 0.360268
C81   C     C_R   0.501874 0.104191 0.513567 0.360268
C82   C     C_R   0.501966 0.895812 0.486433 0.360270
C83   C     C_R   0.895810 0.501919 0.513559 0.360266
C84   C     C_R   0.104190 0.501921 0.486440 0.360268
C85   C     C_R   0.498117 0.895811 0.513566 0.360270
C86   C     C_R   0.498042 0.104189 0.486433 0.360268
C87   C     C_3   0.676005 0.942011 0.027155 0.171756
C88   C     C_3   0.731786 0.940001 0.042144 -0.774952
C89   C     C_3   0.326462 0.936043 0.972796 0.171040
C90   C     C_R   0.500979 0.947807 0.109568 0.190443
C91   C     C_3   0.270771 0.932069 0.957819 -0.772044
C92   C     C_3   0.070975 0.667959 0.027383 0.173049
C93   C     C_3   0.079685 0.723045 0.042405 -0.775710
C94   C     C_3   0.917079 0.336226 0.965386 0.154893
C95   C     C_3   0.916046 0.289580 0.944931 -0.755372
C96   C     C_3   0.324326 0.058217 0.027171 0.171215
C97   C     C_3   0.268584 0.060260 0.042181 -0.768032
C98   C     C_3   0.673684 0.064311 0.972832 0.172946
C99   C     C_3   0.729405 0.068398 0.957890 -0.779617
C100  C     C_3   0.903435 0.349870 0.034017 0.138212
C101  C     C_R   0.051392 0.500446 0.890648 0.192239
C102  C     C_3   0.883559 0.290239 0.041332 -0.782181
C103  C     C_3   0.949841 0.680923 0.972901 0.171319
C104  C     C_3   0.952762 0.736681 0.957929 -0.775335
C105  C     C_3   0.174760 0.438892 0.527190 0.172480
C106  C     C_3   0.230505 0.435880 0.542172 -0.777267
C107  C     C_3   0.825237 0.438890 0.472809 0.172478
C108  C     C_3   0.769491 0.435878 0.457828 -0.777267
C109  C     C_3   0.561028 0.174791 0.527186 0.172481
C110  C     C_3   0.564011 0.230537 0.542164 -0.777267
C111  C     C_3   0.561191 0.825271 0.472829 0.172477
C112  C     C_R   0.999986 0.499996 0.820774 0.841119
C113  C     C_R   0.050508 0.499181 0.109210 0.194177
C114  C     C_3   0.564232 0.769526 0.457852 -0.777265
C115  C     C_3   0.825240 0.561108 0.527167 0.172481
C116  C     C_3   0.769494 0.564120 0.542141 -0.777269
C117  C     C_3   0.174762 0.561111 0.472834 0.172482
C118  C     C_3   0.230508 0.564124 0.457860 -0.777267
C119  C     C_3   0.438954 0.825212 0.527170 0.172483
C120  C     C_3   0.435962 0.769466 0.542148 -0.777270
C121  C     C_3   0.438824 0.174730 0.472813 0.172477
C122  C     C_3   0.435791 0.230474 0.457835 -0.777264
C123  C     C_3   0.999034 0.390728 0.404124 -0.414897
C124  C     C_R   0.499819 0.052259 0.890422 0.190584
C125  C     C_3   0.057018 0.361331 0.402247 -0.828746
C126  C     C_3   0.000962 0.390727 0.595876 -0.414903
C127  C     C_3   0.942976 0.361330 0.597753 -0.828759
C128  C     C_3   0.609290 0.999071 0.404129 -0.414892
C129  C     C_3   0.638670 0.057065 0.402250 -0.828762
C130  C     C_3   0.609258 0.001000 0.595881 -0.414905
C131  C     C_3   0.638674 0.943026 0.597764 -0.828758
C132  C     C_3   0.000966 0.609273 0.404124 -0.414901
C133  C     C_3   0.942981 0.638669 0.402239 -0.828749
C134  C     C_3   0.999038 0.609272 0.595876 -0.414901
C135  C     C_R   0.499231 0.052228 0.109574 0.190147
C136  C     C_3   0.057024 0.638669 0.597760 -0.828767
C137  C     C_3   0.390742 0.000930 0.404119 -0.414903
C138  C     C_3   0.361362 0.942935 0.402237 -0.828756
C139  C     C_3   0.390711 0.999001 0.595871 -0.414886
C140  C     C_3   0.361292 0.056974 0.597752 -0.828767
C141  C     C_3   0.500420 0.890777 0.904139 -0.414612
C142  C     C_3   0.558779 0.862129 0.902276 -0.829345
C143  C     C_3   0.502341 0.890767 0.095869 -0.415244
C144  C     C_3   0.444733 0.860636 0.097752 -0.827372
C145  C     C_3   0.108206 0.500037 0.904550 -0.399224
C146  C     C_R   0.946964 0.499413 0.890288 0.187144
C147  C     C_3   0.138143 0.557688 0.902264 -0.829316
C148  C     C_3   0.107140 0.498808 0.095169 -0.413840
C149  C     C_3   0.135637 0.440371 0.096998 -0.818854
C150  C     C_3   0.499808 0.109329 0.904108 -0.417650
C151  C     C_3   0.441449 0.137984 0.902256 -0.823288
C152  C     C_3   0.497912 0.109278 0.095882 -0.414382
C153  C     C_3   0.555518 0.139401 0.097809 -0.828041
C154  C     C_3   0.889652 0.498880 0.903779 -0.411100
C155  C     C_3   0.861025 0.440579 0.901380 -0.863594
C156  C     C_3   0.888503 0.499260 0.096557 -0.404513
C157  C     C_R   0.946073 0.499413 0.109852 0.187250
C158  C     C_3   0.857186 0.442943 0.101037 -0.871088
C159  C     C_R   0.999656 0.448447 0.363252 -0.238941
C160  C     C_R   0.000342 0.448446 0.636748 -0.238940
C161  C     C_R   0.551566 0.999672 0.363255 -0.238942
C162  C     C_R   0.551542 0.000359 0.636750 -0.238921
C163  C     C_R   0.000344 0.551554 0.363252 -0.238933
C164  C     C_R   0.500004 0.000000 0.179234 0.841559
C165  C     C_R   0.999658 0.551554 0.636748 -0.238936
C166  C     C_R   0.448457 0.000328 0.363250 -0.238926
C167  C     C_R   0.448435 0.999642 0.636745 -0.238948
C168  C     C_R   0.500268 0.948469 0.863259 -0.238802
C169  C     C_R   0.500952 0.948462 0.136745 -0.238669
C170  C     C_R   0.051146 0.500303 0.863445 -0.238760
C171  C     C_R   0.050671 0.499345 0.136418 -0.239778
C172  C     C_R   0.499846 0.051578 0.863246 -0.238794
C173  C     C_R   0.499174 0.051557 0.136751 -0.238488
C174  C     C_R   0.948052 0.499561 0.863124 -0.236088
C175  C     C_R   0.500003 0.000002 0.820766 0.841515
C176  C     C_R   0.947608 0.500003 0.137011 -0.229693
C177  C     C_R   1.000000 0.500000 0.349474 -0.099979
C178  C     C_R   0.000000 0.500000 0.650526 -0.099993
C179  C     C_R   0.500010 0.000000 0.349474 -0.099991
C180  C     C_R   0.499990 0.000000 0.650526 -0.099997
C181  C     C_R   0.500035 0.000014 0.849474 -0.099908
C182  C     C_R   0.500039 0.000005 0.150526 -0.100005
C183  C     C_R   0.999789 0.499991 0.849498 -0.100952
C184  C     C_R   0.999523 0.499813 0.150500 -0.102286
C185  C     C_R   0.999999 0.500000 0.404240 0.234974
C186  C     C_R   0.499996 0.000000 0.679234 0.841387
C187  C     C_R   1.000000 0.500000 0.595760 0.234975
C188  C     C_R   0.500016 0.000000 0.404240 0.234977
C189  C     C_R   0.499984 0.000001 0.595760 0.234966
C190  C     C_R   0.500112 0.000053 0.904240 0.235212
C191  C     C_R   0.500124 0.000022 0.095761 0.234883
C192  C     C_R   0.998946 0.500077 0.904289 0.230935
C193  C     C_R   0.997864 0.499447 0.095699 0.230950
C194  C     C_R   0.895260 0.604738 0.250000 0.817406
C195  C     C_R   0.104740 0.395262 0.750000 0.817479
C196  C     C_R   0.395263 0.895261 0.249999 0.817497
C197  C     C_R   0.500004 1.000000 0.320766 0.841373
C198  C     C_R   0.604737 0.104739 0.750000 0.817206
C199  C     C_R   0.104737 0.395261 0.250001 0.817650
C200  C     C_R   0.895263 0.604739 0.749999 0.817318
C201  C     C_R   0.604740 0.104737 0.250001 0.817513
C202  C     C_R   0.395260 0.895262 0.749999 0.817483
C203  C     C_R   0.895263 0.395261 0.749999 0.817390
C204  C     C_R   0.104737 0.604738 0.250001 0.817210
C205  C     C_R   0.395260 0.104738 0.749999 0.817616
C206  C     C_R   0.604740 0.895262 0.250001 0.817363
C207  C     C_R   0.104740 0.604738 0.750001 0.817375
C208  C     C_R   0.000000 0.500000 0.679234 0.841385
C209  C     C_R   0.895260 0.395262 0.249999 0.817691
C210  C     C_R   0.604737 0.895261 0.750000 0.817326
C211  C     C_R   0.395263 0.104739 0.249999 0.817351
C212  C     C_1   0.149718 0.649723 0.250002 -0.173426
C213  C     C_1   0.850282 0.350277 0.749999 -0.173911
C214  C     C_1   0.350281 0.149723 0.249999 -0.173441
C215  C     C_1   0.649719 0.850277 0.750001 -0.173642
C216  C     C_1   0.850277 0.350281 0.249997 -0.173464
C217  C     C_1   0.149724 0.649718 0.750002 -0.173466
C218  C     C_1   0.649724 0.850281 0.250002 -0.173600
C219  C     C_R   1.000000 0.500000 0.320766 0.841339
C220  C     C_1   0.350276 0.149719 0.749998 -0.173288
C221  C     C_1   0.149724 0.350281 0.750001 -0.173074
C222  C     C_1   0.850275 0.649718 0.249999 -0.173426
C223  C     C_1   0.350276 0.850281 0.749998 -0.173519
C224  C     C_1   0.649724 0.149718 0.250001 -0.173440
C225  C     C_1   0.850281 0.649723 0.749999 -0.173749
C226  C     C_1   0.149718 0.350277 0.250001 -0.173212
C227  C     C_1   0.649718 0.149723 0.750001 -0.173770
C228  C     C_1   0.350282 0.850277 0.249999 -0.173409
C229  C     C_1   0.187097 0.687100 0.250002 -0.004823
C230  C     C_R   0.999695 0.447784 0.390429 0.190459
C231  C     C_1   0.812904 0.312900 0.749999 -0.005272
C232  C     C_1   0.312903 0.187100 0.249999 -0.004709
C233  C     C_1   0.687096 0.812900 0.750001 -0.004970
C234  C     C_1   0.812900 0.312903 0.249997 -0.004734
C235  C     C_1   0.187101 0.687096 0.750001 -0.004776
C236  C     C_1   0.687101 0.812903 0.250002 -0.004883
C237  C     C_1   0.312899 0.187097 0.749999 -0.004405
C238  C     C_1   0.187101 0.312903 0.750001 -0.004295
C239  C     C_1   0.812898 0.687096 0.250000 -0.004726
C240  C     C_1   0.312899 0.812903 0.749998 -0.004829
H1    H     H_    0.999182 0.408331 0.352826 0.170048
H2    H     H_    0.501855 0.908352 0.147169 0.170060
H3    H     H_    0.987778 0.395153 0.424838 0.206747
H4    H     H_    0.965833 0.362959 0.395320 0.205565
H5    H     H_    0.931677 0.353003 0.618241 0.254686
H6    H     H_    0.909421 0.388365 0.588808 0.294567
H7    H     H_    0.944521 0.319909 0.587350 0.242966
H8    H     H_    0.012217 0.395153 0.575161 0.206749
H9    H     H_    0.034161 0.362959 0.604679 0.205556
H10   H     H_    0.646991 0.068367 0.381761 0.254688
H11   H     H_    0.611625 0.090612 0.411191 0.294559
H12   H     H_    0.680092 0.055533 0.412655 0.242972
H13   H     H_    0.091400 0.500223 0.853133 0.170042
H14   H     H_    0.604869 0.987813 0.424844 0.206752
H15   H     H_    0.637067 0.965880 0.395329 0.205565
H16   H     H_    0.647006 0.931731 0.618254 0.254682
H17   H     H_    0.611648 0.909460 0.588820 0.294571
H18   H     H_    0.680093 0.944586 0.587363 0.242963
H19   H     H_    0.604827 0.012254 0.575166 0.206745
H20   H     H_    0.637016 0.034209 0.604684 0.205557
H21   H     H_    0.931683 0.646996 0.381749 0.254687
H22   H     H_    0.909425 0.611633 0.411179 0.294564
H23   H     H_    0.944528 0.680090 0.412642 0.242969
H24   H     H_    0.091068 0.499316 0.146623 0.169527
H25   H     H_    0.012221 0.604848 0.424840 0.206748
H26   H     H_    0.034166 0.637042 0.395325 0.205563
H27   H     H_    0.068325 0.646995 0.618250 0.254684
H28   H     H_    0.090578 0.611634 0.588820 0.294568
H29   H     H_    0.055479 0.680090 0.587358 0.242966
H30   H     H_    0.987781 0.604847 0.575160 0.206748
H31   H     H_    0.965839 0.637041 0.604675 0.205558
H32   H     H_    0.353038 0.931632 0.381747 0.254690
H33   H     H_    0.388410 0.909389 0.411181 0.294559
H34   H     H_    0.319942 0.944467 0.412638 0.242970
H35   H     H_    0.499857 0.091690 0.852815 0.170052
H36   H     H_    0.395166 0.012188 0.424834 0.206743
H37   H     H_    0.362962 0.034119 0.395316 0.205566
H38   H     H_    0.352962 0.068265 0.618242 0.254676
H39   H     H_    0.388316 0.090542 0.588813 0.294569
H40   H     H_    0.319872 0.055414 0.587346 0.242967
H41   H     H_    0.395138 0.987751 0.575155 0.206751
H42   H     H_    0.362955 0.965789 0.604669 0.205556
H43   H     H_    0.570205 0.853946 0.881790 0.254761
H44   H     H_    0.591974 0.889600 0.911227 0.294323
H45   H     H_    0.557755 0.820694 0.912681 0.243138
H46   H     H_    0.498244 0.091661 0.147179 0.170126
H47   H     H_    0.489093 0.895072 0.924851 0.206758
H48   H     H_    0.467585 0.862579 0.895334 0.205839
H49   H     H_    0.433558 0.852150 0.118241 0.254626
H50   H     H_    0.410828 0.887247 0.088818 0.294812
H51   H     H_    0.446795 0.819246 0.087343 0.243026
H52   H     H_    0.513528 0.895342 0.075153 0.206795
H53   H     H_    0.535893 0.863418 0.104667 0.205617
H54   H     H_    0.147113 0.567950 0.881720 0.252948
H55   H     H_    0.111205 0.591904 0.910728 0.297623
H56   H     H_    0.179282 0.556287 0.912900 0.245480
H57   H     H_    0.908080 0.499420 0.852581 0.170436
H58   H     H_    0.103299 0.489720 0.925347 0.217348
H59   H     H_    0.135856 0.466254 0.896139 0.208330
H60   H     H_    0.144449 0.429169 0.117458 0.253200
H61   H     H_    0.107739 0.407176 0.088318 0.295543
H62   H     H_    0.176730 0.441109 0.086318 0.244631
H63   H     H_    0.102268 0.509866 0.074455 0.210179
H64   H     H_    0.135696 0.531654 0.103725 0.204984
H65   H     H_    0.429978 0.146140 0.881772 0.254684
H66   H     H_    0.408271 0.110532 0.911226 0.294828
H67   H     H_    0.442504 0.179433 0.912649 0.243675
H68   H     H_    0.907818 0.500679 0.147678 0.171219
H69   H     H_    0.511182 0.105062 0.924818 0.207016
H70   H     H_    0.532627 0.137509 0.895285 0.205389
H71   H     H_    0.566639 0.147872 0.118307 0.254658
H72   H     H_    0.589443 0.112790 0.088895 0.294748
H73   H     H_    0.553490 0.180797 0.087403 0.243011
H74   H     H_    0.486780 0.104719 0.075158 0.206914
H75   H     H_    0.464339 0.136625 0.104661 0.205999
H76   H     H_    0.852043 0.430484 0.880820 0.260296
H77   H     H_    0.888888 0.406835 0.909614 0.284125
H78   H     H_    0.820021 0.440805 0.912134 0.241897
H79   H     H_    0.684158 0.925363 0.007347 0.153189
H80   H     H_    0.893557 0.509499 0.924586 0.199518
H81   H     H_    0.861610 0.532014 0.895106 0.207012
H82   H     H_    0.884508 0.406388 0.095266 0.281201
H83   H     H_    0.845468 0.438197 0.121705 0.260607
H84   H     H_    0.817456 0.442064 0.089344 0.243519
H85   H     H_    0.862236 0.535028 0.104148 0.211143
H86   H     H_    0.892414 0.506037 0.075429 0.202850
H87   H     H_    0.644649 0.913705 0.037079 0.128831
H88   H     H_    0.724928 0.955596 0.062165 0.275381
H89   H     H_    0.000815 0.408331 0.647173 0.170041
H90   H     H_    0.747840 0.895430 0.042918 0.193104
H91   H     H_    0.764237 0.967258 0.032522 0.252150
H92   H     H_    0.318947 0.919019 0.992591 0.153222
H93   H     H_    0.358813 0.908943 0.962838 0.128465
H94   H     H_    0.277030 0.947994 0.937811 0.275444
H95   H     H_    0.256347 0.886946 0.957007 0.192788
H96   H     H_    0.237362 0.958082 0.967474 0.252899
H97   H     H_    0.088679 0.674040 0.007611 0.153431
H98   H     H_    0.095134 0.633354 0.037344 0.128682
H99   H     H_    0.063200 0.718113 0.062395 0.275505
H100  H     H_    0.591680 0.999211 0.352831 0.170041
H101  H     H_    0.125882 0.733514 0.043265 0.193079
H102  H     H_    0.056696 0.758612 0.032753 0.252225
H103  H     H_    0.897262 0.375361 0.957003 0.111187
H104  H     H_    0.890693 0.321180 0.981756 0.130408
H105  H     H_    0.934254 0.249506 0.952909 0.254633
H106  H     H_    0.871356 0.281450 0.938785 0.183002
H107  H     H_    0.941290 0.302728 0.927799 0.284308
H108  H     H_    0.316148 0.074913 0.007372 0.155889
H109  H     H_    0.355737 0.086468 0.037097 0.129437
H110  H     H_    0.275472 0.044614 0.062192 0.274236
H111  H     H_    0.591660 0.000845 0.647177 0.170048
H112  H     H_    0.252584 0.104848 0.042980 0.196774
H113  H     H_    0.236077 0.033061 0.032559 0.252363
H114  H     H_    0.681122 0.081340 0.992633 0.152713
H115  H     H_    0.641307 0.091356 0.962856 0.127920
H116  H     H_    0.723223 0.052477 0.937876 0.275207
H117  H     H_    0.743751 0.113547 0.957095 0.190611
H118  H     H_    0.762837 0.042438 0.967563 0.252609
H119  H     H_    0.874594 0.366685 0.018699 0.063543
H120  H     H_    0.898466 0.377836 0.051142 0.167851
H121  H     H_    0.910234 0.273330 0.057334 0.272588
H122  H     H_    0.000818 0.591669 0.352827 0.170049
H123  H     H_    0.838345 0.291679 0.047744 0.194508
H124  H     H_    0.887072 0.261275 0.024424 0.249115
H125  H     H_    0.933916 0.690486 0.992701 0.153502
H126  H     H_    0.918929 0.652171 0.962950 0.129405
H127  H     H_    0.967773 0.728510 0.937919 0.275146
H128  H     H_    0.909766 0.756567 0.957125 0.193427
H129  H     H_    0.982712 0.766621 0.967584 0.251721
H130  H     H_    0.182582 0.422034 0.507391 0.153031
H131  H     H_    0.142886 0.411210 0.537137 0.128670
H132  H     H_    0.223957 0.451663 0.562184 0.275287
H133  H     H_    0.999185 0.591669 0.647173 0.170042
H134  H     H_    0.245721 0.391019 0.542971 0.193165
H135  H     H_    0.263455 0.462494 0.532528 0.251683
H136  H     H_    0.817413 0.422031 0.492609 0.153031
H137  H     H_    0.857109 0.411208 0.462863 0.128672
H138  H     H_    0.776040 0.451660 0.437816 0.275289
H139  H     H_    0.754273 0.391016 0.457029 0.193165
H140  H     H_    0.736543 0.462491 0.467472 0.251684
H141  H     H_    0.577887 0.182622 0.507388 0.153036
H142  H     H_    0.588723 0.142931 0.537137 0.128672
H143  H     H_    0.548229 0.223980 0.562175 0.275288
H144  H     H_    0.408340 0.000789 0.352823 0.170054
H145  H     H_    0.608866 0.245776 0.542967 0.193167
H146  H     H_    0.537384 0.263472 0.532516 0.251683
H147  H     H_    0.578050 0.817458 0.492630 0.153023
H148  H     H_    0.588860 0.857157 0.462882 0.128670
H149  H     H_    0.548450 0.776065 0.437837 0.275289
H150  H     H_    0.609102 0.754332 0.457058 0.193162
H151  H     H_    0.537632 0.736565 0.467495 0.251684
H152  H     H_    0.817418 0.577967 0.507366 0.153029
H153  H     H_    0.857114 0.588790 0.537118 0.128670
H154  H     H_    0.776042 0.548337 0.562153 0.275288
H155  H     H_    0.408320 0.999155 0.647169 0.170035
H156  H     H_    0.754279 0.608982 0.542938 0.193163
H157  H     H_    0.736545 0.537506 0.532492 0.251682
H158  H     H_    0.182586 0.577970 0.492634 0.153028
H159  H     H_    0.142890 0.588792 0.462883 0.128671
H160  H     H_    0.223959 0.548341 0.437847 0.275288
H161  H     H_    0.245726 0.608986 0.457063 0.193162
H162  H     H_    0.263456 0.537510 0.467508 0.251684
H163  H     H_    0.422105 0.817381 0.507368 0.153031
H164  H     H_    0.411255 0.857073 0.537115 0.128672
H165  H     H_    0.451734 0.776022 0.562162 0.275288
H166  H     H_    0.500231 0.908343 0.852839 0.170051
H167  H     H_    0.391106 0.754228 0.542939 0.193164
H168  H     H_    0.462593 0.736530 0.532505 0.251684
H169  H     H_    0.421955 0.182544 0.492611 0.153027
H170  H     H_    0.411160 0.142843 0.462861 0.128667
H171  H     H_    0.451583 0.223934 0.437825 0.275288
H172  H     H_    0.390922 0.245668 0.457031 0.193164
H173  H     H_    0.462386 0.263436 0.467485 0.251683
H174  H     H_    0.068317 0.353005 0.381758 0.254687
H175  H     H_    0.090575 0.388368 0.411191 0.294563
H176  H     H_    0.055472 0.319911 0.412650 0.242971
N1    N     N_R   0.500130 0.000031 0.067793 -0.363353
N2    N     N_R   0.500121 0.000074 0.932208 -0.363196
N3    N     N_R   0.996842 0.499731 0.067714 -0.361887
N4    N     N_R   0.998239 0.500247 0.932268 -0.363813
N5    N     N_R   1.000000 0.500000 0.567792 -0.363200
N6    N     N_R   1.000000 0.500000 0.432208 -0.363200
N7    N     N_R   0.499982 0.000001 0.567792 -0.363203
N8    N     N_R   0.500018 0.000000 0.432208 -0.363198
O1    O     O_3   0.000000 0.500000 0.250000 -0.425729
O2    O     O_R   0.044090 0.500000 0.807650 -0.640924
O3    O     O_R   0.500000 0.955910 0.192350 -0.641649
O4    O     O_R   0.500000 0.044090 0.807650 -0.641658
O5    O     O_R   0.544090 1.000000 0.692350 -0.641670
O6    O     O_R   0.455910 1.000000 0.307650 -0.641688
O7    O     O_R   1.000000 0.544090 0.692350 -0.641696
O8    O     O_R   0.000000 0.455910 0.307650 -0.641740
O9    O     O_R   0.455910 1.000000 0.692350 -0.641732
O10   O     O_R   0.544090 1.000000 0.307650 -0.641723
O11   O     O_R   1.000000 0.455910 0.692350 -0.641705
O12   O     O_3   0.000000 0.500000 0.750000 -0.425653
O13   O     O_R   1.000000 0.544090 0.307650 -0.641706
O14   O     O_R   0.893990 0.562090 0.235170 -0.625261
O15   O     O_R   0.106010 0.437910 0.764830 -0.624754
O16   O     O_R   0.437910 0.893990 0.235170 -0.625074
O17   O     O_R   0.562090 0.106010 0.764830 -0.625248
O18   O     O_R   0.106010 0.437910 0.235170 -0.624914
O19   O     O_R   0.893990 0.562090 0.764830 -0.625224
O20   O     O_R   0.562090 0.106010 0.235170 -0.625059
O21   O     O_R   0.437910 0.893990 0.764830 -0.625068
O22   O     O_R   0.893990 0.437910 0.764830 -0.625389
O23   O     O_3   0.500000 1.000000 0.250000 -0.425695
O24   O     O_R   0.106010 0.562090 0.235170 -0.625119
O25   O     O_R   0.437910 0.106010 0.764830 -0.624979
O26   O     O_R   0.562090 0.893990 0.235170 -0.625191
O27   O     O_R   0.106010 0.562090 0.764830 -0.625055
O28   O     O_R   0.893990 0.437910 0.235170 -0.625097
O29   O     O_R   0.562090 0.893990 0.764830 -0.625207
O30   O     O_R   0.437910 0.106010 0.235170 -0.625141
O31   O     O_R   0.393990 0.062090 0.735170 -0.625179
O32   O     O_R   0.606010 0.937910 0.264830 -0.625174
O33   O     O_R   0.937910 0.393990 0.735170 -0.625026
O34   O     O_3   0.500000 1.000000 0.750000 -0.425661
O35   O     O_R   0.062090 0.606010 0.264830 -0.625237
O36   O     O_R   0.606010 0.937910 0.735170 -0.625128
O37   O     O_R   0.393990 0.062090 0.264830 -0.625173
O38   O     O_R   0.062090 0.606010 0.735170 -0.625182
O39   O     O_R   0.937910 0.393990 0.264830 -0.625144
O40   O     O_R   0.393990 0.937910 0.264830 -0.625128
O41   O     O_R   0.606010 0.062090 0.735170 -0.625170
O42   O     O_R   0.937910 0.606010 0.264830 -0.625126
O43   O     O_R   0.062090 0.393990 0.735170 -0.625333
O44   O     O_R   0.606010 0.062090 0.264830 -0.625160
O45   O     O_R   0.044090 0.500000 0.192350 -0.640772
O46   O     O_R   0.393990 0.937910 0.735170 -0.625197
O47   O     O_R   0.062090 0.393990 0.264830 -0.625164
O48   O     O_R   0.937910 0.606010 0.735170 -0.625166
O49   O     O_2   0.400324 0.997847 0.068534 -0.528594
O50   O     O_2   0.599950 0.000943 0.931468 -0.528793
O51   O     O_2   0.995249 0.399831 0.067939 -0.529764
O52   O     O_2   0.003177 0.599955 0.931485 -0.530343
O53   O     O_2   0.599937 0.002215 0.068548 -0.528712
O54   O     O_2   0.400292 0.999225 0.931457 -0.527709
O55   O     O_2   0.001470 0.599487 0.068640 -0.523941
O56   O     O_R   0.955910 0.500000 0.807650 -0.642145
O57   O     O_2   0.997230 0.400502 0.931714 -0.533903
O58   O     O_2   0.900171 0.499326 0.568533 -0.528801
O59   O     O_2   0.099828 0.499329 0.431467 -0.528802
O60   O     O_2   0.500690 0.900173 0.568539 -0.528804
O61   O     O_2   0.500655 0.099829 0.431461 -0.528798
O62   O     O_2   0.099829 0.500673 0.568546 -0.528804
O63   O     O_2   0.900170 0.500672 0.431453 -0.528802
O64   O     O_2   0.499272 0.099829 0.568540 -0.528802
O65   O     O_2   0.499383 0.900172 0.431460 -0.528799
O66   O     O_3   0.656210 0.998938 0.026339 -0.561660
O67   O     O_R   0.500000 0.044090 0.192350 -0.641610
O68   O     O_3   0.344176 0.993650 0.973661 -0.560608
O69   O     O_3   0.012052 0.655298 0.026447 -0.560918
O70   O     O_3   0.974009 0.345260 0.973568 -0.529842
O71   O     O_3   0.344051 0.001268 0.026323 -0.562459
O72   O     O_3   0.656068 0.006672 0.973680 -0.561433
O73   O     O_3   0.961254 0.347422 0.026004 -0.534496
O74   O     O_3   0.004809 0.656214 0.973741 -0.561987
O75   O     O_3   0.156035 0.496179 0.526342 -0.561781
O76   O     O_3   0.843964 0.496177 0.473658 -0.561781
O77   O     O_3   0.503750 0.156037 0.526332 -0.561781
O78   O     O_R   0.500000 0.955910 0.807650 -0.641663
O79   O     O_3   0.503895 0.843968 0.473669 -0.561779
O80   O     O_3   0.843964 0.503821 0.526320 -0.561781
O81   O     O_3   0.156035 0.503824 0.473680 -0.561781
O82   O     O_3   0.496234 0.843964 0.526330 -0.561780
O83   O     O_3   0.496120 0.156033 0.473669 -0.561781
O84   O     O_R   0.955910 0.500000 0.192350 -0.642194
Zn1   Zn    Zn3+2 0.000000 0.563030 0.272130 0.985369
Zn2   Zn    Zn3+2 0.500000 0.936970 0.227870 0.985644
Zn3   Zn    Zn3+2 0.936970 0.500000 0.772130 0.984979
Zn4   Zn    Zn3+2 0.063030 0.500000 0.227870 0.986252
Zn5   Zn    Zn3+2 0.500000 0.936970 0.772130 0.985575
Zn6   Zn    Zn3+2 0.500000 0.063030 0.227870 0.985729
Zn7   Zn    Zn3+2 0.063030 0.500000 0.772130 0.986314
Zn8   Zn    Zn3+2 0.936970 0.500000 0.227870 0.985610
Zn9   Zn    Zn3+2 0.000000 0.436970 0.727870 0.985479
Zn10  Zn    Zn3+2 0.436970 1.000000 0.272130 0.985496
Zn11  Zn    Zn3+2 0.563030 1.000000 0.727870 0.985369
Zn12  Zn    Zn3+2 0.000000 0.436970 0.272130 0.985666
Zn13  Zn    Zn3+2 0.000000 0.563030 0.727870 0.985416
Zn14  Zn    Zn3+2 0.563030 1.000000 0.272130 0.985477
Zn15  Zn    Zn3+2 0.436970 1.000000 0.727870 0.985541
Zn16  Zn    Zn3+2 0.500000 0.063030 0.772130 0.985627

loop_
_geom_bond_atom_site_label_1
_geom_bond_atom_site_label_2
_ccdc_geom_bond_type
C196  O40   A    
C166  H144  S    
C196  C228  S    
C205  C220  S    
C34   C56   A    
C126  C127  S    
C194  O42   A    
C32   C45   A    
C215  C233  T    
C169  H2    S    
C146  C192  A    
O34   Zn11  S    
C114  H150  S    
C138  H32   S    
C198  C227  S    
O39   Zn12  S    
C3    C224  T    
C138  H34   S    
C136  H27   S    
C157  C193  A    
C135  C173  A    
C28   O51   S    
C1    O45   A    
C148  H63   S    
C143  C144  S    
C128  H15   S    
C165  H133  S    
C96   H109  S    
O23   Zn6   S    
C88   H90   S    
O12   Zn7   S    
C105  H131  S    
C189  N7    S    
C178  C208  S    
C125  H175  S    
O2    Zn7   S    
C141  H48   S    
C90   C143  S    
C194  C222  S    
C193  N3    S    
O32   Zn14  S    
C167  C180  A    
O44   Zn14  S    
C73   O70   S    
C80   C83   A    
C14   C19   T    
O36   Zn11  S    
C203  C213  S    
C110  H146  S    
C144  H51   S    
C207  C217  S    
C186  O5    A    
C197  O6    A    
C139  H41   S    
C199  O18   A    
C104  H129  S    
O23   Zn2   S    
C48   C74   A    
O29   Zn5   S    
C47   C64   A    
C195  C221  S    
C60   C86   A    
O31   Zn15  S    
C57   C166  A    
C35   C163  A    
C100  O73   S    
O18   Zn4   S    
C50   C76   A    
C42   C55   A    
C46   C134  S    
C207  O38   A    
C94   H104  S    
C158  H83   S    
C146  C154  S    
C6    C227  T    
C53   C80   A    
C10   C232  S    
C101  C170  A    
C211  O37   A    
C4    C225  T    
C209  O28   A    
C38   N8    A    
C160  C178  A    
C154  C155  S    
C121  H169  S    
C117  H159  S    
C219  O8    A    
C118  H160  S    
C33   C47   A    
C30   C43   A    
C98   O72   S    
C93   H101  S    
C149  H60   S    
C172  H35   S    
C43   C61   A    
C56   C83   A    
C151  H67   S    
C70   O66   S    
C176  C184  A    
C49   C62   A    
C201  O44   A    
O25   Zn16  S    
C202  C223  S    
C94   O70   S    
C29   O52   S    
C112  O2    A    
C51   C64   A    
C130  H20   S    
C139  C140  S    
C145  H59   S    
C102  H124  S    
C155  H78   S    
C82   C85   A    
C110  H143  S    
C180  C186  S    
C156  C158  S    
C130  C131  S    
C31   N2    A    
C85   O82   S    
O12   Zn9   S    
C29   N4    A    
C188  N8    S    
C68   C189  A    
C146  C174  A    
C105  O75   S    
C30   O53   S    
C169  C182  A    
C120  H168  S    
C218  C236  T    
C77   O74   S    
C118  H162  S    
C33   N4    A    
C39   O62   S    
C98   C99   S    
O45   Zn4   S    
C210  C215  S    
C35   C132  S    
C54   C81   A    
C156  H86   S    
C52   C65   A    
C153  H71   S    
O56   Zn3   S    
C106  H132  S    
C11   C233  S    
C15   C18   T    
C95   H107  S    
C129  H11   S    
C46   C165  A    
C31   O54   S    
C112  O56   A    
C140  H40   S    
C41   O64   S    
C209  O39   A    
C128  C129  S    
O7    Zn13  S    
C36   N6    A    
C40   O63   S    
C133  H21   S    
C185  C230  A    
C137  H37   S    
C126  H9    S    
C113  C148  S    
C109  H141  S    
C167  H155  S    
C107  O76   S    
C147  H56   S    
C107  H137  S    
C108  H139  S    
C135  C152  S    
O38   Zn13  S    
C222  C239  T    
C176  H68   S    
C32   O55   S    
C210  O29   A    
C2    C187  A    
C59   C67   A    
C132  H25   S    
C122  H172  S    
C172  C181  A    
O8    Zn12  S    
O24   Zn4   S    
C15   C236  S    
C128  H14   S    
C107  C108  S    
C49   C75   A    
C89   C91   S    
C202  O21   A    
O34   Zn15  S    
C162  C180  A    
C213  C231  T    
C87   H87   S    
C175  C181  S    
C142  H44   S    
C150  H70   S    
C211  O30   A    
C50   C63   A    
C205  O31   A    
O1    Zn4   S    
C94   C95   S    
C177  C219  S    
C14   C235  S    
C122  H173  S    
O41   Zn11  S    
C155  H76   S    
C219  O13   A    
C92   O69   S    
O43   Zn9   S    
C116  H157  S    
O23   Zn10  S    
C111  H148  S    
C99   H118  S    
C97   H110  S    
C191  N1    S    
C9    C23   T    
C164  O3    A    
C30   N1    A    
C144  H50   S    
C11   C21   T    
C78   C84   A    
C59   C85   A    
O6    Zn10  S    
C131  H18   S    
C8    C229  S    
C1    O84   A    
C57   C137  S    
C127  H6    S    
C55   C69   A    
C92   H97   S    
C37   C59   A    
C87   O66   S    
C153  H73   S    
C82   O79   S    
C38   C60   A    
C95   H105  S    
C168  C181  A    
C186  O9    A    
C33   O57   S    
C27   N2    A    
C46   C187  A    
C100  H120  S    
C29   C51   A    
C74   O71   S    
C133  H23   S    
C198  O41   A    
C170  H13   S    
O47   Zn12  S    
C175  O78   A    
C81   C86   A    
C150  H69   S    
C98   H114  S    
C83   O80   S    
C114  H151  S    
O10   Zn14  S    
C147  H54   S    
C134  H30   S    
C40   N6    A    
C103  H125  S    
C136  H28   S    
C175  O4    A    
O4    Zn16  S    
O78   Zn5   S    
C117  C118  S    
C164  O67   A    
C212  C229  T    
C75   O72   S    
C79   C141  S    
C123  C230  S    
C60   C69   A    
O67   Zn6   S    
C90   C169  A    
C76   O73   S    
C116  H154  S    
C61   C62   A    
C199  C226  S    
O48   Zn13  S    
C142  H45   S    
C63   C64   A    
C24   C130  S    
C105  H130  S    
C211  C214  S    
C207  O27   A    
C152  C153  S    
C87   H79   S    
C119  O82   S    
C70   C75   A    
C205  O25   A    
C125  H174  S    
C143  H53   S    
C198  O17   A    
C119  H164  S    
C141  H47   S    
C80   O76   S    
O35   Zn1   S    
C87   C88   S    
C195  O43   A    
C216  C234  T    
C99   H116  S    
C97   H112  S    
C214  C232  T    
C88   H88   S    
C124  C190  A    
O12   Zn13  S    
C71   O68   S    
C10   C22   T    
C206  O32   A    
C152  H75   S    
C123  C125  S    
C208  O11   A    
C203  O22   A    
C86   O83   S    
C84   O81   S    
C158  H84   S    
C173  H46   S    
C108  H138  S    
C16   C17   T    
C163  C177  A    
C104  H127  S    
C200  O19   A    
C136  H29   S    
O16   Zn2   S    
C197  O10   A    
C26   N1    A    
C78   O75   S    
C26   C48   A    
C17   C238  S    
C117  H158  S    
C8    C25   T    
C217  C235  T    
C52   C78   A    
C41   N7    A    
C123  H3    S    
C145  C147  S    
C114  H149  S    
C112  C183  S    
C151  H65   S    
C138  H33   S    
O1    Zn1   S    
C171  C184  A    
C91   H94   S    
C47   C73   A    
C27   O50   S    
C145  H58   S    
C196  O16   A    
C155  H77   S    
C202  O46   A    
C208  O7    A    
C116  H156  S    
C93   H99   S    
C51   C77   A    
O42   Zn1   S    
C140  H38   S    
C142  H43   S    
C101  C145  S    
C125  H176  S    
C3    C20   S    
C210  O36   A    
C135  C191  A    
C120  H165  S    
C103  H126  S    
C199  O47   A    
C89   O68   S    
O22   Zn3   S    
C73   C76   A    
C220  C237  T    
C121  O83   S    
C127  H7    S    
C115  H152  S    
C32   N3    A    
C162  H111  S    
O84   Zn8   S    
C110  H145  S    
C124  C150  S    
C129  H10   S    
C151  H66   S    
C139  H42   S    
C131  H16   S    
C113  C193  A    
O27   Zn7   S    
C174  C183  A    
C71   C74   A    
C119  C120  S    
C174  H57   S    
C34   N5    A    
C105  C106  S    
C137  H36   S    
C7    C25   S    
O21   Zn5   S    
C221  C238  T    
C192  N4    S    
C109  O77   S    
C109  C110  S    
C106  H134  S    
O11   Zn9   S    
C94   H103  S    
C158  H82   S    
C147  H55   S    
C108  H140  S    
O3    Zn2   S    
C92   C93   S    
C161  H100  S    
C91   H96   S    
C111  C114  S    
C171  H24   S    
O5    Zn11  S    
C164  C182  S    
C121  H170  S    
C132  H26   S    
C149  H62   S    
O37   Zn10  S    
O20   Zn6   S    
C103  C104  S    
C68   C139  S    
C93   H102  S    
C19   C240  S    
O34   Zn16  S    
C159  H1    S    
C115  C116  S    
C39   N5    A    
C170  C183  A    
C187  N5    S    
C101  C192  A    
C89   H92   S    
C130  H19   S    
C194  O14   A    
C102  H123  S    
C113  C171  A    
C163  H122  S    
C148  H64   S    
C206  C218  S    
C12   C234  S    
O46   Zn15  S    
C111  H147  S    
C156  C157  S    
C99   H117  S    
O33   Zn9   S    
C36   O59   S    
C36   C58   A    
C223  C240  T    
O9    Zn15  S    
C88   H91   S    
C106  H135  S    
C96   O71   S    
C7    C228  T    
C56   C65   A    
C107  H136  S    
O40   Zn10  S    
C5    C226  T    
C44   C71   A    
C152  H74   S    
C115  O80   S    
O28   Zn8   S    
O1    Zn8   S    
C120  H167  S    
C185  N6    S    
C131  H17   S    
C13   C128  S    
C28   C50   A    
C58   C66   A    
C118  H161  S    
C5    C22   S    
C42   N8    A    
C132  C133  S    
C57   C188  A    
C79   C190  A    
C124  C172  A    
C24   C189  A    
C127  H5    S    
C79   C168  A    
C92   H98   S    
C156  H85   S    
C153  H72   S    
C39   C52   A    
C129  H12   S    
C168  H166  S    
C13   C188  A    
C45   C72   A    
C12   C20   T    
C165  C178  A    
C140  H39   S    
C204  C212  S    
C195  O15   A    
C159  C177  A    
C123  H4    S    
C200  O48   A    
C1    C184  S    
C90   C191  A    
C133  H22   S    
C209  C216  S    
C31   C44   A    
C126  H8    S    
C159  C230  A    
C109  H142  S    
C201  O20   A    
C148  C149  S    
C111  O79   S    
C98   H115  S    
O34   Zn5   S    
C154  H80   S    
C72   O69   S    
C134  C136  S    
C54   C67   A    
C179  C197  S    
C44   C62   A    
C134  H31   S    
C45   C63   A    
O1    Zn12  S    
C89   H93   S    
O26   Zn2   S    
C28   N3    A    
C67   C69   A    
C91   H95   S    
C72   C77   A    
C58   C84   A    
C122  H171  S    
C143  H52   S    
C97   H113  S    
C35   C185  A    
C96   C97   S    
C100  C102  S    
C121  C122  S    
C37   N7    A    
C55   C82   A    
C53   C66   A    
C190  N2    S    
O13   Zn1   S    
C204  O24   A    
C2    C126  S    
C2    C160  A    
C34   O58   S    
C16   C237  S    
C40   C53   A    
C43   C70   A    
O15   Zn7   S    
C42   O65   S    
C161  C179  A    
C119  H163  S    
O30   Zn6   S    
C103  O74   S    
C18   C239  S    
C102  H121  S    
C160  H89   S    
C96   H108  S    
C37   O60   S    
C24   C162  A    
C115  H153  S    
C157  C176  A    
C173  C182  A    
C13   C161  A    
C144  H49   S    
O14   Zn8   S    
C137  C138  S    
C149  H61   S    
C150  C151  S    
C81   O77   S    
C9    C231  S    
C203  O33   A    
C204  O35   A    
C141  C142  S    
C26   O49   S    
C4    C21   S    
C48   C61   A    
C6    C23   S    
O23   Zn14  S    
O12   Zn3   S    
C38   O61   S    
C200  C225  S    
C41   C54   A    
C68   C167  A    
C27   C49   A    
C95   H106  S    
C65   C66   A    
C206  O26   A    
C104  H128  S    
C117  O81   S    
C166  C179  A    
C201  C224  S    
C154  H81   S    
O19   Zn3   S    
C100  H119  S    
O17   Zn16  S    
