data_mof_unit_13483.cif
_audit_creation_date              2012-12-11T16:06:26-0500
_audit_creation_method            fapswitch 2.2
_symmetry_space_group_name_H-M    P1
_symmetry_Int_Tables_number       1
_space_group_crystal_system       triclinic
_cell_length_a                    7.310581
_cell_length_b                    14.798224
_cell_length_c                    15.713916
_cell_angle_alpha                 89.999931
_cell_angle_beta                  90.000064
_cell_angle_gamma                 90.00005
_cell_volume                      1699.98824195

loop_
_atom_site_label
_atom_site_type_symbol
_atom_type_description
_atom_site_fract_x
_atom_site_fract_y
_atom_site_fract_z
_atom_type_partial_charge
O1    O     O_R   0.388780 0.834790 0.412340 -0.509947
O2    O     O_R   0.111220 0.165210 0.912340 -0.509931
O3    O     O_R   0.888780 0.665210 0.587660 -0.509902
O4    O     O_R   0.611220 0.334790 0.087660 -0.509970
O5    O     O_R   0.059040 0.845930 0.587040 -0.516252
O6    O     O_R   0.440960 0.154070 0.087040 -0.516240
O7    O     O_R   0.559040 0.654070 0.412960 -0.516248
O8    O     O_R   0.940960 0.345930 0.912960 -0.516245
C1    C     C_R   0.227077 0.868316 0.614375 0.693006
C2    C     C_R   0.272923 0.131685 0.114377 0.693034
C3    C     C_R   0.727076 0.631682 0.385626 0.693047
C4    C     C_R   0.772923 0.368313 0.885622 0.693005
O9    O     O_R   0.059070 0.845930 0.412970 -0.558728
O10   O     O_R   0.440930 0.154070 0.912970 -0.558723
O11   O     O_R   0.559070 0.654070 0.587030 -0.558735
O12   O     O_R   0.940930 0.345930 0.087030 -0.558716
O13   O     O_R   0.888760 0.665210 0.412340 -0.549000
O14   O     O_R   0.611240 0.334790 0.912340 -0.549023
O15   O     O_R   0.388760 0.834790 0.587660 -0.549018
O16   O     O_R   0.111240 0.165210 0.087660 -0.549013
C5    C     C_R   0.228270 0.865752 0.383257 0.714930
C6    C     C_R   0.271730 0.134250 0.883256 0.714962
C7    C     C_R   0.728271 0.634249 0.616744 0.714979
C8    C     C_R   0.771730 0.365751 0.116744 0.714929
O17   O     O_3   0.222280 0.690700 0.500000 -0.374302
O18   O     O_3   0.277720 0.309300 0.000000 -0.374356
O19   O     O_3   0.722280 0.809300 0.500000 -0.374346
O20   O     O_3   0.777720 0.190700 0.000000 -0.374321
V1    V     V_3+5 0.947430 0.761000 0.500000 1.437389
V2    V     V_3+5 0.552570 0.239000 0.000000 1.437279
V3    V     V_3+5 0.447430 0.739000 0.500000 1.437352
V4    V     V_3+5 0.052570 0.261000 0.000000 1.437311
C9    C     C_3   0.923071 0.576839 0.744534 0.331145
C10   C     C_3   0.576922 0.423162 0.244532 0.331125
C11   C     C_3   0.423072 0.923163 0.255468 0.331140
C12   C     C_3   0.076926 0.076838 0.755467 0.331146
H1    H     H_    0.895472 0.640681 0.781160 -0.008240
H2    H     H_    0.604510 0.359318 0.281158 -0.008202
H3    H     H_    0.395475 0.859319 0.218842 -0.008213
H4    H     H_    0.104518 0.140682 0.718841 -0.008236
C13   C     C_3   0.940804 0.501736 0.813648 0.359618
C14   C     C_3   0.559190 0.498259 0.313652 0.359615
C15   C     C_3   0.440800 0.998262 0.186351 0.359628
C16   C     C_3   0.059194 0.001739 0.686349 0.359617
H5    H     H_    0.928454 0.539588 0.874761 0.065114
H6    H     H_    0.571537 0.460402 0.374763 0.065101
H7    H     H_    0.428446 0.960407 0.125239 0.065109
H8    H     H_    0.071544 0.039594 0.625237 0.065098
H9    H     H_    0.822649 0.339242 0.708645 0.123784
H10   H     H_    0.677283 0.660729 0.208641 0.123842
H11   H     H_    0.322645 0.160754 0.291362 0.123819
H12   H     H_    0.177318 0.839258 0.791355 0.123811
C17   C     C_3   0.714192 0.466148 0.653467 0.369250
C18   C     C_3   0.785867 0.533851 0.153481 0.369191
C19   C     C_3   0.214165 0.033854 0.346527 0.369212
C20   C     C_3   0.285834 0.966149 0.846526 0.369222
C21   C     C_3   0.585379 0.575702 0.755309 -0.547252
C22   C     C_3   0.914606 0.424281 0.255323 -0.547271
C23   C     C_3   0.085384 0.924292 0.244687 -0.547257
C24   C     C_3   0.414614 0.075711 0.744684 -0.547260
C25   C     C_3   0.743340 0.564245 0.688860 -0.081890
C26   C     C_3   0.756666 0.435751 0.188864 -0.081917
C27   C     C_3   0.243337 0.935755 0.311139 -0.081910
C28   C     C_3   0.256663 0.064247 0.811137 -0.081905
H13   H     H_    0.452650 0.562200 0.724521 0.222326
H14   H     H_    0.047347 0.437769 0.224544 0.222321
H15   H     H_    0.952652 0.937787 0.275471 0.222314
H16   H     H_    0.547348 0.062214 0.775467 0.222324
H17   H     H_    0.580654 0.645995 0.780410 0.152689
H18   H     H_    0.919301 0.353987 0.280425 0.152691
H19   H     H_    0.080671 0.853998 0.219584 0.152697
H20   H     H_    0.419327 0.146004 0.719582 0.152688
C29   C     C_3   0.766449 0.439028 0.814438 -0.076735
C30   C     C_3   0.733547 0.560965 0.314446 -0.076761
C31   C     C_3   0.266447 0.060970 0.185559 -0.076751
C32   C     C_3   0.233550 0.939033 0.685557 -0.076740
C33   C     C_3   0.729673 0.393927 0.725509 -0.428144
C34   C     C_3   0.770318 0.606070 0.225519 -0.428118
C35   C     C_3   0.229664 0.106073 0.274487 -0.428121
C36   C     C_3   0.270323 0.893929 0.774485 -0.428136
C37   C     C_3   0.605111 0.506826 0.830014 -0.412635
C38   C     C_3   0.894877 0.493161 0.330026 -0.412611
C39   C     C_3   0.105110 0.993170 0.169983 -0.412630
C40   C     C_3   0.394885 0.006833 0.669979 -0.412624
H21   H     H_    0.628198 0.544764 0.889833 0.171834
H22   H     H_    0.871780 0.455225 0.389845 0.171875
H23   H     H_    0.128196 0.955234 0.110163 0.171859
H24   H     H_    0.371799 0.044770 0.610158 0.171858
H25   H     H_    0.474905 0.471112 0.839881 0.231226
H26   H     H_    0.025086 0.528869 0.339897 0.231230
H27   H     H_    0.974904 0.028884 0.160118 0.231226
H28   H     H_    0.525093 0.971121 0.660112 0.231227
H29   H     H_    0.566078 0.463708 0.636897 0.100246
H30   H     H_    0.933997 0.536288 0.136944 0.100309
H31   H     H_    0.066047 0.036289 0.363088 0.100266
H32   H     H_    0.433955 0.963710 0.863082 0.100277
H33   H     H_    0.597110 0.357292 0.729986 0.110727
H34   H     H_    0.902846 0.642734 0.230000 0.110720
H35   H     H_    0.097107 0.142712 0.270006 0.110721
H36   H     H_    0.402870 0.857281 0.770007 0.110724
O21   O     O_3   0.085867 0.584627 0.696340 -0.552543
C41   C     C_3   0.175324 0.666649 0.715724 -0.222152
H37   H     H_    0.227614 0.666209 0.782185 0.121958
H38   H     H_    0.083484 0.724782 0.705829 0.116921
H39   H     H_    0.289588 0.676850 0.671350 0.179862
O22   O     O_3   0.414132 0.415377 0.196334 -0.552576
C42   C     C_3   0.324682 0.333350 0.215708 -0.222217
H40   H     H_    0.272374 0.333785 0.282166 0.121957
H41   H     H_    0.416531 0.275218 0.205818 0.116950
H42   H     H_    0.210431 0.323149 0.171327 0.179889
O23   O     O_3   0.585867 0.915376 0.303661 -0.552565
C43   C     C_3   0.675320 0.833352 0.284280 -0.222202
H43   H     H_    0.727611 0.833790 0.217820 0.121973
H44   H     H_    0.583479 0.775218 0.294175 0.116940
H45   H     H_    0.789582 0.823151 0.328655 0.179867
O24   O     O_3   0.914132 0.084623 0.803663 -0.552558
C44   C     C_3   0.824675 0.166645 0.784283 -0.222188
H46   H     H_    0.772379 0.166208 0.717824 0.121953
H47   H     H_    0.916515 0.224779 0.794178 0.116934
H48   H     H_    0.710416 0.176845 0.828660 0.179878
O25   O     O_3   0.119116 0.464186 0.825362 -0.542256
C45   C     C_3   0.175685 0.400441 0.764485 -0.142859
H49   H     H_    0.080614 0.344445 0.757217 0.088686
H50   H     H_    0.298814 0.365802 0.788989 0.115595
H51   H     H_    0.216386 0.433159 0.704300 0.145549
O26   O     O_3   0.380882 0.535812 0.325372 -0.542249
C46   C     C_3   0.324295 0.599532 0.264477 -0.142952
H52   H     H_    0.419314 0.655555 0.257232 0.088692
H53   H     H_    0.201111 0.634142 0.288950 0.115594
H54   H     H_    0.283686 0.566793 0.204287 0.145685
O27   O     O_3   0.619109 0.035811 0.174628 -0.542254
C47   C     C_3   0.675703 0.099540 0.235514 -0.142902
H55   H     H_    0.580622 0.155529 0.242809 0.088669
H56   H     H_    0.798808 0.134195 0.210999 0.115611
H57   H     H_    0.716450 0.066800 0.295686 0.145621
O28   O     O_3   0.880884 0.964188 0.674632 -0.542254
C48   C     C_3   0.824309 0.900451 0.735516 -0.142898
H58   H     H_    0.919357 0.844443 0.742769 0.088691
H59   H     H_    0.701152 0.865826 0.711029 0.115585
H60   H     H_    0.783658 0.933176 0.795705 0.145611
O29   O     O_3   0.790373 0.445705 0.572106 -0.571500
C49   C     C_3   0.978467 0.426235 0.571236 -0.210761
H61   H     H_    0.015444 0.368912 0.612377 0.108664
H62   H     H_    0.061008 0.487380 0.581640 0.207758
H63   H     H_    0.015174 0.402804 0.506604 0.136870
O30   O     O_3   0.709780 0.554326 0.072109 -0.571536
C50   C     C_3   0.521610 0.573642 0.071196 -0.210612
H64   H     H_    0.484331 0.630811 0.112478 0.108659
H65   H     H_    0.439240 0.512376 0.081390 0.207797
H66   H     H_    0.485009 0.597264 0.006607 0.136811
O31   O     O_3   0.290316 0.054320 0.427889 -0.571530
C51   C     C_3   0.478455 0.073684 0.428775 -0.210671
H67   H     H_    0.515622 0.130895 0.387534 0.108679
H68   H     H_    0.560866 0.012460 0.418512 0.207804
H69   H     H_    0.515116 0.097241 0.493375 0.136825
O32   O     O_3   0.209693 0.945692 0.927891 -0.571518
C52   C     C_3   0.021568 0.926292 0.928782 -0.210688
H70   H     H_    0.984455 0.869035 0.887581 0.108666
H71   H     H_    0.939106 0.987491 0.918472 0.207781
H72   H     H_    0.984911 0.902780 0.993396 0.136846

loop_
_geom_bond_atom_site_label_1
_geom_bond_atom_site_label_2
_ccdc_geom_bond_type
C16   O28   S    
C39   H23   S    
C22   C26   S    
C52   H70   S    
O19   V1    S    
C44   H46   S    
O13   V1    S    
O3    C7    A    
C50   H64   S    
C10   C14   S    
C10   C26   S    
C20   O32   S    
O15   V3    S    
C32   C40   S    
C43   H44   S    
O4    V2    S    
O1    C5    A    
C48   H59   S    
O5    C1    A    
O21   C41   S    
C9    O21   S    
O9    V1    S    
O32   C52   S    
C50   H65   S    
C30   C38   S    
C44   H47   S    
C11   H3    S    
O4    C8    A    
O22   C42   S    
C24   H20   S    
O1    V3    S    
O24   C44   S    
C41   H39   S    
O2    V4    S    
C14   H6    S    
C13   O25   S    
O3    V1    S    
C23   H15   S    
C17   C25   S    
C1    O15   A    
O23   C43   S    
C2    O16   A    
C47   H55   S    
C19   C27   S    
C34   H34   S    
C42   H40   S    
C20   C28   S    
C33   H33   S    
O14   V2    S    
C1    C32   S    
C11   C15   S    
C18   O30   S    
C37   H25   S    
O11   C7    A    
O31   C51   S    
O12   C8    A    
C4    C29   S    
C36   H36   S    
C42   H41   S    
C49   H63   S    
O10   V2    S    
H10   C34   S    
C29   C37   S    
C43   H43   S    
C22   H14   S    
O5    V1    S    
C15   C31   S    
C48   H60   S    
C14   C30   S    
O7    V3    S    
C17   H29   S    
O8    V4    S    
C32   C36   S    
C12   H4    S    
C50   H66   S    
C19   H31   S    
C44   H48   S    
C21   H13   S    
O18   V4    S    
C22   H18   S    
C18   C26   S    
C38   H22   S    
C13   C29   S    
O11   V3    S    
C9    H1    S    
C10   O22   S    
O7    C3    A    
C46   H53   S    
O2    C6    A    
C18   H30   S    
C19   C35   S    
C2    C31   S    
C51   H69   S    
O8    C4    A    
O9    C5    A    
C41   H38   S    
O25   C45   S    
C47   H56   S    
C9    C25   S    
O6    V2    S    
C51   H68   S    
C52   H72   S    
C21   H17   S    
C17   C33   S    
C42   H42   S    
C49   H62   S    
C12   C16   S    
C45   H50   S    
C46   H52   S    
C12   O24   S    
C11   O23   S    
O30   C50   S    
O16   V4    S    
C35   H35   S    
C19   O31   S    
C20   H32   S    
C3    O13   A    
C8    C26   S    
C10   H2    S    
H12   C36   S    
O17   V3    S    
C40   H24   S    
C23   C39   S    
O28   C48   S    
C3    C30   S    
C20   C36   S    
O6    C2    A    
C21   C25   S    
O12   V4    S    
C39   H27   S    
C48   H58   S    
C23   C27   S    
C38   H26   S    
C24   C28   S    
C9    C13   S    
O10   C6    A    
C45   H51   S    
C22   C38   S    
C46   H54   S    
O20   V2    S    
C13   H5    S    
O29   C49   S    
C24   C40   S    
C31   C39   S    
C15   H7    S    
O26   C46   S    
C15   O27   S    
C47   H57   S    
H9    C33   S    
C17   O29   S    
C41   H37   S    
C21   C37   S    
H11   C35   S    
C5    C27   S    
C14   O26   S    
C6    C28   S    
C16   H8    S    
C7    C25   S    
C51   H67   S    
C24   H16   S    
C52   H71   S    
C30   C34   S    
C4    O14   A    
C29   C33   S    
C49   H61   S    
C11   C27   S    
C40   H28   S    
C16   C32   S    
C45   H49   S    
C12   C28   S    
C31   C35   S    
C43   H45   S    
C37   H21   S    
O27   C47   S    
C23   H19   S    
C18   C34   S    
