data_mof_unit_46141.cif
_audit_creation_date              2012-12-11T18:09:09-0500
_audit_creation_method            fapswitch 2.2
_symmetry_space_group_name_H-M    P1
_symmetry_Int_Tables_number       1
_space_group_crystal_system       triclinic
_cell_length_a                    8.256605
_cell_length_b                    12.722744
_cell_length_c                    19.02496
_cell_angle_alpha                 99.094182
_cell_angle_beta                  91.466407
_cell_angle_gamma                 98.716752
_cell_volume                      1948.07912597

loop_
_atom_site_label
_atom_site_type_symbol
_atom_type_description
_atom_site_fract_x
_atom_site_fract_y
_atom_site_fract_z
_atom_type_partial_charge
Ba1   Ba    Ba6+2 0.853180 0.547790 0.465300 1.711209
Ba2   Ba    Ba6+2 0.336650 0.452300 0.534710 1.698571
C1    C     C_3   0.798084 0.835888 0.160271 -0.237856
C2    C     C_3   0.687782 0.749378 0.191025 0.275949
C3    C     C_3   0.462179 0.293789 0.319233 0.322547
C4    C     C_3   0.418401 0.267290 0.239593 -0.289085
C5    C     C_3   0.070422 0.236619 0.729125 0.389742
C6    C     C_3   0.100393 0.211691 0.803646 -0.296719
C7    C     C_3   0.563384 0.164081 0.690012 0.316689
C8    C     C_3   0.610768 0.081096 0.732915 -0.335026
C9    C     C_R   0.049897 0.564233 0.802333 -0.155954
C10   C     C_R   0.016347 0.543832 0.727488 0.042839
C11   C     C_R   0.847428 0.410416 0.812214 -0.159664
C12   C     C_3   0.221423 0.807268 0.280763 0.325629
C13   C     C_R   0.779469 0.418950 0.745826 0.011314
C14   C     C_R   0.339627 0.585967 0.186478 -0.165727
C15   C     C_R   0.409402 0.581271 0.253834 -0.041550
C16   C     C_R   0.133847 0.436144 0.199027 -0.151194
C17   C     C_R   0.173363 0.455662 0.273199 0.050074
C18   C     C_R   0.976428 0.489832 0.846393 -0.001662
C19   C     C_R   0.873641 0.475405 0.700814 -0.260924
C20   C     C_R   0.207534 0.507927 0.154115 0.019427
C21   C     C_R   0.315863 0.524807 0.299211 -0.210113
C22   C     C_R   0.753926 0.424705 0.962717 -0.086517
C23   C     C_3   0.219741 0.838525 0.206726 0.166209
C24   C     C_R   0.652914 0.381717 0.011813 -0.061071
C25   C     C_R   0.704146 0.402181 0.082844 -0.021948
C26   C     C_R   0.859682 0.458489 0.102816 -0.076216
C27   C     C_R   0.979447 0.473969 0.052389 0.016431
C28   C     C_R   0.923553 0.463101 0.978846 0.041052
C29   C     C_R   0.148666 0.503189 0.075123 -0.008609
C30   C     C_R   0.260125 0.527724 0.021267 0.047134
C31   C     C_R   0.204238 0.522870 0.948398 0.013766
C32   C     C_R   0.034477 0.492547 0.925328 -0.008882
C33   C     C_R   0.430986 0.554896 0.037283 -0.092249
C34   C     C_3   0.215572 0.792424 0.620758 0.362363
C35   C     C_R   0.537329 0.598403 0.990460 -0.079457
C36   C     C_R   0.485668 0.588702 0.920159 -0.009848
C37   C     C_R   0.325380 0.542836 0.898985 -0.063193
C38   C     C_R   0.771936 0.180093 0.517904 -0.266956
C39   C     C_R   0.423320 0.810355 0.475367 -0.277761
C40   C     C_R   0.395693 0.986017 0.449343 -0.042574
C41   C     C_R   0.330451 0.878587 0.448284 -0.059025
C42   C     C_R   0.575387 0.850377 0.511035 0.072749
C43   C     C_R   0.641589 0.961693 0.515681 -0.051204
C44   C     C_R   0.551670 0.029134 0.482134 -0.018927
C45   C     C_3   0.202427 0.911344 0.638548 0.132653
C46   C     C_R   0.619919 0.138100 0.482654 0.025560
C47   C     C_R   0.860207 0.116031 0.551930 0.004316
C48   C     C_R   0.794840 0.007615 0.551419 -0.100670
C49   C     C_3   0.872465 0.195771 0.307807 0.643837
C50   C     C_3   0.861793 0.083203 0.327641 0.103490
C51   C     C_3   0.715480 0.697009 0.678338 0.395249
C52   C     C_3   0.723431 0.724146 0.759474 0.091470
H1    H     H_    0.577778 0.783786 0.209182 0.042840
H2    H     H_    0.320869 0.956360 0.662767 0.056093
H3    H     H_    0.173338 0.942250 0.589220 0.024611
H4    H     H_    0.776868 0.235363 0.335347 -0.004505
H5    H     H_    0.956091 0.040615 0.300518 0.161835
H6    H     H_    0.886120 0.089722 0.385911 0.016089
H7    H     H_    0.832050 0.671527 0.660793 -0.078272
H8    H     H_    0.613566 0.629337 0.662250 0.062232
H9    H     H_    0.721709 0.883277 0.132722 0.138391
H10   H     H_    0.835453 0.782258 0.778842 0.134065
H11   H     H_    0.728217 0.649791 0.782426 -0.024298
H12   H     H_    0.657488 0.679452 0.147608 -0.016736
H13   H     H_    0.875577 0.798169 0.119962 0.077090
H14   H     H_    0.362611 0.330660 0.346384 0.009105
H15   H     H_    0.576856 0.352878 0.327786 0.067251
H16   H     H_    0.288945 0.227343 0.230074 0.172004
H17   H     H_    0.432895 0.342294 0.216109 0.031431
H18   H     H_    0.500046 0.213634 0.212608 0.212617
H19   H     H_    0.875503 0.891405 0.203064 0.203860
H20   H     H_    0.148981 0.314175 0.724833 0.071194
H21   H     H_    0.939258 0.243520 0.721731 -0.084684
H22   H     H_    0.227232 0.194640 0.810469 0.169768
H23   H     H_    0.084360 0.281397 0.844376 0.048390
H24   H     H_    0.012339 0.140533 0.812492 0.154178
H25   H     H_    0.676170 0.199359 0.666036 -0.079422
H26   H     H_    0.475186 0.123212 0.645530 0.062117
H27   H     H_    0.707314 0.120303 0.774474 0.119516
H28   H     H_    0.658625 0.016252 0.697247 0.125778
H29   H     H_    0.195484 0.718393 0.274871 -0.034210
H30   H     H_    0.502696 0.045050 0.759399 0.175754
H31   H     H_    0.139654 0.633402 0.824385 0.113736
H32   H     H_    0.796975 0.341694 0.835912 0.071175
H33   H     H_    0.388930 0.649063 0.158618 0.027834
H34   H     H_    0.040035 0.369209 0.177933 0.134273
H35   H     H_    0.831286 0.470343 0.645921 0.064167
H36   H     H_    0.359864 0.529098 0.353803 0.054730
H37   H     H_    0.689805 0.433822 0.915090 0.074117
H38   H     H_    0.526711 0.346608 0.996393 0.087402
H39   H     H_    0.618707 0.382564 0.122701 0.101933
H40   H     H_    0.345942 0.837191 0.306229 0.010781
H41   H     H_    0.885072 0.490236 0.158071 0.125601
H42   H     H_    0.488445 0.537233 0.084040 0.067220
H43   H     H_    0.665376 0.626325 0.006537 0.076854
H44   H     H_    0.573319 0.608212 0.881176 0.113209
H45   H     H_    0.300143 0.520989 0.843319 0.130585
H46   H     H_    0.323022 0.034091 0.423634 0.124323
H47   H     H_    0.865681 0.960438 0.578381 0.134913
H48   H     H_    0.823970 0.263401 0.517678 0.064358
H49   H     H_    0.372500 0.726042 0.472012 0.059299
H50   H     H_    0.328137 0.817085 0.178421 0.024931
H51   H     H_    0.110550 0.793163 0.175033 0.044288
H52   H     H_    0.339873 0.783079 0.603431 -0.088127
H53   H     H_    0.123564 0.755263 0.577129 0.032613
O1    O     O_2   0.875110 0.423180 0.326290 -0.470741
O2    O     O_3   0.691778 0.788169 0.648867 -0.595019
O3    O     O_3   0.099329 0.849880 0.320968 -0.545814
O4    O     O_2   0.314600 0.576860 0.673750 -0.447999
O5    O     O_3   0.066300 0.567050 0.585060 -0.513386
O6    O     O_3   0.528700 0.375020 0.630330 -0.465789
O7    O     O_3   0.190539 0.747509 0.682590 -0.562371
O8    O     O_3   0.611760 0.365720 0.463870 -0.502427
O9    O     O_3   0.107460 0.315620 0.594570 -0.489654
O10   O     O_2   0.198740 0.126987 0.549540 -0.485363
O11   O     O_3   0.110546 0.152812 0.678817 -0.554716
O12   O     O_3   0.123410 0.433040 0.414950 -0.474135
O13   O     O_3   0.577950 0.634370 0.536140 -0.503039
O14   O     O_2   0.341900 0.231310 0.465740 -0.439974
O15   O     O_3   0.483306 0.199247 0.345212 -0.576783
O16   O     O_2   0.451749 0.443952 0.757711 -0.509594
O17   O     O_3   0.487241 0.239479 0.734607 -0.582684
O18   O     O_3   0.661010 0.625070 0.369680 -0.447021
O19   O     O_2   0.703686 0.511635 0.249810 -0.501590
O20   O     O_3   0.028586 0.251658 0.330992 -0.652527
O21   O     O_3   0.765628 0.718981 0.249304 -0.542221
O22   O     O_2   0.847800 0.768730 0.534310 -0.474627
O23   O     O_3   0.082250 0.684470 0.405440 -0.480851
O24   O     O_2   0.990292 0.875942 0.448372 -0.466748
P1    P     P_3+3 0.042930 0.392230 0.337410 1.007304
P2    P     P_3+3 0.672230 0.754900 0.555730 0.998067
P3    P     P_3+3 0.125050 0.823653 0.407710 1.007178
P4    P     P_3+3 0.146790 0.607860 0.662600 1.025205
P5    P     P_3+3 0.065904 0.176594 0.593028 0.987970
P6    P     P_3+3 0.632125 0.614342 0.277776 0.967190
P7    P     P_3+3 0.518905 0.230813 0.437739 0.967992
P8    P     P_3+3 0.563234 0.369195 0.719267 0.948784
Br1   Br    Br    0.034044 0.933998 0.706727 -0.576178
Cl1   Cl    Cl    0.845130 0.185417 0.213264 -0.687195
Br2   Br    Br    0.648516 0.997000 0.302418 -0.601838
Br3   Br    Br    0.532777 0.785473 0.793304 -0.547687
Br4   Br    Br    0.227801 0.992057 0.210747 -0.525704

loop_
_geom_bond_atom_site_label_1
_geom_bond_atom_site_label_2
_ccdc_geom_bond_type
O19   P6    D    
O13   P2    S    
O17   P8    S    
C36   H44   S    
O24   P3    D    
C34   O7    S    
C35   H43   S    
C23   H51   S    
C5    C6    S    
C52   H11   S    
C19   H35   S    
C43   C44   A    
C4    H18   S    
Ba2   O5    S    
C24   C25   A    
C31   C37   A    
C26   H41   S    
C26   C27   A    
C33   C35   A    
C35   C36   A    
C22   C24   A    
C16   C17   A    
Ba1   O22   S    
Ba1   O5    S    
C7    H25   S    
C36   C37   A    
Ba2   O6    S    
C24   H38   S    
C38   C47   A    
O16   P8    D    
C6    H22   S    
C7    O17   S    
C34   C45   S    
C4    H16   S    
Ba1   Ba2   S    
Ba1   O12   S    
O20   P1    S    
C3    H15   S    
C50   H6    S    
C51   H7    S    
C14   C15   A    
C10   P4    S    
C45   Br1   S    
C14   H33   S    
O7    P4    S    
O6    P8    S    
C7    C8    S    
C18   C32   S    
Ba1   P1    S    
C52   Br3   S    
C34   H53   S    
C6    H24   S    
C39   C41   A    
C5    O11   S    
O23   P3    S    
Ba2   O9    S    
C12   H29   S    
C3    H14   S    
Ba1   P2    S    
C31   C32   A    
C5    H20   S    
C13   P8    S    
C49   Cl1   S    
C4    H17   S    
Ba2   O4    S    
C44   C46   A    
C9    C18   A    
C20   C29   S    
C2    O21   S    
O2    P2    S    
C49   C50   S    
C30   C33   A    
O15   P7    S    
Ba1   O23   S    
C28   C32   A    
C5    H21   S    
O18   P6    S    
C33   H42   S    
C34   H52   S    
C10   C19   A    
C8    H28   S    
C16   H34   S    
C39   H49   S    
C7    H26   S    
O14   P7    D    
C11   H32   S    
C41   P3    S    
C17   C21   A    
O21   P6    S    
C27   C28   A    
C50   H5    S    
C40   H46   S    
C45   H3    S    
Ba2   O8    S    
C37   H45   S    
C29   C30   A    
O8    P7    S    
C9    C10   A    
O12   P1    S    
C21   H36   S    
C49   H4    S    
C15   C21   A    
C48   H47   S    
O22   P2    D    
C47   P5    S    
C11   C13   A    
C2    H1    S    
C40   C44   A    
C6    H23   S    
C39   C42   A    
O3    P3    S    
C23   Br4   S    
C40   C41   A    
O5    P4    S    
C1    C2    S    
C22   H37   S    
O11   P5    S    
C42   C43   A    
Ba2   O14   S    
C51   O2    S    
C17   P1    S    
C38   C46   A    
C14   C20   A    
C11   C18   A    
C16   C20   A    
C1    H13   S    
Ba1   O18   S    
Ba2   O12   S    
C50   Br2   S    
C23   H50   S    
C51   C52   S    
O9    P5    S    
C1    H9    S    
C8    H27   S    
Ba2   P4    S    
C46   P7    S    
C49   O20   S    
C30   C31   A    
C27   C29   A    
C2    H12   S    
O4    P4    D    
C3    C4    S    
C52   H10   S    
C43   C48   A    
C9    H31   S    
C12   O3    S    
C42   P2    S    
C8    H30   S    
C12   H40   S    
C12   C23   S    
C1    H19   S    
C22   C28   A    
O1    P1    D    
C25   H39   S    
Ba1   O1    S    
C38   H48   S    
C13   C19   A    
C51   H8    S    
C47   C48   A    
C25   C26   A    
C15   P6    S    
Ba1   O8    S    
Ba2   O13   S    
O10   P5    D    
C3    O15   S    
Ba1   O13   S    
C45   H2    S    
