data_mof_unit_59226.cif
_audit_creation_date              2012-12-11T15:42:47-0500
_audit_creation_method            fapswitch 2.2
_symmetry_space_group_name_H-M    P1
_symmetry_Int_Tables_number       1
_space_group_crystal_system       triclinic
_cell_length_a                    6.926559
_cell_length_b                    14.562235
_cell_length_c                    16.205003
_cell_angle_alpha                 90.386267
_cell_angle_beta                  89.932743
_cell_angle_gamma                 89.771345
_cell_volume                      1634.48540932

loop_
_atom_site_label
_atom_site_type_symbol
_atom_type_description
_atom_site_fract_x
_atom_site_fract_y
_atom_site_fract_z
_atom_type_partial_charge
O1    O     O_R   0.505810 0.583360 0.413880 -0.540999
O2    O     O_R   0.175870 0.595480 0.585520 -0.539984
O3    O     O_R   0.005540 0.416640 0.586120 -0.541439
C1    C     C_R   0.344396 0.617046 0.614883 0.699020
O4    O     O_R   0.176100 0.594390 0.414490 -0.544519
O5    O     O_R   0.005770 0.415540 0.413870 -0.541907
C2    C     C_R   0.345098 0.616487 0.385696 0.685996
O6    O     O_R   0.505580 0.584460 0.586130 -0.543232
O7    O     O_3   0.339190 0.441320 0.500000 -0.370825
V1    V     V_3+5 0.064350 0.510890 0.500000 1.410850
O8    O     O_R   0.676050 0.404520 0.414480 -0.544595
C3    C     C_R   0.845322 0.382114 0.385682 0.685248
O9    O     O_R   0.675830 0.405610 0.585510 -0.540209
C4    C     C_R   0.845355 0.384586 0.614424 0.760610
V2    V     V_3+5 0.564340 0.489110 0.500000 1.408056
O10   O     O_3   0.839370 0.558680 0.500000 -0.372688
C5    C     C_2   0.722448 0.236065 0.805103 0.012224
C6    C     C_2   0.879293 0.182740 0.822955 -0.319752
H1    H     H_    0.003845 0.183021 0.782454 0.104403
C7    C     C_2   0.709108 0.291191 0.727771 -0.210146
C8    C     C_2   0.862539 0.321037 0.684843 -0.295581
H2    H     H_    0.566116 0.313778 0.708942 0.131428
H3    H     H_    0.007709 0.304458 0.704932 0.131333
C9    C     C_R   0.047360 0.222753 0.219164 -0.148854
H4    H     H_    0.188248 0.203883 0.195353 0.121934
C10   C     C_R   0.036343 0.286711 0.283959 -0.147705
H5    H     H_    0.169208 0.315295 0.307889 0.119829
C11   C     C_R   0.856641 0.313413 0.317245 -0.046910
C12   C     C_R   0.688250 0.274432 0.283786 -0.154156
H6    H     H_    0.547362 0.293311 0.307589 0.116709
C13   C     C_R   0.699267 0.210480 0.218983 -0.130945
H7    H     H_    0.566403 0.181917 0.195029 0.121865
C14   C     C_R   0.878983 0.183709 0.185760 -0.043251
C15   C     C_R   0.200431 0.740274 0.706670 -0.124365
H8    H     H_    0.067634 0.738293 0.671492 0.117138
C16   C     C_R   0.215841 0.802480 0.772635 -0.118281
H9    H     H_    0.093894 0.847020 0.785656 0.104010
C17   C     C_R   0.385790 0.808635 0.820322 -0.122826
C18   C     C_R   0.542527 0.748195 0.800104 -0.007011
C19   C     C_R   0.524252 0.686931 0.733077 -0.128760
H10   H     H_    0.644166 0.641811 0.717798 0.153802
C20   C     C_R   0.355607 0.682700 0.685473 -0.090352
C21   C     C_R   0.188229 0.723425 0.283681 -0.153076
H11   H     H_    0.047257 0.705292 0.307305 0.116062
C22   C     C_R   0.199629 0.786508 0.218945 -0.143345
H12   H     H_    0.066798 0.815154 0.194901 0.117949
C23   C     C_R   0.379528 0.812331 0.185884 -0.044204
C24   C     C_R   0.547695 0.773224 0.219479 -0.149129
H13   H     H_    0.688660 0.791353 0.195844 0.117529
C25   C     C_R   0.536294 0.710137 0.284219 -0.146021
H14   H     H_    0.669117 0.681482 0.308261 0.119377
C26   C     C_R   0.356394 0.684345 0.317304 -0.047813
O11   O     O_R   0.230120 0.912300 0.917180 -0.538163
O12   O     O_R   0.559740 0.902430 0.088770 -0.546656
O13   O     O_R   0.729930 0.081310 0.089370 -0.533397
C27   C     C_R   0.390773 0.880256 0.117550 0.682534
O14   O     O_R   0.559840 0.901330 0.917750 -0.561807
O15   O     O_R   0.730030 0.080210 0.917120 -0.520909
C28   C     C_R   0.392195 0.877687 0.889492 0.672827
O16   O     O_R   0.230020 0.913400 0.089430 -0.543483
O17   O     O_3   0.396460 0.055470 0.003290 -0.348070
V3    V     V_3+5 0.671360 0.985960 0.003250 1.440689
O18   O     O_R   0.059740 0.091300 0.917690 -0.547087
C29   C     C_R   0.889731 0.115673 0.891422 0.783106
O19   O     O_R   0.059640 0.092400 0.088720 -0.545548
C30   C     C_R   0.890346 0.114866 0.117453 0.704234
V4    V     V_3+5 0.171350 0.007820 0.003190 1.443056
O20   O     O_3   0.896380 0.938200 0.003220 -0.382478
C31   C     C_2   0.553465 0.244941 0.861278 0.442859
H15   H     H_    0.410974 0.257313 0.835720 0.009404
O21   O     O_2   0.572897 0.244829 0.936167 -0.515505
C32   C     C_2   0.727332 0.744378 0.846584 0.339451
H16   H     H_    0.796525 0.805441 0.870093 0.080896
O22   O     O_2   0.810100 0.671083 0.856637 -0.518444

loop_
_geom_bond_atom_site_label_1
_geom_bond_atom_site_label_2
_ccdc_geom_bond_type
O15   V3    S    
C5    C31   S    
C15   C20   A    
C1    O6    A    
O11   C28   A    
O14   V3    S    
C22   H12   S    
C10   H5    S    
C3    C11   S    
C4    C8    S    
C11   C12   A    
C9    C10   A    
C2    C26   S    
C6    H1    S    
O5    C3    A    
C17   C18   A    
C21   C26   A    
O14   C28   A    
V2    O10   S    
O13   V3    S    
C5    C7    S    
C15   H8    S    
C31   O21   D    
O8    V2    S    
C13   H7    S    
O16   V4    S    
O19   V4    S    
C25   C26   A    
C18   C32   S    
C13   C14   A    
O1    V2    S    
O7    V1    S    
C17   C28   S    
C19   C20   A    
O9    C4    A    
C31   H15   S    
C14   C30   S    
C25   H14   S    
O12   C27   A    
C22   C23   A    
C8    H3    S    
O15   C29   A    
O18   V4    S    
V4    O20   S    
C9    H4    S    
C32   O22   D    
C18   C19   A    
O4    C2    A    
O12   V3    S    
C27   O16   A    
O2    C1    A    
C21   H11   S    
C12   H6    S    
O17   V4    S    
C23   C24   A    
C5    C6    D    
C21   C22   A    
O3    C4    A    
C24   H13   S    
C7    H2    S    
O6    V2    S    
O9    V2    S    
O2    V1    S    
O13   C30   A    
C16   H9    S    
O1    C2    A    
C32   H16   S    
O5    V1    S    
O8    C3    A    
C10   C11   A    
C9    C14   A    
V3    O20   S    
C16   C17   A    
O7    V2    S    
O4    V1    S    
C12   C13   A    
O3    V1    S    
V1    O10   S    
C6    C29   S    
C1    C20   S    
C24   C25   A    
C15   C16   A    
O17   V3    S    
O11   V4    S    
O18   C29   A    
C7    C8    D    
O19   C30   A    
C19   H10   S    
C23   C27   S    
