data_mof_unit_59095.cif
_audit_creation_date              2012-12-11T14:45:32-0500
_audit_creation_method            fapswitch 2.2
_symmetry_space_group_name_H-M    P1
_symmetry_Int_Tables_number       1
_space_group_crystal_system       triclinic
_cell_length_a                    24.875
_cell_length_b                    7.190335
_cell_length_c                    14.434347
_cell_angle_alpha                 89.999321
_cell_angle_beta                  102.584118
_cell_angle_gamma                 89.99853
_cell_volume                      2519.70109177

loop_
_atom_site_label
_atom_site_type_symbol
_atom_type_description
_atom_site_fract_x
_atom_site_fract_y
_atom_site_fract_z
_atom_type_partial_charge
O1    O     O_R   0.319150 0.364170 0.330530 -0.525107
O2    O     O_R   0.680850 0.635830 0.669470 -0.543054
O3    O     O_R   0.180850 0.864170 0.169470 -0.525134
O4    O     O_R   0.819150 0.135830 0.830530 -0.543163
O5    O     O_R   0.210330 0.696850 0.354180 -0.518150
O6    O     O_R   0.789670 0.303150 0.645820 -0.547479
O7    O     O_R   0.289670 0.196850 0.145820 -0.518065
O8    O     O_R   0.710330 0.803150 0.854180 -0.547377
C1    C     C_R   0.196532 0.525075 0.377509 0.795604
C2    C     C_R   0.803329 0.474243 0.622210 0.793497
C3    C     C_R   0.303462 0.025073 0.122487 0.795449
C4    C     C_R   0.696661 0.974241 0.877780 0.793623
O9    O     O_R   0.320550 0.694110 0.341970 -0.537098
O10   O     O_R   0.679450 0.305890 0.658030 -0.520657
O11   O     O_R   0.179450 0.194110 0.158030 -0.537022
O12   O     O_R   0.820550 0.805890 0.841970 -0.520581
O13   O     O_R   0.291860 0.861000 0.157170 -0.548664
O14   O     O_R   0.708140 0.139000 0.842830 -0.518575
O15   O     O_R   0.208140 0.361000 0.342830 -0.548570
O16   O     O_R   0.791860 0.639000 0.657170 -0.518460
C5    C     C_R   0.341480 0.525566 0.362285 0.778864
C6    C     C_R   0.658491 0.474605 0.637706 0.783735
C7    C     C_R   0.158532 0.025571 0.137681 0.778837
C8    C     C_R   0.841520 0.974592 0.862266 0.783872
O17   O     O_3   0.240460 0.529330 0.189380 -0.381582
O18   O     O_3   0.759540 0.470670 0.810620 -0.380367
O19   O     O_3   0.259540 0.029330 0.310620 -0.381612
O20   O     O_3   0.740460 0.970670 0.689380 -0.380308
V1    V     V_3+5 0.251770 0.805510 0.261240 1.601941
V2    V     V_3+5 0.748230 0.194490 0.738760 1.605681
V3    V     V_3+5 0.248230 0.305510 0.238760 1.602190
V4    V     V_3+5 0.751770 0.694490 0.761240 1.605933
C9    C     C_R   0.103230 0.017017 0.074085 -0.278516
C10   C     C_R   0.896820 0.983983 0.926018 -0.278864
C11   C     C_R   0.396789 0.516960 0.425858 -0.278602
C12   C     C_R   0.603200 0.484054 0.573937 -0.278841
C13   C     C_R   0.953866 0.984719 0.087215 0.459513
C14   C     C_R   0.046506 0.985540 0.913666 0.454179
C15   C     C_R   0.546179 0.485631 0.412724 0.459434
C16   C     C_R   0.453513 0.484721 0.586234 0.454230
C17   C     C_R   0.901474 0.979228 0.024609 0.250711
C18   C     C_R   0.098780 0.001038 0.975898 0.251839
C19   C     C_R   0.598565 0.479972 0.475343 0.250601
C20   C     C_R   0.401241 0.500357 0.524020 0.251974
C21   C     C_R   0.944777 0.994936 0.888340 0.404305
C22   C     C_R   0.055207 0.018339 0.111796 0.401465
C23   C     C_R   0.555234 0.494538 0.611605 0.404399
C24   C     C_R   0.444817 0.518745 0.388151 0.401287
C25   C     C_R   0.997839 0.993036 0.950259 -0.137562
C26   C     C_R   0.002329 0.998746 0.050303 -0.138807
C27   C     C_R   0.502181 0.492748 0.549665 -0.137626
C28   C     C_R   0.497700 0.499107 0.449632 -0.138878
C29   C     C_R   0.664596 0.976748 0.952361 -0.173256
C30   C     C_R   0.335687 0.010669 0.048547 -0.172255
C31   C     C_R   0.835372 0.476735 0.547602 -0.173089
C32   C     C_R   0.164285 0.510707 0.451421 -0.172533
C33   C     C_R   0.658547 0.890783 0.112928 0.485002
C34   C     C_R   0.341251 0.900178 0.891602 0.485898
C35   C     C_R   0.841454 0.390115 0.387139 0.484957
C36   C     C_R   0.158730 0.400849 0.608480 0.485880
C37   C     C_R   0.688577 0.905643 0.041438 -0.291687
C38   C     C_R   0.311196 0.930414 0.961972 -0.292663
C39   C     C_R   0.811418 0.405172 0.458612 -0.291372
C40   C     C_R   0.188784 0.430814 0.538086 -0.292860
C41   C     C_R   0.608442 0.021682 0.931397 0.430995
C42   C     C_R   0.392261 0.049136 0.068723 0.428454
C43   C     C_R   0.891499 0.522034 0.568489 0.431037
C44   C     C_R   0.107698 0.548983 0.431176 0.428533
C45   C     C_R   0.574799 0.969630 0.995265 -0.063492
C46   C     C_R   0.425586 0.982454 0.007223 -0.061331
C47   C     C_R   0.925167 0.469735 0.504709 -0.063457
C48   C     C_R   0.074384 0.482588 0.492756 -0.061477
C49   C     C_R   0.600955 0.928491 0.090893 -0.107927
C50   C     C_R   0.399139 0.931842 0.912976 -0.107900
C51   C     C_R   0.899030 0.428062 0.409137 -0.107966
C52   C     C_R   0.100836 0.432444 0.587069 -0.107930
C53   C     C_R   0.516205 0.957271 0.966754 -0.052593
C54   C     C_R   0.484097 0.965354 0.036474 -0.053062
C55   C     C_R   0.983766 0.457612 0.533254 -0.052624
C56   C     C_R   0.015876 0.465338 0.463527 -0.053094
C57   C     C_R   0.510266 0.927330 0.132239 0.400600
C58   C     C_R   0.489721 0.908596 0.872570 0.397641
C59   C     C_R   0.989718 0.426783 0.367816 0.400376
C60   C     C_R   0.010258 0.409498 0.627519 0.397775
C61   C     C_R   0.568406 0.918583 0.160045 0.343211
C62   C     C_R   0.431614 0.906838 0.844635 0.343039
C63   C     C_R   0.931586 0.417871 0.340015 0.343141
C64   C     C_R   0.068368 0.407840 0.655449 0.343009
H1    H     H_    0.268148 0.892491 0.948770 0.198704
H2    H     H_    0.731275 0.862959 0.055703 0.200040
H3    H     H_    0.231839 0.392987 0.551346 0.198901
H4    H     H_    0.768738 0.362273 0.444403 0.199830
O21   O     O_3   0.058544 0.042573 0.208032 -0.555726
H5    H     H_    0.095635 0.084659 0.240801 0.310957
O22   O     O_3   0.941186 0.012307 0.791650 -0.556092
H6    H     H_    0.903234 0.042054 0.757678 0.313766
O23   O     O_3   0.441479 0.543414 0.291940 -0.555549
H7    H     H_    0.404350 0.585144 0.259175 0.311041
O24   O     O_3   0.558810 0.511383 0.708313 -0.556096
H8    H     H_    0.596742 0.541309 0.742321 0.313718
Cl1   Cl    Cl    0.159578 0.009575 0.931108 -0.602890
Cl2   Cl    Cl    0.840529 0.978085 0.069135 -0.604498
Cl3   Cl    Cl    0.340446 0.508313 0.568828 -0.603074
Cl4   Cl    Cl    0.659524 0.479484 0.430847 -0.604193
O25   O     O_3   0.959008 0.973555 0.184543 -0.559392
H9    H     H_    0.924466 0.929213 0.200135 0.372376
O26   O     O_3   0.041740 0.958356 0.817226 -0.562703
H10   H     H_    0.077363 0.920743 0.803429 0.371661
O27   O     O_3   0.541066 0.475222 0.315382 -0.559314
H11   H     H_    0.575591 0.430779 0.299761 0.372327
O28   O     O_3   0.458276 0.456903 0.682628 -0.562611
H12   H     H_    0.422673 0.418789 0.696336 0.371672
Cl5   Cl    Cl    0.599027 0.917966 0.283396 -0.502067
Cl6   Cl    Cl    0.401289 0.897391 0.721350 -0.496839
Cl7   Cl    Cl    0.900994 0.416766 0.216657 -0.501756
Cl8   Cl    Cl    0.098706 0.399045 0.778744 -0.496988
Cl9   Cl    Cl    0.418532 0.205563 0.162284 -0.550668
Cl10  Cl    Cl    0.583053 0.166155 0.832240 -0.553537
Cl11  Cl    Cl    0.081388 0.704877 0.337393 -0.550074
Cl12  Cl    Cl    0.916811 0.667250 0.667379 -0.553731
O29   O     O_3   0.684139 0.823838 0.201284 -0.564782
H13   H     H_    0.724001 0.805755 0.204150 0.332419
O30   O     O_3   0.315286 0.824169 0.805527 -0.564802
H14   H     H_    0.275245 0.812083 0.802781 0.333120
O31   O     O_3   0.815895 0.322726 0.298862 -0.564852
H15   H     H_    0.776039 0.304511 0.296013 0.332367
O32   O     O_3   0.184699 0.325180 0.694639 -0.564774
H16   H     H_    0.224742 0.313086 0.697403 0.333168
O33   O     O_3   0.477607 0.874673 0.194130 -0.594287
H17   H     H_    0.500050 0.821381 0.252951 0.379628
O34   O     O_3   0.521766 0.839429 0.813110 -0.593066
H18   H     H_    0.498671 0.779190 0.756904 0.382510
O35   O     O_3   0.022374 0.373841 0.305978 -0.594319
H19   H     H_    0.999946 0.319053 0.247532 0.379638
O36   O     O_3   0.978226 0.340748 0.687099 -0.593017
H20   H     H_    0.001326 0.280917 0.743429 0.382431

loop_
_geom_bond_atom_site_label_1
_geom_bond_atom_site_label_2
_ccdc_geom_bond_type
C34   C38   A    
C59   C63   A    
C60   O36   S    
O1    C5    A    
O21   H5    S    
O19   V1    S    
O13   V1    S    
C45   C53   A    
O3    C7    A    
O28   H12   S    
C48   C52   A    
O15   V3    S    
C47   C55   A    
O23   H7    S    
O30   H14   S    
C14   C25   A    
C53   C54   A    
O18   V4    S    
C24   O23   S    
C34   O30   S    
O31   H15   S    
C9    C18   A    
O9    V1    S    
C14   C18   A    
C44   Cl11  S    
C55   C60   A    
O4    C8    A    
C46   C54   A    
C38   H1    S    
O1    V3    S    
C23   O24   S    
C17   Cl2   S    
C12   C23   A    
O2    V4    S    
C33   C49   A    
C14   O26   S    
O3    V1    S    
C46   C50   A    
C19   Cl4   S    
C29   C37   A    
C1    O15   A    
O22   H6    S    
C2    O16   A    
C7    C9    S    
C42   Cl9   S    
C31   C39   A    
C39   H4    S    
O2    C6    A    
C41   Cl10  S    
C32   C40   A    
C45   C49   A    
O14   V2    S    
C21   C25   A    
C29   C41   A    
C43   Cl12  S    
C52   C64   A    
C16   C20   A    
C63   Cl7   S    
C4    C29   S    
C44   C48   A    
O11   C7    A    
C15   C28   A    
O12   C8    A    
C9    C22   A    
C10   C17   A    
O10   V2    S    
C56   C59   A    
C11   C24   A    
C20   Cl3   S    
C16   O28   S    
O5    V1    S    
O7    V3    S    
C27   C28   A    
O8    V4    S    
O36   H20   S    
C10   C21   A    
C15   C19   A    
C30   C38   A    
C13   O25   S    
C58   C62   A    
C36   C52   A    
C8    C10   S    
C64   Cl8   S    
O7    C3    A    
O5    C1    A    
C11   C20   A    
C57   O33   S    
O24   H8    S    
C24   C28   A    
O8    C4    A    
O9    C5    A    
C1    C32   S    
C50   C62   A    
C33   C37   A    
C2    C31   S    
C49   C61   A    
O29   H13   S    
C3    C30   S    
C5    C11   S    
C51   C63   A    
O6    V2    S    
O35   H19   S    
O12   V4    S    
O26   H10   S    
O34   H18   S    
C21   O22   S    
C18   Cl1   S    
C35   C51   A    
C37   H2    S    
C34   C50   A    
O33   H17   S    
O16   V4    S    
C3    O13   A    
O17   V3    S    
C36   O32   S    
C60   C64   A    
O6    C2    A    
C23   C27   A    
O11   V3    S    
C30   C42   A    
C35   O31   S    
C16   C27   A    
C6    C12   S    
O25   H9    S    
C22   C26   A    
C35   C39   A    
C62   Cl6   S    
C36   C40   A    
O10   C6    A    
O20   V2    S    
C31   C43   A    
C48   C56   A    
C32   C44   A    
O27   H11   S    
C47   C51   A    
C13   C26   A    
C54   C57   A    
C42   C46   A    
C22   O21   S    
C53   C58   A    
C41   C45   A    
C61   Cl5   S    
C43   C47   A    
C13   C17   A    
O4    V2    S    
C59   O35   S    
C33   O29   S    
C55   C56   A    
C15   O27   S    
C25   C26   A    
C4    O14   A    
C12   C19   A    
C40   H3    S    
C58   O34   S    
C57   C61   A    
O32   H16   S    
