data_mof_unit_40756.cif
_audit_creation_date              2012-12-11T14:08:36-0500
_audit_creation_method            fapswitch 2.2
_symmetry_space_group_name_H-M    P1
_symmetry_Int_Tables_number       1
_space_group_crystal_system       triclinic
_cell_length_a                    28.182586
_cell_length_b                    7.193659
_cell_length_c                    17.201731
_cell_angle_alpha                 89.987344
_cell_angle_beta                  101.960155
_cell_angle_gamma                 89.988515
_cell_volume                      3411.70361934

loop_
_atom_site_label
_atom_site_type_symbol
_atom_type_description
_atom_site_fract_x
_atom_site_fract_y
_atom_site_fract_z
_atom_type_partial_charge
O1    O     O_R   0.000700 0.436510 0.857920 -0.533043
O2    O     O_R   0.999300 0.563490 0.142080 -0.533075
O3    O     O_R   0.999300 0.936510 0.642080 -0.533020
O4    O     O_R   0.000700 0.063490 0.357920 -0.533091
O5    O     O_R   0.930080 0.766380 0.721890 -0.542294
O6    O     O_R   0.069920 0.233620 0.278110 -0.542144
O7    O     O_R   0.069920 0.266380 0.778110 -0.542138
O8    O     O_R   0.930080 0.733620 0.221890 -0.542218
C1    C     C_R   0.910536 0.597631 0.709021 0.696600
C2    C     C_R   0.089447 0.402287 0.291041 0.696168
C3    C     C_R   0.089469 0.097683 0.791014 0.696099
C4    C     C_R   0.910524 0.902418 0.208901 0.695358
O9    O     O_R   0.996180 0.766230 0.862310 -0.543018
O10   O     O_R   0.003820 0.233770 0.137690 -0.543013
O11   O     O_R   0.003820 0.266230 0.637690 -0.543170
O12   O     O_R   0.996180 0.733770 0.362310 -0.543019
O13   O     O_R   0.065870 0.936460 0.783500 -0.539288
O14   O     O_R   0.934130 0.063540 0.216500 -0.539306
O15   O     O_R   0.934130 0.436460 0.716500 -0.539304
O16   O     O_R   0.065870 0.563540 0.283500 -0.539305
C5    C     C_R   0.998487 0.596433 0.894485 0.761335
C6    C     C_R   0.001513 0.403567 0.105515 0.761133
C7    C     C_R   0.001514 0.096448 0.605511 0.760916
C8    C     C_R   0.998487 0.903552 0.394489 0.761215
O17   O     O_3   0.022790 0.603020 0.723980 -0.378107
O18   O     O_3   0.977210 0.396980 0.276020 -0.378112
O19   O     O_3   0.977210 0.103020 0.776020 -0.377835
O20   O     O_3   0.022790 0.896980 0.223980 -0.378004
V1    V     V_3+5 0.995770 0.877900 0.754830 1.412225
V2    V     V_3+5 0.004230 0.122100 0.245170 1.411829
V3    V     V_3+5 0.004230 0.377900 0.745170 1.412056
V4    V     V_3+5 0.995770 0.622100 0.254830 1.411479
C9    C     C_2   0.001705 0.082641 0.519574 -0.330011
C10   C     C_2   0.998298 0.917360 0.480427 -0.329909
C11   C     C_2   0.998297 0.582637 0.980417 -0.329898
C12   C     C_2   0.001703 0.417362 0.019582 -0.329717
H1    H     H_    0.004494 0.211497 0.487901 0.153645
H2    H     H_    0.995509 0.788504 0.512100 0.153664
H3    H     H_    0.995510 0.711493 0.012072 0.153757
H4    H     H_    0.004489 0.288506 0.987927 0.153776
C13   C     C_R   0.683543 0.945273 0.024896 0.619318
C14   C     C_R   0.318315 0.110316 0.969430 0.616911
C15   C     C_R   0.317362 0.405486 0.472679 0.618064
C16   C     C_R   0.680721 0.634971 0.536524 0.617364
O21   O     O_2   0.713102 0.931075 0.972696 -0.510292
O22   O     O_2   0.290011 0.167235 0.019225 -0.511605
O23   O     O_2   0.288563 0.359353 0.523327 -0.511231
O24   O     O_2   0.708069 0.720899 0.491569 -0.512793
N1    N     N_R   0.702866 0.944689 0.104795 -0.563056
N2    N     N_R   0.297559 0.061252 0.892935 -0.560487
N3    N     N_R   0.297212 0.440610 0.394506 -0.561350
N4    N     N_R   0.702432 0.557359 0.607864 -0.558038
C17   C     C_R   0.673716 0.958869 0.159076 0.588209
C18   C     C_R   0.325625 0.002270 0.841484 0.589277
C19   C     C_R   0.325693 0.488319 0.342027 0.589035
C20   C     C_R   0.675305 0.467871 0.654015 0.588875
C21   C     C_R   0.777620 0.760486 0.147905 -0.083154
C22   C     C_R   0.221571 0.242785 0.859248 -0.077612
C23   C     C_R   0.218024 0.592807 0.347255 -0.085856
C24   C     C_R   0.777696 0.740490 0.650201 -0.075441
C25   C     C_R   0.828123 0.749907 0.173254 -0.188883
C26   C     C_R   0.171062 0.251850 0.834329 -0.190324
C27   C     C_R   0.167557 0.583815 0.322277 -0.191232
C28   C     C_R   0.828221 0.750537 0.674726 -0.191439
C29   C     C_R   0.833169 0.085769 0.167373 -0.187771
C30   C     C_R   0.167662 0.916195 0.823578 -0.191796
C31   C     C_R   0.170952 0.248669 0.336376 -0.190366
C32   C     C_R   0.833108 0.414906 0.667897 -0.192234
C33   C     C_R   0.782742 0.095781 0.142032 -0.091046
C34   C     C_R   0.218183 0.907607 0.848214 -0.083948
C35   C     C_R   0.221422 0.258220 0.361781 -0.078740
C36   C     C_R   0.782638 0.405298 0.643325 -0.083125
C37   C     C_R   0.754716 0.933415 0.132014 0.382591
C38   C     C_R   0.245498 0.070678 0.866453 0.371170
C39   C     C_R   0.245269 0.430295 0.367439 0.374032
C40   C     C_R   0.754516 0.567851 0.634161 0.367096
C41   C     C_R   0.602431 0.977618 0.051600 -0.053407
C42   C     C_R   0.398402 0.039350 0.944918 -0.053457
C43   C     C_R   0.397738 0.469937 0.448027 -0.053805
C44   C     C_R   0.601653 0.532053 0.555628 -0.050242
C45   C     C_R   0.633023 0.960942 0.996868 -0.124500
C46   C     C_R   0.368982 0.099669 0.996820 -0.124196
C47   C     C_R   0.367912 0.419019 0.500768 -0.124770
C48   C     C_R   0.630077 0.623585 0.509164 -0.120664
C49   C     C_R   0.612734 0.964969 0.915506 -0.175712
C50   C     C_R   0.390747 0.150876 0.074445 -0.175708
C51   C     C_R   0.388933 0.387824 0.580727 -0.175957
C52   C     C_R   0.607358 0.704141 0.437038 -0.174500
C53   C     C_R   0.623049 0.976331 0.133542 -0.029718
C54   C     C_R   0.376451 0.990856 0.866385 -0.017374
C55   C     C_R   0.376358 0.504211 0.367780 -0.022491
C56   C     C_R   0.624561 0.453671 0.628827 -0.020991
C57   C     C_R   0.856677 0.912573 0.183191 -0.052364
C58   C     C_R   0.143325 0.088535 0.816353 -0.052619
C59   C     C_R   0.143253 0.411544 0.316558 -0.052136
C60   C     C_R   0.856694 0.587761 0.683809 -0.053401
H5    H     H_    0.853661 0.214164 0.174177 0.134169
H6    H     H_    0.147748 0.787449 0.810235 0.135358
H7    H     H_    0.153679 0.113626 0.332971 0.132275
H8    H     H_    0.853574 0.286429 0.674017 0.135365
H9    H     H_    0.765413 0.230085 0.129873 0.114577
H10   H     H_    0.236117 0.773667 0.853700 0.122527
H11   H     H_    0.242040 0.131617 0.377103 0.122176
H12   H     H_    0.765368 0.271016 0.630833 0.127522
H13   H     H_    0.635683 0.960686 0.872196 0.198785
H14   H     H_    0.369142 0.205823 0.114446 0.201844
H15   H     H_    0.366539 0.356427 0.623198 0.202892
H16   H     H_    0.628148 0.782445 0.401840 0.197750
C61   C     C_R   0.479173 0.978836 0.916850 0.080558
C62   C     C_R   0.521355 0.026580 0.080281 0.063513
C63   C     C_R   0.521878 0.437141 0.578991 0.070619
C64   C     C_R   0.477972 0.551148 0.422715 0.075498
C65   C     C_R   0.470918 0.062598 0.052533 -0.080018
C66   C     C_R   0.530690 0.983128 0.941938 -0.076686
C67   C     C_R   0.528273 0.586056 0.452309 -0.072600
C68   C     C_R   0.470289 0.439752 0.555273 -0.081337
C69   C     C_R   0.449677 0.027102 0.971526 -0.002665
C70   C     C_R   0.551319 0.995834 0.024480 -0.002735
C71   C     C_R   0.550420 0.518540 0.528888 0.002401
C72   C     C_R   0.448843 0.486919 0.475465 -0.001419
C73   C     C_R   0.455826 0.922110 0.839662 -0.055311
C74   C     C_R   0.542834 0.013972 0.162047 -0.062761
C75   C     C_R   0.546247 0.350918 0.649996 -0.069804
C76   C     C_R   0.455832 0.572511 0.341564 -0.048144
C77   C     C_R   0.405573 0.929319 0.814866 -0.125386
C78   C     C_R   0.592664 0.990480 0.188062 -0.123736
C79   C     C_R   0.596475 0.360373 0.674644 -0.131723
C80   C     C_R   0.406017 0.550952 0.314855 -0.120027
O25   O     O_2   0.304510 0.956251 0.766222 -0.511532
O26   O     O_2   0.693675 0.957175 0.237467 -0.509037
O27   O     O_2   0.697252 0.394206 0.724466 -0.515083
O28   O     O_2   0.305104 0.519901 0.265102 -0.510756
C81   C     C_R   0.562697 0.977644 0.888056 0.591959
C82   C     C_R   0.440708 0.134992 0.102001 0.586518
C83   C     C_R   0.438975 0.399792 0.608149 0.587330
C84   C     C_R   0.557443 0.688223 0.409157 0.585777
H17   H     H_    0.153801 0.387026 0.829713 0.132539
H18   H     H_    0.844710 0.614154 0.184710 0.132729
H19   H     H_    0.844878 0.886081 0.686384 0.134542
H20   H     H_    0.147661 0.712184 0.307472 0.135593
H21   H     H_    0.242172 0.369925 0.872945 0.124102
H22   H     H_    0.756292 0.634092 0.140282 0.116896
H23   H     H_    0.756515 0.867290 0.643703 0.130451
H24   H     H_    0.235975 0.726632 0.351547 0.120360
H25   H     H_    0.389602 0.884994 0.754968 0.178588
H26   H     H_    0.607265 0.982981 0.251414 0.191996
H27   H     H_    0.613243 0.292783 0.729814 0.191769
H28   H     H_    0.390861 0.570622 0.252174 0.179755
H29   H     H_    0.475365 0.862557 0.798131 0.209971
H30   H     H_    0.521631 0.013221 0.207434 0.238371
H31   H     H_    0.527583 0.267186 0.686062 0.239790
H32   H     H_    0.476499 0.597840 0.296487 0.210770
F1    F     F_    0.547022 0.000607 0.808654 -0.705574
F2    F     F_    0.458918 0.206582 0.175009 -0.698902
F3    F     F_    0.455219 0.387817 0.687902 -0.687171
F4    F     F_    0.538162 0.787783 0.343254 -0.716549

loop_
_geom_bond_atom_site_label_1
_geom_bond_atom_site_label_2
_ccdc_geom_bond_type
O17   V3    S    
C47   C51   A    
N1    C17   A    
C22   C26   A    
O1    C5    A    
O19   V1    S    
O13   V1    S    
C27   H20   S    
O3    C7    A    
C11   C12   D    
C14   C46   A    
C44   C48   A    
O4    V2    S    
O15   V3    S    
C62   C70   A    
C78   H26   S    
C61   C69   A    
C68   C83   A    
C30   C34   A    
C42   C54   A    
O7    C3    A    
C41   C53   A    
C32   C60   A    
C21   H22   S    
C81   F1    S    
C74   H30   S    
C63   C71   A    
N3    C39   S    
C18   C54   A    
N2    C38   S    
C24   H23   S    
C84   F4    S    
C25   C57   A    
C25   H18   S    
C31   C35   A    
C67   C84   A    
C27   C59   A    
O1    V3    S    
C15   C47   A    
O2    V4    S    
C14   O22   S    
C21   C37   A    
O3    V1    S    
C34   C38   A    
C19   C55   A    
C73   C77   A    
C1    O15   A    
C2    O16   A    
C7    C9    S    
O2    C6    A    
C33   C37   A    
C63   C68   A    
O14   V2    S    
C79   H27   S    
C43   C55   A    
C31   H7    S    
C76   C80   A    
C16   N4    A    
O11   C7    A    
C76   H32   S    
C44   C71   A    
O12   C8    A    
C31   C59   A    
C50   H14   S    
O10   V2    S    
C49   H13   S    
C13   N1    A    
C50   C82   A    
O5    V1    S    
C53   C78   A    
C75   H31   S    
O7    V3    S    
C55   C80   A    
C63   C75   A    
O8    V4    S    
C51   C83   A    
C12   H4    S    
C42   C69   A    
C28   C60   A    
C41   C70   A    
C83   F3    S    
C64   C72   A    
O18   V4    S    
C80   H28   S    
C36   H12   S    
N4    C40   S    
C46   C50   A    
O11   V3    S    
C24   C40   A    
C8    C10   S    
C68   C72   A    
C32   C36   A    
C74   C78   A    
C11   H3    S    
C32   H8    S    
O5    C1    A    
C54   C77   A    
C42   C46   A    
C75   C79   A    
C1    C60   S    
C41   C45   A    
O8    C4    A    
C13   C45   A    
C43   C72   A    
C9    C10   D    
O9    C5    A    
C36   C40   A    
N2    C18   A    
C21   C25   A    
C44   C56   A    
C62   C65   A    
C52   C84   A    
C66   C70   A    
C61   C66   A    
C14   N2    A    
C65   C69   A    
C3    C58   S    
O6    V2    S    
C23   H24   S    
C67   C71   A    
C65   C82   A    
C26   C58   A    
C17   C53   A    
O10   C6    A    
N1    C37   S    
C4    C57   S    
C56   C79   A    
C23   C39   A    
C22   C38   A    
O16   V4    S    
O9    V1    S    
C18   O25   S    
C35   H11   S    
C3    O13   A    
C10   H2    S    
C48   C52   A    
C17   O26   S    
C16   C48   A    
O6    C2    A    
C34   H10   S    
C64   C76   A    
C5    C11   S    
C33   H9    S    
O12   V4    S    
C6    C12   S    
C23   C27   A    
C30   C58   A    
C24   C28   A    
C30   H6    S    
O20   V2    S    
C29   H5    S    
C77   H25   S    
C62   C74   A    
C35   C39   A    
C22   H21   S    
C15   N3    A    
C82   F2    S    
C2    C59   S    
O4    C8    A    
C29   C33   A    
C29   C57   A    
C66   C81   A    
C73   H29   S    
N3    C19   A    
C26   H17   S    
C9    H1    S    
C20   O27   S    
C43   C47   A    
C52   H16   S    
N4    C20   A    
C20   C56   A    
C51   H15   S    
C19   O28   S    
C4    O14   A    
C13   O21   S    
C61   C73   A    
C15   O23   S    
C64   C67   A    
C45   C49   A    
C16   O24   S    
C49   C81   A    
C28   H19   S    
