data_mof_unit_21306.cif
_audit_creation_date              2012-12-11T17:43:58-0500
_audit_creation_method            fapswitch 2.2
_symmetry_space_group_name_H-M    P1
_symmetry_Int_Tables_number       1
_space_group_crystal_system       triclinic
_cell_length_a                    20.259584
_cell_length_b                    22.923253
_cell_length_c                    6.92807
_cell_angle_alpha                 89.8703
_cell_angle_beta                  87.055499
_cell_angle_gamma                 90.121067
_cell_volume                      3213.23946365

loop_
_atom_site_label
_atom_site_type_symbol
_atom_type_description
_atom_site_fract_x
_atom_site_fract_y
_atom_site_fract_z
_atom_type_partial_charge
O1    O     O_R   0.751270 0.447300 0.600030 -0.548729
O2    O     O_R   0.248730 0.947300 0.399970 -0.546791
O3    O     O_R   0.613530 0.440160 0.952150 -0.544279
O4    O     O_R   0.386470 0.940160 0.047850 -0.545433
O5    O     O_R   0.613050 0.552700 0.122560 -0.527031
O6    O     O_R   0.386950 0.052700 0.877440 -0.547243
C1    C     C_R   0.592019 0.425442 0.786608 0.746801
C2    C     C_R   0.407901 0.925389 0.213337 0.735401
O7    O     O_R   0.750780 0.440350 0.929820 -0.535302
O8    O     O_R   0.249220 0.940350 0.070180 -0.537472
O9    O     O_R   0.751280 0.552900 0.100070 -0.488387
O10   O     O_R   0.248720 0.052900 0.899930 -0.509074
C3    C     C_R   0.774349 0.426579 0.758197 0.827731
C4    C     C_R   0.225507 0.926720 0.242083 0.806688
O11   O     O_R   0.613040 0.447100 0.622520 -0.535388
O12   O     O_R   0.386960 0.947100 0.377480 -0.525729
O13   O     O_3   0.682160 0.536920 0.777780 -0.346864
O14   O     O_3   0.317840 0.036920 0.222220 -0.353191
V1    V     V_3+5 0.682160 0.493150 0.052630 1.565769
V2    V     V_3+5 0.317840 0.993150 0.947370 1.550715
O15   O     O_R   0.750790 0.559840 0.429870 -0.555289
O16   O     O_R   0.249210 0.059840 0.570130 -0.536919
C5    C     C_R   0.775226 0.572682 0.257813 0.842251
C6    C     C_R   0.224732 0.072726 0.742234 0.835704
O17   O     O_R   0.613540 0.559650 0.452200 -0.543846
O18   O     O_R   0.386460 0.059650 0.547800 -0.521242
C7    C     C_R   0.595740 0.577827 0.284577 0.736247
C8    C     C_R   0.406031 0.076585 0.714113 0.735989
V3    V     V_3+5 0.682160 0.506850 0.552630 1.531456
V4    V     V_3+5 0.317840 0.006850 0.447370 1.561225
O19   O     O_3   0.682150 0.463080 0.277610 -0.379265
O20   O     O_3   0.317850 0.963080 0.722390 -0.370360
C9    C     C_R   0.570246 0.859911 0.065891 -0.118376
C10   C     C_R   0.422516 0.363003 0.768022 -0.118209
H1    H     H_    0.524653 0.942839 0.036426 0.117244
H2    H     H_    0.463415 0.447407 0.815583 0.120586
H3    H     H_    0.658173 0.779378 0.006763 0.175487
H4    H     H_    0.336491 0.286425 0.655816 0.173898
H5    H     H_    0.614672 0.874114 0.985078 0.137752
H6    H     H_    0.372795 0.380130 0.763175 0.139863
C11   C     C_R   0.462627 0.883509 0.206980 -0.070799
C12   C     C_R   0.539159 0.381660 0.784703 -0.074419
C13   C     C_R   0.479776 0.601515 0.349091 -0.171938
C14   C     C_R   0.520846 0.096076 0.777113 -0.171431
C15   C     C_R   0.425408 0.638095 0.354026 -0.103221
C16   C     C_R   0.570869 0.132237 0.835779 -0.095678
C17   C     C_R   0.432895 0.696739 0.307508 -0.067448
C18   C     C_R   0.562976 0.192358 0.834337 -0.064868
C19   C     C_R   0.495642 0.721247 0.261314 0.060288
C20   C     C_R   0.506785 0.218474 0.759332 0.059003
C21   C     C_R   0.550385 0.681934 0.226751 0.004785
C22   C     C_R   0.453520 0.181319 0.705153 0.012117
C23   C     C_R   0.503776 0.782870 0.228083 0.032838
C24   C     C_R   0.499536 0.280686 0.754478 0.029952
C25   C     C_R   0.562719 0.802126 0.128323 0.051072
C26   C     C_R   0.434968 0.303465 0.740802 0.051006
C27   C     C_R   0.613785 0.763607 0.084681 -0.154569
C28   C     C_R   0.383882 0.267485 0.686246 -0.157712
C29   C     C_R   0.608895 0.704954 0.132132 0.193196
C30   C     C_R   0.394442 0.208553 0.650220 0.199642
C31   C     C_R   0.456279 0.826681 0.286197 0.178816
C32   C     C_R   0.552984 0.321661 0.757444 0.181063
C33   C     C_R   0.519415 0.899316 0.096980 -0.188799
C34   C     C_R   0.474040 0.401393 0.796616 -0.218697
C35   C     C_R   0.542164 0.621664 0.282736 -0.069177
C36   C     C_R   0.461062 0.119149 0.718790 -0.069763
H7    H     H_    0.472621 0.556229 0.390801 0.111309
H8    H     H_    0.527130 0.049281 0.789933 0.107777
H9    H     H_    0.388177 0.721574 0.297239 0.169919
H10   H     H_    0.599721 0.217695 0.904060 0.172714
H11   H     H_    0.376797 0.620752 0.393232 0.144149
H12   H     H_    0.614909 0.113375 0.892148 0.144742
C37   C     C_R   0.169902 0.883704 0.258525 -0.191806
C38   C     C_R   0.829252 0.382965 0.742663 -0.185770
C39   C     C_R   0.122305 0.879705 0.116131 0.211094
C40   C     C_R   0.876567 0.378199 0.885728 0.207461
C41   C     C_R   0.068605 0.839746 0.138635 0.348998
C42   C     C_R   0.929380 0.337460 0.864472 0.348123
C43   C     C_R   0.064640 0.801072 0.299934 0.296856
C44   C     C_R   0.932707 0.298784 0.703753 0.294326
C45   C     C_R   0.111911 0.806228 0.440794 0.222370
C46   C     C_R   0.885615 0.304583 0.562560 0.224648
C47   C     C_R   0.163247 0.847102 0.420821 -0.297332
C48   C     C_R   0.835239 0.346221 0.581215 -0.272089
C49   C     C_R   0.888758 0.699108 0.373795 0.215088
C50   C     C_R   0.106952 0.196008 0.623966 0.208270
C51   C     C_R   0.838004 0.657416 0.386319 -0.304014
C52   C     C_R   0.157534 0.154400 0.609421 -0.291290
C53   C     C_R   0.934382 0.699790 0.211596 0.319094
C54   C     C_R   0.062973 0.197296 0.789760 0.319468
N1    N     N_2   0.013693 0.757727 0.329916 -0.169319
N2    N     N_2   0.983072 0.255084 0.673739 -0.167834
N3    N     N_2   0.984831 0.743233 0.182242 -0.103147
N4    N     N_2   0.012633 0.240657 0.820397 -0.101663
C55   C     C_R   0.830569 0.615905 0.240124 -0.133966
C56   C     C_R   0.168111 0.114766 0.759744 -0.149722
H13   H     H_    0.803005 0.658420 0.509877 0.213190
H14   H     H_    0.189900 0.154186 0.480380 0.233221
H15   H     H_    0.198887 0.849507 0.531889 0.194715
H16   H     H_    0.799765 0.349086 0.469808 0.196810
C57   C     C_R   0.876240 0.615663 0.079131 0.247864
C58   C     C_R   0.123711 0.114811 0.923950 0.230348
C59   C     C_R   0.926451 0.659371 0.061698 0.258640
C60   C     C_R   0.072523 0.157540 0.941160 0.263268
Br1   Br    Br    0.887881 0.757267 0.573398 -0.395002
Br2   Br    Br    0.106436 0.253665 0.421976 -0.396450
Br3   Br    Br    0.108233 0.756499 0.664044 -0.403278
Br4   Br    Br    0.888273 0.254765 0.340335 -0.385254
O21   O     O_3   0.872026 0.571438 0.945103 -0.622465
H17   H     H_    0.916760 0.563460 0.887016 0.307688
O22   O     O_3   0.129921 0.071664 0.061328 -0.624129
H18   H     H_    0.085503 0.062122 0.119292 0.309126
O23   O     O_3   0.019158 0.838437 0.008037 -0.572387
H19   H     H_    0.028335 0.867207 0.903375 0.358215
O24   O     O_3   0.978560 0.335390 0.995808 -0.572834
H20   H     H_    0.969924 0.364288 0.099853 0.357500
O25   O     O_3   0.968466 0.664316 0.898960 -0.575918
H21   H     H_    0.946252 0.648232 0.786683 0.329178
O26   O     O_3   0.031154 0.162277 0.105238 -0.574314
H22   H     H_    0.053548 0.145960 0.216869 0.329198
O27   O     O_3   0.125635 0.916767 0.959684 -0.630742
H23   H     H_    0.162043 0.901755 0.872517 0.306621
O28   O     O_3   0.873889 0.415226 0.041684 -0.631995
H24   H     H_    0.836925 0.400807 0.128428 0.306252
Br5   Br    Br    0.391767 0.816494 0.499784 -0.571277
Br6   Br    Br    0.642878 0.301669 0.673829 -0.572063
Br7   Br    Br    0.681464 0.662180 0.019898 -0.539123
Br8   Br    Br    0.329996 0.174269 0.493691 -0.554705

loop_
_geom_bond_atom_site_label_1
_geom_bond_atom_site_label_2
_ccdc_geom_bond_type
C9    C25   A    
C52   C56   A    
C10   C26   A    
O11   V3    S    
C56   C58   A    
C15   H11   S    
O13   V3    S    
C14   C36   A    
C42   O24   S    
C11   C31   A    
O4    C2    A    
V1    O19   S    
C45   Br3   S    
O28   H24   S    
C17   C19   A    
C59   O25   S    
O9    V1    S    
C9    H5    S    
C38   C40   A    
C5    C55   S    
C10   H6    S    
C40   C42   A    
O3    C1    A    
C6    C56   S    
C42   C44   A    
C27   C29   A    
C57   O21   S    
O24   H20   S    
O14   V2    S    
C21   C35   A    
C15   C17   A    
O9    C5    A    
O7    C3    A    
C17   H9    S    
C22   C30   A    
O5    C7    A    
C23   C31   A    
O7    V1    S    
O6    C8    A    
O22   H18   S    
O8    V2    S    
C19   C21   A    
C51   C55   A    
C20   C22   A    
O3    V1    S    
O14   V4    S    
C46   Br4   S    
C12   C32   A    
C29   Br7   S    
C16   H12   S    
C9    C33   A    
C60   O26   S    
C23   C25   A    
C2    O12   A    
C47   H15   S    
C53   C59   A    
V3    O19   S    
C37   C39   A    
C58   O22   S    
C50   Br2   S    
C49   Br1   S    
O1    V3    S    
C45   C47   A    
C14   C16   A    
C54   N4    S    
C16   C18   A    
C49   C51   A    
O17   V3    S    
C24   C26   A    
C48   H16   S    
C4    C37   S    
C30   Br8   S    
C2    C11   S    
C44   C46   A    
C50   C54   A    
C38   C48   A    
C43   C45   A    
C49   C53   A    
C1    O11   A    
C24   C32   A    
O15   V3    S    
C44   N2    S    
C8    C36   S    
C1    C12   S    
C7    C35   S    
N1    N3    D    
C13   C15   A    
C13   C35   A    
O10   V2    S    
C10   C34   A    
C41   C43   A    
H4    C28   S    
C58   C60   A    
C39   C41   A    
C54   C60   A    
O27   H23   S    
C13   H7    S    
C41   O23   S    
O18   V4    S    
C46   C48   A    
O15   C5    A    
O8    C4    A    
O16   C6    A    
C14   H8    S    
O1    C3    A    
C11   C33   A    
O12   V4    S    
C12   C34   A    
C22   C36   A    
C32   Br6   S    
O23   H19   S    
V2    O20   S    
O16   V4    S    
C39   O27   S    
C40   O28   S    
C43   N1    S    
C18   H10   S    
C31   Br5   S    
O26   H22   S    
O5    V1    S    
O17   C7    A    
O6    V2    S    
O10   C6    A    
O18   C8    A    
O2    V4    S    
C25   C27   A    
C20   C24   A    
H2    C34   S    
O25   H21   S    
V4    O20   S    
N2    N4    D    
C19   C23   A    
C18   C20   A    
O13   V1    S    
C26   C28   A    
C50   C52   A    
C53   N3    S    
O2    C4    A    
H3    C27   S    
O4    V2    S    
C21   C29   A    
C3    C38   S    
C57   C59   A    
H1    C33   S    
O21   H17   S    
C28   C30   A    
C37   C47   A    
C52   H14   S    
C55   C57   A    
C51   H13   S    
