data_mof_unit_27457.cif
_audit_creation_date              2012-12-11T17:47:34-0500
_audit_creation_method            fapswitch 2.2
_symmetry_space_group_name_H-M    P1
_symmetry_Int_Tables_number       1
_space_group_crystal_system       triclinic
_cell_length_a                    14.86163
_cell_length_b                    14.950515
_cell_length_c                    15.181754
_cell_angle_alpha                 110.548763
_cell_angle_beta                  108.921689
_cell_angle_gamma                 108.732915
_cell_volume                      2602.82667259

loop_
_atom_site_label
_atom_site_type_symbol
_atom_type_description
_atom_site_fract_x
_atom_site_fract_y
_atom_site_fract_z
_atom_type_partial_charge
C1    C     C_R   0.904484 0.194450 0.990676 -0.139843
C2    C     C_R   0.027063 0.753672 0.940231 -0.122842
C3    C     C_R   0.295562 0.869578 0.301839 0.062314
C4    C     C_R   0.675581 0.216005 0.673579 0.052081
C5    C     C_R   0.324982 0.500001 0.052133 0.022693
C6    C     C_R   0.691015 0.499539 0.052977 0.046813
C7    C     C_R   0.037285 0.496994 0.320536 0.044815
C8    C     C_R   0.051450 0.501673 0.694738 0.067766
C9    C     C_R   0.925148 0.855585 0.836923 -0.240431
C10   C     C_R   0.834680 0.965926 0.930817 -0.230976
C11   C     C_R   0.029895 0.047485 0.666100 -0.188054
C12   C     C_R   0.942287 0.960059 0.247376 -0.184684
C13   C     C_R   0.959505 0.995728 0.696717 -0.175153
C14   C     C_R   0.945775 0.954917 0.155388 -0.133681
C15   C     C_R   0.662634 0.302441 0.187878 -0.111514
C16   C     C_R   0.426873 0.700195 0.846807 -0.093887
C17   C     C_R   0.765302 0.377100 0.280268 -0.142674
C18   C     C_R   0.326270 0.620632 0.753600 -0.144274
C19   C     C_R   0.842268 0.343202 0.310332 0.118468
C20   C     C_R   0.251916 0.651606 0.708367 0.117645
C21   C     C_R   0.814913 0.233846 0.246781 -0.190579
C22   C     C_R   0.277956 0.761968 0.758410 -0.186949
C23   C     C_R   0.297083 0.805629 0.209785 -0.133445
C24   C     C_R   0.684987 0.243332 0.775799 -0.126022
C25   C     C_R   0.712550 0.159814 0.154597 -0.092052
C26   C     C_R   0.378355 0.841000 0.851183 -0.089779
C27   C     C_R   0.636369 0.194031 0.125318 -0.082117
C28   C     C_R   0.453146 0.810454 0.894521 -0.076387
C29   C     C_R   0.957066 0.428990 0.504777 -0.267635
C30   C     C_R   0.141977 0.565156 0.511547 -0.257287
C31   C     C_R   0.055159 0.500078 0.601487 0.070905
C32   C     C_R   0.044311 0.490869 0.414110 0.075778
C33   C     C_R   0.148614 0.570152 0.606457 0.018810
C34   C     C_R   0.950389 0.420883 0.409795 0.018532
C35   C     C_R   0.002784 0.988052 0.788849 0.087634
C36   C     C_R   0.848227 0.903141 0.058102 0.092508
C37   C     C_R   0.183184 0.067484 0.807940 0.246923
C38   C     C_R   0.746510 0.883871 0.153488 0.250400
C39   C     C_R   0.112365 0.957616 0.487274 -0.141647
C40   C     C_R   0.778196 0.013970 0.475560 -0.106084
C41   C     C_R   0.201734 0.014414 0.478959 -0.185628
C42   C     C_R   0.686289 0.018385 0.476675 -0.094683
C43   C     C_R   0.292112 0.998056 0.508789 0.115566
C44   C     C_R   0.659465 0.093550 0.456050 0.110131
C45   C     C_R   0.224490 0.408061 0.975192 -0.135056
C46   C     C_R   0.785523 0.591097 0.089849 -0.164762
C47   C     C_R   0.296193 0.931704 0.554790 -0.128539
C48   C     C_R   0.720642 0.158351 0.426658 -0.143440
C49   C     C_R   0.207101 0.875990 0.563448 -0.112398
C50   C     C_R   0.814956 0.156065 0.430075 -0.087826
C51   C     C_R   0.114471 0.887314 0.528034 -0.072118
C52   C     C_R   0.845145 0.086545 0.457174 -0.107916
C53   C     C_R   0.476076 0.132933 0.572069 -0.229383
C54   C     C_R   0.467629 0.032787 0.375685 -0.211752
C55   C     C_R   0.573655 0.154751 0.569395 0.059349
C56   C     C_R   0.376189 0.985746 0.385342 0.049052
C57   C     C_R   0.568469 0.104087 0.467914 0.008412
C58   C     C_R   0.378764 0.042026 0.484508 0.022035
C59   C     C_R   0.141828 0.085326 0.722997 -0.124954
C60   C     C_R   0.842397 0.920290 0.245030 -0.141965
C61   C     C_R   0.853148 0.892789 0.959642 0.041112
C62   C     C_R   0.933940 0.949333 0.832874 0.044127
C63   C     C_R   0.114354 0.020662 0.842125 -0.221220
C64   C     C_R   0.748635 0.871671 0.058494 -0.271236
C65   C     C_R   0.902198 0.837602 0.913424 0.059496
C66   C     C_R   0.894871 0.011248 0.888492 0.053738
C67   C     C_R   0.056304 0.590776 0.313535 -0.141932
C68   C     C_R   0.999159 0.409664 0.698406 -0.170011
C69   C     C_3   0.482342 0.405636 0.981282 -0.138603
C70   C     C_3   0.542369 0.594241 0.152095 -0.122572
C71   C     C_3   0.449548 0.491436 0.975207 -0.146388
C72   C     C_3   0.576766 0.508267 0.158667 -0.182090
C73   C     C_3   0.425997 0.500158 0.068219 0.172346
C74   C     C_3   0.598771 0.499285 0.065007 0.159926
C75   C     C_3   0.457764 0.414010 0.074407 -0.134989
C76   C     C_3   0.566443 0.584894 0.058604 -0.123693
C77   C     C_R   0.314761 0.591859 0.067094 -0.110670
C78   C     C_R   0.694775 0.408205 0.996103 -0.139470
C79   C     C_R   0.974691 0.407130 0.218301 -0.103164
C80   C     C_R   0.085801 0.592586 0.788928 -0.126784
C81   C     C_R   0.202926 0.803055 0.297184 -0.146707
C82   C     C_R   0.780169 0.251521 0.688019 -0.131065
C83   C     C_R   0.999612 0.196775 0.904377 -0.146543
C84   C     C_R   0.926946 0.742455 0.022622 -0.127763
C85   C     C_R   0.933493 0.129457 0.926851 0.072702
C86   C     C_R   0.947231 0.777128 0.954392 0.046587
H1    H     H_    0.843192 0.168504 0.013077 0.095488
H2    H     H_    0.064011 0.770672 0.893456 0.095565
H3    H     H_    0.998440 0.059471 0.599172 0.120740
H4    H     H_    0.017186 0.995568 0.320221 0.122449
H5    H     H_    0.557060 0.136416 0.054106 0.142955
H6    H     H_    0.531056 0.872963 0.965357 0.127972
H7    H     H_    0.603036 0.328128 0.164732 0.130645
H8    H     H_    0.484591 0.676483 0.881421 0.117718
H9    H     H_    0.784749 0.460842 0.328314 0.107778
H10   H     H_    0.306930 0.535630 0.716066 0.106774
H11   H     H_    0.874053 0.206708 0.267019 0.120280
H12   H     H_    0.219467 0.786182 0.727061 0.125683
H13   H     H_    0.692536 0.076090 0.105707 0.127012
H14   H     H_    0.398438 0.925972 0.889730 0.151911
H15   H     H_    0.883867 0.381804 0.504042 0.134461
H16   H     H_    0.212307 0.620102 0.513576 0.135992
H17   H     H_    0.873429 0.969278 0.654670 0.119084
H18   H     H_    0.023979 0.986237 0.158334 0.122894
H19   H     H_    0.410842 0.344755 0.081434 0.143268
H20   H     H_    0.612593 0.652227 0.049087 0.137606
H21   H     H_    0.348736 0.832925 0.178087 0.118828
H22   H     H_    0.620536 0.227842 0.795998 0.104501
H23   H     H_    0.147923 0.011317 0.911105 0.147249
H24   H     H_    0.674165 0.838905 0.985752 0.131846
H25   H     H_    0.044838 0.842685 0.533377 0.117012
H26   H     H_    0.919823 0.088202 0.461800 0.090086
H27   H     H_    0.041217 0.967673 0.462335 0.103351
H28   H     H_    0.797781 0.954940 0.489507 0.101445
H29   H     H_    0.199171 0.067268 0.445566 0.113432
H30   H     H_    0.637188 0.964997 0.495544 0.107667
H31   H     H_    0.365785 0.918706 0.578451 0.118987
H32   H     H_    0.699328 0.214779 0.408065 0.122061
H33   H     H_    0.208280 0.820788 0.593566 0.114986
H34   H     H_    0.867601 0.210112 0.415424 0.118700
H35   H     H_    0.476833 0.174557 0.646977 0.133491
H36   H     H_    0.467021 0.997361 0.299934 0.148486
H37   H     H_    0.954556 0.808551 0.793894 0.129730
H38   H     H_    0.794112 0.003809 0.964564 0.123047
H39   H     H_    0.395683 0.484794 0.899851 0.120652
H40   H     H_    0.632404 0.516348 0.233978 0.113220
H41   H     H_    0.460072 0.330348 0.909594 0.149363
H42   H     H_    0.564239 0.670472 0.222652 0.142439
H43   H     H_    0.206493 0.323638 0.939541 0.117757
H44   H     H_    0.812655 0.674769 0.147421 0.112022
H45   H     H_    0.099575 0.674639 0.378660 0.113070
H46   H     H_    0.974308 0.326262 0.642769 0.111192
H47   H     H_    0.378890 0.676418 0.116511 0.140484
H48   H     H_    0.639437 0.324151 0.968040 0.118083
H49   H     H_    0.949011 0.322561 0.194678 0.108628
H50   H     H_    0.136696 0.677263 0.816184 0.108390
H51   H     H_    0.161920 0.825325 0.340011 0.131656
H52   H     H_    0.806927 0.252554 0.631149 0.122775
H53   H     H_    0.030622 0.176582 0.850527 0.131498
H54   H     H_    0.864605 0.739390 0.044259 0.126764
H55   H     H_    0.195851 0.125485 0.699024 0.146685
H56   H     H_    0.839607 0.919617 0.314809 0.130170
N1    N     N_R   0.947560 0.293820 0.002910 -0.042110
N2    N     N_R   0.052440 0.706180 0.997090 -0.041540
N3    N     N_R   0.208960 0.706170 0.152110 -0.042764
N4    N     N_R   0.791040 0.293830 0.847890 -0.041156
N5    N     N_R   0.154330 0.443160 0.946140 -0.042295
N6    N     N_R   0.845670 0.556840 0.053860 -0.038964
N7    N     N_R   0.002190 0.556820 0.208880 -0.040789
N8    N     N_R   0.997810 0.443180 0.791120 -0.039631
N9    N     N_R   0.210550 0.556810 0.002910 -0.041113
N10   N     N_R   0.789450 0.443190 0.997090 -0.037643
N11   N     N_R   0.945970 0.443180 0.152110 -0.040520
N12   N     N_R   0.054030 0.556820 0.847890 -0.039843
N13   N     N_R   0.151530 0.706170 0.208880 -0.042410
N14   N     N_R   0.848470 0.293830 0.791120 -0.042442
N15   N     N_R   0.004980 0.293810 0.946140 -0.042837
N16   N     N_R   0.995020 0.706190 0.053860 -0.043717
Ni1   Ni    Ni4+2 0.869690 0.369690 0.000000 0.220968
Ni2   Ni    Ni4+2 0.130310 0.630310 0.000000 0.225309
Ni3   Ni    Ni4+2 0.001390 0.369680 0.869810 0.214203
Ni4   Ni    Ni4+2 0.998610 0.630320 0.130190 0.214155
I1    I     I_    0.348008 0.107995 0.882386 -0.623112
I2    I     I_    0.603554 0.858687 0.165020 -0.593121

loop_
_geom_bond_atom_site_label_1
_geom_bond_atom_site_label_2
_ccdc_geom_bond_type
C16   C28   A    
C39   C51   A    
C1    H1    S    
C22   H12   S    
C67   N7    A    
C2    N2    A    
C3    C23   A    
C77   N9    A    
C66   C85   S    
C83   H53   S    
C78   N10   A    
C65   C86   S    
C39   C41   A    
C81   H51   S    
C23   N3    A    
C42   C44   A    
C50   H34   S    
C12   H4    S    
C19   C21   A    
C84   C86   A    
C13   C35   A    
C10   H38   S    
C14   C36   A    
C71   C76   S    
C4    C24   A    
C6    C78   A    
C52   H26   S    
C18   H10   S    
C7    C67   A    
C68   H46   S    
C2    C86   A    
C69   C71   S    
N7    N11   A    
C22   C26   A    
C43   C58   S    
C60   H56   S    
C76   H20   S    
C64   H24   S    
C25   H13   S    
C40   H28   S    
C46   N6    A    
C39   H27   S    
C3    C81   A    
C50   C52   A    
C31   C33   A    
N1    N15   A    
C24   H22   S    
C13   H17   S    
C37   I1    S    
C82   N14   A    
C10   C66   A    
C54   H36   S    
N10   Ni1   S    
C41   C43   A    
C77   H47   S    
C41   H29   S    
C72   C75   S    
C11   C59   A    
C47   C49   A    
C37   C63   A    
C6    C74   S    
C38   C64   A    
C53   C55   A    
N13   Ni4   S    
C1    C85   A    
C15   C27   A    
C54   C56   A    
C62   C66   A    
C9    C62   A    
C72   C74   S    
N5    Ni3   S    
C71   C73   S    
N3    Ni2   S    
C84   N16   A    
C48   H32   S    
N4    Ni1   S    
C49   C51   A    
C40   C52   A    
C5    C45   A    
C29   C34   A    
C72   H40   S    
C32   C34   A    
N11   Ni1   S    
N5    N9    A    
N12   Ni2   S    
C1    N1    A    
C79   N11   A    
C21   H11   S    
C3    C56   S    
C11   H3    S    
C14   H18   S    
C83   N15   A    
C44   C57   S    
C69   H41   S    
C23   H21   S    
C30   H16   S    
C70   C73   S    
C29   H15   S    
C69   C74   S    
C28   H6    S    
C16   C18   A    
C27   H5    S    
C48   C50   A    
C78   H48   S    
C59   H55   S    
C37   C59   A    
C74   C76   S    
C38   C60   A    
C20   C33   S    
C9    H37   S    
C12   C60   A    
C42   H30   S    
C83   C85   A    
C12   C14   A    
N14   Ni3   S    
C75   H19   S    
C55   C57   A    
C4    C55   S    
C70   C76   S    
C2    H2    S    
C10   C61   A    
N2    Ni2   S    
C15   H7    S    
C73   C75   S    
N2    N16   A    
C36   C61   S    
N15   Ni3   S    
C7    C79   A    
C70   H42   S    
C15   C17   A    
N8    Ni3   S    
C21   C25   A    
C51   H25   S    
C7    C32   S    
C6    C46   A    
C30   C33   A    
C45   N5    A    
C8    C31   S    
C16   H8    S    
C67   H45   S    
C17   H9    S    
N6    N10   A    
C20   C22   A    
C19   C34   S    
C80   H50   S    
C46   H44   S    
C70   C72   S    
C53   C58   A    
C80   N12   A    
C25   C27   A    
C79   H49   S    
C26   C28   A    
C81   N13   A    
N6    Ni4   S    
N9    Ni2   S    
C8    C68   A    
C29   C31   A    
C24   N4    A    
C30   C32   A    
C11   C13   A    
C49   H33   S    
C43   C47   A    
C45   H43   S    
C40   C42   A    
C17   C19   A    
C56   C58   A    
C69   C75   S    
C35   C62   S    
C18   C20   A    
N1    Ni1   S    
C5    C73   S    
C9    C65   A    
C68   N8    A    
N16   Ni4   S    
C53   H35   S    
N3    N13   A    
C61   C65   A    
C47   H31   S    
C4    C82   A    
C38   I2    S    
C84   H54   S    
C82   H52   S    
N8    N12   A    
C8    C80   A    
C71   H39   S    
C35   C63   A    
N7    Ni4   S    
N4    N14   A    
C36   C64   A    
C5    C77   A    
C44   C48   A    
C26   H14   S    
C63   H23   S    
C54   C57   A    
