data_mof_unit_27909.cif
_audit_creation_date              2012-12-10T17:02:04-0500
_audit_creation_method            fapswitch 2.2
_symmetry_space_group_name_H-M    P1
_symmetry_Int_Tables_number       1
_space_group_crystal_system       triclinic
_cell_length_a                    10.768825
_cell_length_b                    11.028366
_cell_length_c                    9.856006
_cell_angle_alpha                 111.300901
_cell_angle_beta                  98.196811
_cell_angle_gamma                 90.550948
_cell_volume                      1077.02367377

loop_
_atom_site_label
_atom_site_type_symbol
_atom_type_description
_atom_site_fract_x
_atom_site_fract_y
_atom_site_fract_z
_atom_type_partial_charge
C1    C     C_R   0.490643 0.254094 0.440615 0.907509
C2    C     C_R   0.070635 0.625491 0.542438 0.076350
C3    C     C_R   0.130033 0.506989 0.505812 -0.092970
C4    C     C_R   0.061900 0.388099 0.465564 -0.228323
C5    C     C_R   0.932178 0.382376 0.458849 -0.028303
C6    C     C_R   0.870804 0.500293 0.495356 -0.152799
C7    C     C_2   0.487334 0.114527 0.407133 -0.299314
C8    C     C_2   0.508780 0.069528 0.516162 -0.114253
C9    C     C_2   0.519161 0.885280 0.592607 -0.271155
C10   C     C_2   0.504106 0.930258 0.483279 -0.140223
C11   C     C_2   0.504969 0.517146 0.085374 -0.006271
C12   C     C_R   0.263064 0.502697 0.502035 0.782863
C13   C     C_2   0.488074 0.493917 0.922468 -0.097084
C14   C     C_R   0.510371 0.745851 0.559355 0.816596
C15   C     C_R   0.737041 0.497614 0.498004 0.840472
C16   C     C_R   0.139264 0.746850 0.584261 -0.222182
C17   C     C_R   0.078262 0.863999 0.619810 0.032489
C18   C     C_R   0.947485 0.859227 0.612267 -0.170689
C19   C     C_R   0.878787 0.740382 0.571513 -0.167708
C20   C     C_R   0.939050 0.622035 0.536583 0.088391
Cu1   Cu    Cu3+1 0.521920 0.521810 0.644910 0.999102
Cu2   Cu    Cu3+1 0.478080 0.478190 0.355090 0.988787
H1    H     H_    0.110942 0.298850 0.436710 0.175257
H2    H     H_    0.467660 0.048133 0.292658 0.159228
H3    H     H_    0.411306 0.425898 0.851464 0.154830
H4    H     H_    0.567582 0.597357 0.163090 0.179360
H5    H     H_    0.385867 0.369217 0.062606 0.204373
H6    H     H_    0.897662 0.947700 0.638320 0.190223
H7    H     H_    0.486112 0.864164 0.368526 0.174517
H8    H     H_    0.536921 0.951656 0.707173 0.182881
N1    N     N_2   0.445130 0.445430 0.137370 -0.288033
N2    N     N_2   0.554930 0.554500 0.862630 -0.239476
O1    O     O_R   0.511700 0.332330 0.577400 -0.596351
O2    O     O_R   0.474680 0.295500 0.332650 -0.549343
O3    O     O_R   0.338160 0.518420 0.622400 -0.588915
O4    O     O_R   0.301140 0.481590 0.377650 -0.567146
O5    O     O_R   0.525320 0.704500 0.667350 -0.546532
O6    O     O_R   0.488300 0.667670 0.422600 -0.598968
O7    O     O_R   0.698860 0.518410 0.622350 -0.573151
O8    O     O_R   0.661840 0.481580 0.377600 -0.542116
C21   C     C_2   0.667270 0.630864 0.944881 1.006085
O9    O     O_2   0.694957 0.730835 0.926455 -0.581396
O10   O     O_R   0.750221 0.587535 0.037930 -0.786610
H9    H     H_    0.827312 0.649707 0.087495 0.327610
H10   H     H_    0.240366 0.750939 0.589785 0.156705
C22   C     C_2   0.150421 0.991529 0.665352 0.855001
O11   O     O_2   0.265003 0.996747 0.676107 -0.622741
O12   O     O_R   0.087527 0.106645 0.696961 -0.735535
H11   H     H_    0.146888 0.186992 0.725993 0.336940
H12   H     H_    0.778016 0.742412 0.567357 0.132595
C23   C     C_2   0.865192 0.251470 0.413102 0.847107
O13   O     O_2   0.755871 0.231516 0.352213 -0.600780
O14   O     O_R   0.929191 0.149062 0.436011 -0.737301
H13   H     H_    0.874352 0.064808 0.400134 0.339598
H14   H     H_    0.528595 0.135622 0.630832 0.190801

loop_
_geom_bond_atom_site_label_1
_geom_bond_atom_site_label_2
_ccdc_geom_bond_type
C16   H10   S    
C9    C14   S    
C18   H6    S    
O14   H13   S    
Cu1   O3    S    
C7    H2    S    
C12   O4    A    
C2    C16   A    
C9    C10   D    
C21   O10   S    
C13   N2    D    
C19   C20   A    
Cu1   O7    S    
O10   H9    S    
Cu2   O8    S    
C17   C18   A    
C14   O6    A    
C11   N1    D    
C7    C8    D    
Cu1   Cu2   S    
C14   O5    A    
C11   C13   S    
C19   H12   S    
C13   H3    S    
C9    H8    S    
C8    H14   S    
O12   H11   S    
C1    O2    A    
C2    C3    A    
C5    C6    A    
Cu2   O2    S    
Cu1   N2    S    
C22   O12   S    
C15   O8    A    
Cu1   O1    S    
Cu2   N1    S    
C1    O1    A    
N2    C21   S    
H5    N1    S    
C23   O13   D    
Cu2   O6    S    
C10   H7    S    
C4    C5    A    
C6    C20   A    
C17   C22   S    
Cu1   O5    S    
C8    C10   S    
C18   C19   A    
C21   O9    D    
C4    H1    S    
C22   O11   D    
C5    C23   S    
C3    C12   S    
C11   H4    S    
C6    C15   S    
C1    C7    S    
C2    C20   A    
C12   O3    A    
Cu2   O4    S    
C3    C4    A    
C15   O7    A    
C16   C17   A    
C23   O14   S    
