data_mof_unit_34236.cif
_audit_creation_date              2012-12-10T17:08:33-0500
_audit_creation_method            fapswitch 2.2
_symmetry_space_group_name_H-M    P1
_symmetry_Int_Tables_number       1
_space_group_crystal_system       triclinic
_cell_length_a                    18.263515
_cell_length_b                    18.261113
_cell_length_c                    34.397289
_cell_angle_alpha                 90.011545
_cell_angle_beta                  90.060047
_cell_angle_gamma                 90.06438
_cell_volume                      11471.898696

loop_
_atom_site_label
_atom_site_type_symbol
_atom_type_description
_atom_site_fract_x
_atom_site_fract_y
_atom_site_fract_z
_atom_type_partial_charge
C1    C     C_R   0.999966 0.500375 0.894305 0.561596
C2    C     C_R   0.003062 0.569098 0.791136 -0.006039
C3    C     C_R   0.728526 0.781610 0.889727 -0.114228
C4    C     C_R   0.783149 0.728839 0.889810 -0.119764
C5    C     C_R   0.578455 0.369034 0.014992 -0.125267
C6    C     C_R   0.342135 0.395358 0.062268 -0.120360
C7    C     C_R   0.386315 0.668674 0.071290 -0.126049
C8    C     C_R   0.865300 0.080644 0.525152 -0.123282
C9    C     C_R   0.775400 0.722904 0.389490 -0.116238
C10   C     C_R   0.162675 0.890580 0.566937 -0.123738
C11   C     C_R   0.112980 0.167756 0.570759 -0.136138
C12   C     C_R   0.167314 0.114372 0.571307 -0.124945
C13   C     C_R   0.432866 0.995918 0.791367 -0.018993
C14   C     C_R   0.108802 0.836597 0.566828 -0.125309
C15   C     C_R   0.720592 0.775426 0.389576 -0.120420
C16   C     C_R   0.919255 0.134444 0.525021 -0.122687
C17   C     C_R   0.315450 0.739700 0.024590 0.025352
C18   C     C_R   0.264424 0.319162 0.021153 0.024896
C19   C     C_R   0.671304 0.274270 0.006313 0.023790
C20   C     C_R   0.781903 0.726790 0.960819 0.025453
C21   C     C_R   0.726606 0.781110 0.960773 0.024728
C22   C     C_R   0.726340 0.328958 0.006580 0.023408
C23   C     C_R   0.319674 0.264808 0.020562 0.023284
C24   C     C_R   0.003540 0.433593 0.791411 -0.019858
C25   C     C_R   0.260635 0.684794 0.024715 0.022727
C26   C     C_R   0.827685 0.227125 0.509233 0.023645
C27   C     C_R   0.719087 0.774397 0.460603 0.025830
C28   C     C_R   0.182788 0.762194 0.523101 0.024937
C29   C     C_R   0.239123 0.184586 0.524654 0.026655
C30   C     C_R   0.184090 0.239195 0.524327 0.023718
C31   C     C_R   0.237474 0.817235 0.523088 0.021746
C32   C     C_R   0.774541 0.720231 0.460551 0.025167
C33   C     C_R   0.772780 0.172291 0.509245 0.021629
C34   C     C_R   0.197700 0.694366 0.001330 0.031769
C35   C     C_R   0.066883 0.500866 0.291385 -0.019549
C36   C     C_R   0.305833 0.197922 0.001204 0.030738
C37   C     C_R   0.800472 0.307596 0.002787 0.024969
C38   C     C_R   0.699718 0.807449 0.996859 0.026616
C39   C     C_R   0.807901 0.699817 0.996913 0.025267
C40   C     C_R   0.692357 0.199853 0.002758 0.025417
C41   C     C_R   0.197757 0.305672 0.001502 0.029808
C42   C     C_R   0.305550 0.802416 0.001149 0.031538
C43   C     C_R   0.699151 0.192897 0.502469 0.025260
C44   C     C_R   0.800158 0.692450 0.496641 0.026085
C45   C     C_R   0.302166 0.805767 0.501410 0.030887
C46   C     C_R   0.490665 0.065143 0.291204 -0.017559
C47   C     C_R   0.194306 0.302311 0.501209 0.031214
C48   C     C_R   0.302172 0.194352 0.501398 0.031352
C49   C     C_R   0.194435 0.697617 0.501355 0.031344
C50   C     C_R   0.691820 0.799957 0.496715 0.025045
C51   C     C_R   0.807134 0.300773 0.502452 0.026253
C52   C     C_R   0.188987 0.757136 0.978658 -0.137376
C53   C     C_R   0.238645 0.185091 0.983062 -0.138012
C54   C     C_R   0.819747 0.233729 0.001328 -0.146832
C55   C     C_R   0.729019 0.782181 0.031855 -0.154520
C56   C     C_R   0.782528 0.728932 0.031904 -0.152693
C57   C     C_R   0.931705 0.493875 0.290978 -0.013325
C58   C     C_R   0.766177 0.180334 0.001394 -0.144725
C59   C     C_R   0.185070 0.238741 0.983063 -0.144281
C60   C     C_R   0.242585 0.810864 0.978580 -0.143742
C61   C     C_R   0.680098 0.266376 0.497923 -0.144915
C62   C     C_R   0.769458 0.716222 0.531563 -0.154958
C63   C     C_R   0.312855 0.740900 0.480734 -0.138512
C64   C     C_R   0.257519 0.311129 0.478930 -0.138588
C65   C     C_R   0.311032 0.257406 0.478949 -0.143544
C66   C     C_R   0.259293 0.687161 0.480688 -0.144571
C67   C     C_R   0.715942 0.769421 0.531629 -0.152908
C68   C     C_R   0.499532 0.929761 0.291333 -0.005054
C69   C     C_R   0.733650 0.319875 0.497911 -0.144574
C70   C     C_R   0.433519 0.003151 0.832263 0.064077
C71   C     C_R   0.993563 0.434693 0.832070 0.063083
C72   C     C_R   0.567542 0.001821 0.832087 0.062471
C73   C     C_R   0.008007 0.568155 0.832304 0.069130
C74   C     C_R   0.932112 0.500745 0.332003 0.063545
C75   C     C_R   0.495182 0.930968 0.332532 0.069004
C76   C     C_R   0.065924 0.493210 0.332238 0.063030
C77   C     C_R   0.500554 0.065171 0.331889 0.065437
C78   C     C_3   0.697752 0.119544 0.795005 0.040544
C79   C     C_R   0.500091 0.002039 0.770689 -0.088127
C80   C     C_3   0.740807 0.159984 0.763393 -0.265489
C81   C     C_3   0.753197 0.240133 0.774123 -0.486772
C82   C     C_3   0.922129 0.728409 0.787282 0.041156
C83   C     C_3   0.922712 0.811361 0.793209 -0.244391
C84   C     C_3   0.845268 0.842412 0.795205 -0.481209
C85   C     C_3   0.300616 0.890770 0.798087 0.036609
C86   C     C_3   0.263573 0.846454 0.765768 -0.267024
C87   C     C_3   0.252413 0.766823 0.777845 -0.484933
C88   C     C_3   0.101997 0.297573 0.800082 0.037014
C89   C     C_3   0.145685 0.255194 0.769516 -0.266470
C90   C     C_R   0.003418 0.501020 0.770756 -0.087246
C91   C     C_3   0.224008 0.241087 0.783038 -0.484253
C92   C     C_3   0.202102 0.600704 0.299519 0.036098
C93   C     C_3   0.241529 0.645215 0.268173 -0.267476
C94   C     C_3   0.254178 0.724081 0.281256 -0.483898
C95   C     C_3   0.382846 0.195853 0.298144 0.037648
C96   C     C_3   0.338924 0.237618 0.267335 -0.264406
C97   C     C_3   0.260103 0.250254 0.280357 -0.485226
C98   C     C_3   0.794238 0.391377 0.293318 0.039201
C99   C     C_3   0.748480 0.355599 0.261129 -0.264281
C100  C     C_3   0.729891 0.276216 0.270882 -0.488798
C101  C     C_R   0.999475 0.498089 0.270627 -0.088141
C102  C     C_3   0.582899 0.770267 0.287624 0.041810
C103  C     C_3   0.581925 0.687100 0.292691 -0.247318
C104  C     C_3   0.658972 0.656289 0.297754 -0.475037
C105  C     C_3   0.224317 0.438982 0.203341 0.049924
C106  C     C_3   0.294900 0.443170 0.179590 -0.255281
C107  C     C_3   0.321192 0.367284 0.167468 -0.495292
C108  C     C_3   0.537476 0.229036 0.204251 0.051606
C109  C     C_3   0.527399 0.297173 0.179003 -0.252918
C110  C     C_3   0.600535 0.333957 0.170059 -0.498038
C111  C     C_3   0.773461 0.560660 0.206157 0.050162
C112  C     C_R   0.500471 0.000114 0.894304 0.564635
C113  C     C_R   0.495587 0.997551 0.270777 -0.087452
C114  C     C_3   0.700924 0.559292 0.183931 -0.252763
C115  C     C_3   0.670227 0.636277 0.178071 -0.495176
C116  C     C_3   0.436277 0.775974 0.201918 0.048245
C117  C     C_3   0.438418 0.700108 0.183263 -0.252479
C118  C     C_3   0.361814 0.673705 0.172402 -0.498359
C119  C     C_3   0.732529 0.956184 0.707379 0.050191
C120  C     C_3   0.801736 0.963301 0.682681 -0.254077
C121  C     C_3   0.841506 0.890191 0.678640 -0.495829
C122  C     C_3   0.069130 0.721532 0.700685 0.048343
C123  C     C_3   0.066840 0.796761 0.681283 -0.251486
C124  C     C_R   0.632585 0.022996 0.769806 0.280859
C125  C     C_3   0.142832 0.821218 0.668321 -0.497637
C126  C     C_3   0.273424 0.055622 0.705223 0.049206
C127  C     C_3   0.201230 0.051473 0.682830 -0.253631
C128  C     C_3   0.171078 0.127626 0.674072 -0.496918
C129  C     C_3   0.945120 0.273836 0.703462 0.048353
C130  C     C_3   0.951333 0.203802 0.679332 -0.253995
C131  C     C_3   0.876304 0.175259 0.667030 -0.496403
C132  C     C_3   0.148782 0.607669 0.153392 0.026804
C133  C     C_3   0.121750 0.656779 0.120434 -0.262015
C134  C     C_3   0.159993 0.731115 0.120723 -0.488152
C135  C     C_R   0.998403 0.635121 0.769482 0.274717
C136  C     C_3   0.375627 0.120271 0.148108 0.038202
C137  C     C_3   0.346929 0.177850 0.119924 -0.246455
C138  C     C_3   0.263591 0.182795 0.120853 -0.482213
C139  C     C_3   0.861745 0.397238 0.142963 0.041099
C140  C     C_3   0.795346 0.382660 0.116983 -0.245865
C141  C     C_3   0.783268 0.300807 0.110711 -0.484818
C142  C     C_3   0.616977 0.857731 0.156189 0.033630
C143  C     C_3   0.669992 0.901802 0.130931 -0.274473
C144  C     C_3   0.748987 0.877383 0.137302 -0.499175
C145  C     C_3   0.631430 0.111125 0.643285 0.041331
C146  C     C_R   0.367188 0.983696 0.770387 0.288065
C147  C     C_3   0.693763 0.129821 0.615400 -0.245066
C148  C     C_3   0.700752 0.212352 0.609506 -0.481774
C149  C     C_3   0.887779 0.643096 0.656148 0.034192
C150  C     C_3   0.833495 0.600098 0.631065 -0.274760
C151  C     C_3   0.755069 0.625852 0.637840 -0.500397
C152  C     C_3   0.353834 0.888852 0.652713 0.026892
C153  C     C_3   0.377244 0.842326 0.617981 -0.258914
C154  C     C_3   0.338517 0.768272 0.617372 -0.488569
C155  C     C_3   0.111381 0.352858 0.653250 0.028319
C156  C     C_3   0.159257 0.376656 0.619124 -0.259937
C157  C     C_R   0.013298 0.367256 0.770678 0.289421
C158  C     C_3   0.233136 0.337682 0.619380 -0.487328
C159  C     C_R   0.133049 0.510819 0.270565 0.290384
C160  C     C_R   0.476282 0.130421 0.270181 0.283828
C161  C     C_R   0.866055 0.484200 0.269456 0.282091
C162  C     C_R   0.506613 0.863741 0.269780 0.272932
C163  C     C_R   0.133549 0.507718 0.230043 0.267578
C164  C     C_R   0.499917 0.999783 0.394303 0.562946
C165  C     C_R   0.478008 0.130494 0.229590 0.269742
C166  C     C_R   0.866363 0.489882 0.228954 0.270312
C167  C     C_R   0.506754 0.865024 0.229060 0.253229
C168  C     C_R   0.632665 0.018155 0.729259 0.270736
C169  C     C_R   0.998514 0.633603 0.728795 0.253469
C170  C     C_R   0.366640 0.987646 0.729882 0.267822
C171  C     C_R   0.011673 0.366651 0.730105 0.267998
C172  C     C_R   0.067032 0.507297 0.209058 -0.043002
C173  C     C_R   0.485012 0.064144 0.209020 -0.037728
C174  C     C_R   0.933172 0.492639 0.208531 -0.034659
C175  C     C_R   0.999527 0.499831 0.394290 0.564303
C176  C     C_R   0.507806 0.932008 0.208888 -0.039756
C177  C     C_R   0.566124 0.011504 0.708713 -0.032616
C178  C     C_R   0.995417 0.566476 0.708730 -0.040279
C179  C     C_R   0.433062 0.990625 0.709002 -0.041616
C180  C     C_R   0.010847 0.433109 0.709136 -0.042139
C181  C     C_R   0.999902 0.499234 0.229431 -0.135339
C182  C     C_R   0.496332 0.997933 0.229625 -0.134358
C183  C     C_R   0.499783 0.001287 0.729491 -0.135978
C184  C     C_R   0.003438 0.500201 0.729587 -0.133780
C185  C     C_R   0.065567 0.516047 0.168140 0.214809
C186  C     C_R   0.500562 0.000854 0.852043 0.025956
C187  C     C_R   0.478531 0.061751 0.168162 0.201193
C188  C     C_R   0.935135 0.487048 0.167615 0.200112
C189  C     C_R   0.519477 0.934954 0.168226 0.215893
C190  C     C_R   0.563886 0.016861 0.667786 0.202290
C191  C     C_R   0.983599 0.563682 0.668131 0.214531
C192  C     C_R   0.434792 0.982277 0.668072 0.215929
C193  C     C_R   0.018835 0.434857 0.668145 0.212096
C194  C     C_R   0.000734 0.500693 0.147958 0.026478
C195  C     C_R   0.500050 0.998708 0.148125 0.022096
C196  C     C_R   0.499139 0.999684 0.647999 0.025845
C197  C     C_R   0.000083 0.501229 0.852043 0.022235
C198  C     C_R   0.000487 0.499151 0.648109 0.029962
C199  C     C_R   0.000866 0.500144 0.105694 0.582380
C200  C     C_R   0.500063 0.999200 0.105756 0.583256
C201  C     C_R   0.499147 0.999920 0.605707 0.582242
C202  C     C_R   0.000075 0.499404 0.605753 0.587256
C203  C     C_R   0.861000 0.640976 0.999189 0.493664
C204  C     C_R   0.359875 0.860160 0.999869 0.497202
C205  C     C_R   0.140085 0.360086 0.000099 0.495305
C206  C     C_R   0.638988 0.141055 0.000727 0.498939
C207  C     C_R   0.140057 0.639913 0.000066 0.494968
C208  C     C_R   0.999155 0.498854 0.352002 0.026207
C209  C     C_R   0.641019 0.860925 0.999156 0.496495
C210  C     C_R   0.859166 0.360869 0.000625 0.499149
C211  C     C_R   0.360049 0.140050 0.999986 0.493693
C212  C     C_R   0.359848 0.139896 0.500096 0.495784
C213  C     C_R   0.860764 0.359241 0.500544 0.498408
C214  C     C_R   0.638876 0.858937 0.499116 0.494487
C215  C     C_R   0.140076 0.639908 0.499960 0.497967
C216  C     C_R   0.640698 0.139286 0.500533 0.496674
C217  C     C_R   0.140062 0.360075 0.499932 0.494423
C218  C     C_R   0.359859 0.860154 0.500100 0.494737
C219  C     C_R   0.499330 0.998512 0.352035 0.022815
C220  C     C_R   0.858922 0.639003 0.499066 0.496655
C221  C     C_R   0.269976 0.622389 0.048443 -0.105186
C222  C     C_R   0.386309 0.278008 0.040216 -0.117992
C223  C     C_R   0.705898 0.402970 0.012076 -0.102696
C224  C     C_R   0.701569 0.808801 0.924701 -0.079313
C225  C     C_R   0.810949 0.702753 0.924843 -0.083117
C226  C     C_R   0.597329 0.295484 0.010930 -0.099411
C227  C     C_R   0.276683 0.384557 0.042123 -0.093576
C228  C     C_R   0.378351 0.730617 0.048005 -0.097347
C229  C     C_R   0.792640 0.099105 0.517558 -0.104528
C230  C     C_R   0.567551 0.009290 0.791128 -0.013502
C231  C     C_R   0.800983 0.694187 0.424427 -0.078684
C232  C     C_R   0.226358 0.881554 0.545110 -0.103564
C233  C     C_R   0.120791 0.229516 0.547325 -0.111396
C234  C     C_R   0.229829 0.122202 0.548404 -0.095188
C235  C     C_R   0.118462 0.772833 0.545144 -0.097438
C236  C     C_R   0.691230 0.799733 0.424575 -0.081254
C237  C     C_R   0.900904 0.207138 0.517422 -0.096774
C238  C     C_R   0.331996 0.615160 0.071806 -0.127725
C239  C     C_R   0.396733 0.342349 0.061309 -0.142608
C240  C     C_R   0.632567 0.422534 0.015826 -0.123676
H1    H     H_    0.140523 0.764359 0.960853 0.139019
H2    H     H_    0.788677 0.695142 0.559116 0.121929
H3    H     H_    0.548638 0.672435 0.318593 0.201646
H4    H     H_    0.556147 0.661775 0.266653 0.169375
H5    H     H_    0.695607 0.675892 0.274230 0.127720
H6    H     H_    0.657036 0.595522 0.296956 0.186952
H7    H     H_    0.681744 0.673530 0.326183 0.167332
H8    H     H_    0.182475 0.408289 0.186182 0.142228
H9    H     H_    0.235646 0.409160 0.230947 0.146563
H10   H     H_    0.285258 0.476536 0.153034 0.178533
H11   H     H_    0.338233 0.470373 0.197151 0.164495
H12   H     H_    0.330669 0.332367 0.193393 0.154941
H13   H     H_    0.362761 0.732128 0.464357 0.137710
H14   H     H_    0.373395 0.372326 0.151180 0.140104
H15   H     H_    0.279959 0.340787 0.148323 0.159469
H16   H     H_    0.575428 0.190767 0.189015 0.135044
H17   H     H_    0.561955 0.245670 0.232588 0.154247
H18   H     H_    0.500565 0.281467 0.151189 0.184263
H19   H     H_    0.491350 0.336776 0.194325 0.164353
H20   H     H_    0.627731 0.351661 0.197355 0.150454
H21   H     H_    0.591245 0.382891 0.151546 0.140859
H22   H     H_    0.636957 0.295545 0.154233 0.151971
H23   H     H_    0.813119 0.595540 0.189877 0.141500
H24   H     H_    0.265204 0.359719 0.461297 0.137582
H25   H     H_    0.763860 0.584808 0.235443 0.143676
H26   H     H_    0.709526 0.533567 0.155010 0.180405
H27   H     H_    0.660454 0.525787 0.200264 0.162779
H28   H     H_    0.659195 0.662712 0.206508 0.153356
H29   H     H_    0.617997 0.633081 0.161596 0.145445
H30   H     H_    0.709459 0.670476 0.161349 0.139126
H31   H     H_    0.408795 0.814783 0.181611 0.143996
H32   H     H_    0.404171 0.772284 0.229393 0.146607
H33   H     H_    0.472873 0.702043 0.156666 0.174666
H34   H     H_    0.463454 0.660593 0.203942 0.162530
H35   H     H_    0.359599 0.264903 0.461299 0.130317
H36   H     H_    0.326046 0.672375 0.198386 0.147523
H37   H     H_    0.364957 0.617581 0.160120 0.141661
H38   H     H_    0.337282 0.710745 0.150392 0.152645
H39   H     H_    0.695371 0.915459 0.693342 0.135432
H40   H     H_    0.748077 0.936414 0.736877 0.152894
H41   H     H_    0.786669 0.983421 0.653249 0.182970
H42   H     H_    0.839285 0.003898 0.696263 0.164252
H43   H     H_    0.860508 0.870662 0.707468 0.153530
H44   H     H_    0.890065 0.897151 0.659587 0.142105
H45   H     H_    0.804805 0.848430 0.665464 0.141759
H46   H     H_    0.268209 0.637296 0.464268 0.128519
H47   H     H_    0.095438 0.681719 0.680508 0.146065
H48   H     H_    0.102246 0.725870 0.727823 0.145065
H49   H     H_    0.030146 0.794584 0.655493 0.178546
H50   H     H_    0.044364 0.837522 0.702095 0.161203
H51   H     H_    0.181207 0.822004 0.693314 0.145653
H52   H     H_    0.139793 0.877212 0.655860 0.143444
H53   H     H_    0.164013 0.783301 0.645789 0.154001
H54   H     H_    0.313194 0.088683 0.687974 0.140923
H55   H     H_    0.263349 0.082971 0.733680 0.148881
H56   H     H_    0.210056 0.021774 0.655012 0.173932
H57   H     H_    0.694694 0.788405 0.559267 0.129890
H58   H     H_    0.160431 0.020433 0.700259 0.167518
H59   H     H_    0.162471 0.158596 0.701395 0.149798
H60   H     H_    0.117702 0.122648 0.658825 0.140105
H61   H     H_    0.209657 0.158389 0.655211 0.151803
H62   H     H_    0.913021 0.314959 0.686599 0.141077
H63   H     H_    0.915994 0.261078 0.731082 0.150455
H64   H     H_    0.984335 0.214988 0.652836 0.182090
H65   H     H_    0.979882 0.161057 0.696641 0.163782
H66   H     H_    0.842164 0.163140 0.692911 0.152808
H67   H     H_    0.882972 0.124143 0.649910 0.139832
H68   H     H_    0.717858 0.376459 0.493437 0.137486
H69   H     H_    0.848086 0.216457 0.648639 0.154653
H70   H     H_    0.209600 0.609315 0.153869 0.174269
H71   H     H_    0.129920 0.630632 0.181714 0.122585
H72   H     H_    0.132571 0.629520 0.092255 0.206073
H73   H     H_    0.061899 0.665545 0.123591 0.178618
H74   H     H_    0.151116 0.759152 0.148986 0.139367
H75   H     H_    0.137419 0.765815 0.097078 0.168944
H76   H     H_    0.219631 0.724300 0.115714 0.155663
H77   H     H_    0.355397 0.133155 0.177830 0.148251
H78   H     H_    0.353358 0.065899 0.139151 0.134493
H79   H     H_    0.229331 0.579248 0.049397 0.103081
H80   H     H_    0.370649 0.232081 0.127421 0.176744
H81   H     H_    0.364579 0.162849 0.090152 0.186903
H82   H     H_    0.238876 0.129478 0.112456 0.157311
H83   H     H_    0.244971 0.225248 0.099961 0.163699
H84   H     H_    0.244591 0.198165 0.150416 0.136690
H85   H     H_    0.851555 0.372547 0.172047 0.141456
H86   H     H_    0.910415 0.370132 0.129888 0.143515
H87   H     H_    0.745696 0.406512 0.130662 0.171016
H88   H     H_    0.803716 0.409438 0.088303 0.167214
H89   H     H_    0.830867 0.276474 0.095352 0.166070
H90   H     H_    0.429862 0.237911 0.040414 0.100130
H91   H     H_    0.733497 0.292196 0.092709 0.156290
H92   H     H_    0.775567 0.272638 0.139035 0.136652
H93   H     H_    0.625141 0.798549 0.150085 0.160763
H94   H     H_    0.631096 0.865893 0.187410 0.133575
H95   H     H_    0.655490 0.894155 0.099891 0.208112
H96   H     H_    0.665504 0.960895 0.138240 0.171516
H97   H     H_    0.765309 0.886342 0.168057 0.145205
H98   H     H_    0.785913 0.909732 0.118262 0.162341
H99   H     H_    0.755262 0.818446 0.130023 0.137289
H100  H     H_    0.643465 0.135906 0.672152 0.145619
H101  H     H_    0.745970 0.446341 0.014309 0.128561
H102  H     H_    0.579943 0.135800 0.631925 0.141674
H103  H     H_    0.746039 0.108190 0.627233 0.168239
H104  H     H_    0.683449 0.103290 0.586835 0.172526
H105  H     H_    0.650550 0.234325 0.595494 0.166745
H106  H     H_    0.748307 0.224166 0.590431 0.157913
H107  H     H_    0.709424 0.240283 0.637833 0.135509
H108  H     H_    0.880853 0.702429 0.649994 0.159744
H109  H     H_    0.873761 0.635393 0.687397 0.134261
H110  H     H_    0.847541 0.607672 0.599979 0.207399
H111  H     H_    0.837033 0.540904 0.638279 0.171879
H112  H     H_    0.228003 0.133526 0.968488 0.135028
H113  H     H_    0.661938 0.852289 0.922770 0.169607
H114  H     H_    0.739140 0.616797 0.668627 0.145526
H115  H     H_    0.717228 0.594403 0.618833 0.161953
H116  H     H_    0.749716 0.684982 0.630808 0.137194
H117  H     H_    0.293252 0.886217 0.655213 0.178567
H118  H     H_    0.376615 0.864448 0.679894 0.116665
H119  H     H_    0.363951 0.872061 0.590801 0.204945
H120  H     H_    0.437205 0.832824 0.619423 0.181991
H121  H     H_    0.348258 0.738411 0.645026 0.139830
H122  H     H_    0.359869 0.734915 0.592891 0.169950
H123  H     H_    0.278819 0.775886 0.613010 0.154170
H124  H     H_    0.856029 0.664731 0.923054 0.156665
H125  H     H_    0.113113 0.292139 0.655329 0.176666
H126  H     H_    0.135323 0.374511 0.680827 0.121039
H127  H     H_    0.130578 0.363759 0.591569 0.205722
H128  H     H_    0.168742 0.436651 0.620733 0.179691
H129  H     H_    0.262865 0.349279 0.646891 0.139824
H130  H     H_    0.266707 0.357340 0.594580 0.169239
H131  H     H_    0.225382 0.277629 0.616275 0.156179
H132  H     H_    0.553457 0.255905 0.012109 0.128631
H133  H     H_    0.235496 0.427039 0.043693 0.110525
H134  H     H_    0.421492 0.771301 0.048656 0.118774
H135  H     H_    0.752380 0.055762 0.519099 0.124785
H136  H     H_    0.840669 0.650839 0.422351 0.172000
H137  H     H_    0.266872 0.924839 0.545920 0.104063
H138  H     H_    0.077297 0.269712 0.547630 0.101285
H139  H     H_    0.270812 0.079474 0.549655 0.110184
H140  H     H_    0.876636 0.217374 0.999157 0.137502
H141  H     H_    0.075559 0.731918 0.546015 0.119343
H142  H     H_    0.645888 0.837400 0.422660 0.159849
H143  H     H_    0.944359 0.247292 0.518792 0.123955
H144  H     H_    0.337826 0.568143 0.090598 0.095785
H145  H     H_    0.447200 0.350892 0.077223 0.101701
H146  H     H_    0.617716 0.479423 0.019785 0.117143
H147  H     H_    0.707720 0.802554 0.862438 0.135647
H148  H     H_    0.804796 0.708640 0.862622 0.108006
H149  H     H_    0.521654 0.384635 0.017947 0.127086
H150  H     H_    0.350486 0.444733 0.078951 0.103566
H151  H     H_    0.708731 0.802151 0.059417 0.120623
H152  H     H_    0.434616 0.662385 0.089217 0.110717
H153  H     H_    0.879689 0.024431 0.531559 0.114924
H154  H     H_    0.797292 0.703233 0.362188 0.135815
H155  H     H_    0.155143 0.939419 0.584192 0.098640
H156  H     H_    0.064616 0.161344 0.588613 0.101766
H157  H     H_    0.161050 0.066886 0.589716 0.102450
H158  H     H_    0.059495 0.843991 0.583810 0.109339
H159  H     H_    0.699994 0.796740 0.362386 0.108638
H160  H     H_    0.975475 0.119869 0.531221 0.122338
H161  H     H_    0.725869 0.128447 0.823272 0.186783
H162  H     H_    0.802827 0.708820 0.059538 0.129099
H163  H     H_    0.641949 0.143890 0.798105 0.116063
H164  H     H_    0.794737 0.132967 0.759220 0.191869
H165  H     H_    0.710078 0.157861 0.735574 0.176706
H166  H     H_    0.699959 0.268051 0.778916 0.151911
H167  H     H_    0.782345 0.268277 0.750068 0.136064
H168  H     H_    0.787013 0.244321 0.800898 0.185135
H169  H     H_    0.891819 0.701893 0.811476 0.135125
H170  H     H_    0.892558 0.716624 0.759563 0.134173
H171  H     H_    0.952141 0.824843 0.820602 0.199374
H172  H     H_    0.952327 0.837489 0.768618 0.172630
H173  H     H_    0.782363 0.123374 0.999293 0.139164
H174  H     H_    0.813105 0.826087 0.769201 0.128510
H175  H     H_    0.847714 0.903125 0.796548 0.181543
H176  H     H_    0.817140 0.822147 0.821604 0.161577
H177  H     H_    0.267745 0.884547 0.825047 0.180519
H178  H     H_    0.355828 0.867646 0.804724 0.116602
H179  H     H_    0.209543 0.871198 0.758822 0.194759
H180  H     H_    0.298094 0.847603 0.739250 0.165754
H181  H     H_    0.305658 0.741442 0.785698 0.151650
H182  H     H_    0.228312 0.735584 0.753280 0.136944
H183  H     H_    0.214632 0.763486 0.803075 0.183923
H184  H     H_    0.133542 0.228238 0.968413 0.128547
H185  H     H_    0.105121 0.267180 0.828010 0.179626
H186  H     H_    0.127883 0.352092 0.805505 0.115457
H187  H     H_    0.118274 0.201903 0.763792 0.193098
H188  H     H_    0.147596 0.286998 0.742032 0.172020
H189  H     H_    0.252263 0.293695 0.789284 0.152667
H190  H     H_    0.254607 0.212044 0.759830 0.138738
H191  H     H_    0.224102 0.206542 0.809619 0.182151
H192  H     H_    0.234283 0.604693 0.326865 0.179752
H193  H     H_    0.147465 0.625347 0.305897 0.115968
H194  H     H_    0.295192 0.619324 0.261681 0.193993
H195  H     H_    0.235113 0.859205 0.960735 0.129815
H196  H     H_    0.208107 0.645855 0.241216 0.167175
H197  H     H_    0.201237 0.750634 0.288520 0.151317
H198  H     H_    0.280436 0.755511 0.257430 0.138543
H199  H     H_    0.290656 0.725502 0.307110 0.182633
H200  H     H_    0.377119 0.224975 0.326336 0.180751
H201  H     H_    0.358979 0.140116 0.302587 0.113813
H202  H     H_    0.365342 0.291448 0.261713 0.194526
H203  H     H_    0.338025 0.205821 0.239844 0.175063
H204  H     H_    0.232740 0.197128 0.286441 0.151807
H205  H     H_    0.229400 0.278709 0.256947 0.138308
H206  H     H_    0.623520 0.282202 0.493467 0.136760
H207  H     H_    0.258866 0.284833 0.306924 0.183864
H208  H     H_    0.765507 0.383120 0.321431 0.185584
H209  H     H_    0.848179 0.363018 0.296130 0.116030
H210  H     H_    0.696845 0.386862 0.257121 0.190083
H211  H     H_    0.779491 0.356414 0.233421 0.179033
H212  H     H_    0.780787 0.244113 0.275501 0.152600
H213  H     H_    0.698914 0.251364 0.246414 0.135593
H214  H     H_    0.695600 0.273549 0.297501 0.182489
H215  H     H_    0.612947 0.795854 0.312200 0.138225
H216  H     H_    0.612970 0.782922 0.260201 0.130601
I1    I     I_    0.337152 0.028523 0.866031 -0.358201
I2    I     I_    0.958558 0.340068 0.864822 -0.341888
I3    I     I_    0.665460 0.984687 0.865958 -0.403085
I4    I     I_    0.031033 0.663531 0.867514 -0.376537
I5    I     I_    0.834995 0.519990 0.366095 -0.407884
I6    I     I_    0.478539 0.835058 0.368339 -0.380108
I7    I     I_    0.160984 0.462174 0.365824 -0.359945
I8    I     I_    0.527896 0.162416 0.364547 -0.345191
O1    O     O_3   0.000000 0.500000 0.999990 -0.444223
O2    O     O_R   0.000000 0.560750 0.412560 -0.527149
O3    O     O_R   0.439250 0.000000 0.412560 -0.512562
O4    O     O_R   1.000000 0.439250 0.412560 -0.505415
O5    O     O_R   0.000000 0.560690 0.087420 -0.552596
O6    O     O_R   0.439310 0.000000 0.087420 -0.545157
O7    O     O_R   0.000000 0.439310 0.087420 -0.551982
O8    O     O_R   0.560690 0.000000 0.087420 -0.552351
O9    O     O_R   0.500000 0.060690 0.587420 -0.551059
O10   O     O_R   0.939310 0.500000 0.587420 -0.551374
O11   O     O_R   0.500000 0.939310 0.587420 -0.553879
O12   O     O_3   0.500000 0.000000 0.999990 -0.443953
O13   O     O_R   0.060690 0.500000 0.587420 -0.554191
O14   O     O_R   0.853830 0.585440 0.977070 -0.556815
O15   O     O_R   0.414560 0.853830 0.977070 -0.532371
O16   O     O_R   0.146170 0.414560 0.977070 -0.534748
O17   O     O_R   0.585440 0.146170 0.977070 -0.539623
O18   O     O_R   0.146170 0.585440 0.977070 -0.524558
O19   O     O_R   0.585440 0.853830 0.977070 -0.549737
O20   O     O_R   0.853830 0.414560 0.977070 -0.529248
O21   O     O_R   0.414560 0.146170 0.977070 -0.531119
O22   O     O_R   0.353830 0.085440 0.477070 -0.534270
O23   O     O_3   0.500000 0.000000 0.499990 -0.444021
O24   O     O_R   0.914560 0.353830 0.477070 -0.537345
O25   O     O_R   0.646170 0.914560 0.477070 -0.555918
O26   O     O_R   0.085440 0.646170 0.477070 -0.532627
O27   O     O_R   0.646170 0.085440 0.477070 -0.528375
O28   O     O_R   0.085440 0.353830 0.477070 -0.527999
O29   O     O_R   0.353830 0.914560 0.477070 -0.525006
O30   O     O_R   0.914560 0.646170 0.477070 -0.550515
O31   O     O_R   0.085460 0.353830 0.022910 -0.543703
O32   O     O_R   0.646170 0.085460 0.022910 -0.545716
O33   O     O_R   0.914540 0.646170 0.022910 -0.538944
O34   O     O_3   0.000000 0.500000 0.499990 -0.443248
O35   O     O_R   0.353830 0.914540 0.022910 -0.542143
O36   O     O_R   0.914540 0.353830 0.022910 -0.553152
O37   O     O_R   0.353830 0.085460 0.022910 -0.553273
O38   O     O_R   0.085460 0.646170 0.022910 -0.561370
O39   O     O_R   0.646170 0.914540 0.022910 -0.553733
O40   O     O_R   0.585460 0.853830 0.522910 -0.539887
O41   O     O_R   0.146170 0.585460 0.522910 -0.541635
O42   O     O_R   0.414540 0.146170 0.522910 -0.542890
O43   O     O_R   0.853830 0.414540 0.522910 -0.545287
O44   O     O_R   0.414540 0.853830 0.522910 -0.561836
O45   O     O_R   0.060750 0.500000 0.912560 -0.512676
O46   O     O_R   0.853830 0.585460 0.522910 -0.553446
O47   O     O_R   0.585460 0.146170 0.522910 -0.553669
O48   O     O_R   0.146170 0.414540 0.522910 -0.561277
O49   O     O_3   0.697410 0.043025 0.787743 -0.535036
O50   O     O_3   0.995310 0.702908 0.787227 -0.529748
O51   O     O_3   0.301927 0.966397 0.788628 -0.526130
O52   O     O_3   0.027063 0.301555 0.789330 -0.526834
O53   O     O_3   0.198807 0.525608 0.289011 -0.524732
O54   O     O_3   0.458394 0.195388 0.288552 -0.530751
O55   O     O_3   0.800020 0.468026 0.287142 -0.534490
O56   O     O_R   0.500000 0.060750 0.912560 -0.506384
O57   O     O_3   0.509816 0.796045 0.287595 -0.530907
O58   O     O_3   0.200498 0.510878 0.211362 -0.550331
O59   O     O_3   0.468404 0.196251 0.210255 -0.542682
O60   O     O_3   0.799980 0.488332 0.209515 -0.540832
O61   O     O_3   0.508712 0.798975 0.209345 -0.551006
O62   O     O_3   0.698617 0.025458 0.709845 -0.542933
O63   O     O_3   0.996805 0.699632 0.709068 -0.551347
O64   O     O_3   0.299817 0.983871 0.711048 -0.550856
O65   O     O_3   0.016335 0.299789 0.711413 -0.554845
O66   O     O_3   0.127814 0.533683 0.146885 -0.560318
O67   O     O_R   0.939250 0.500000 0.912560 -0.518550
O68   O     O_3   0.453084 0.121152 0.147173 -0.547402
O69   O     O_3   0.872281 0.473752 0.146106 -0.546620
O70   O     O_3   0.543013 0.874586 0.147067 -0.549368
O71   O     O_3   0.625776 0.034071 0.646367 -0.546178
O72   O     O_3   0.961301 0.624538 0.646950 -0.549416
O73   O     O_3   0.372939 0.963472 0.646704 -0.558084
O74   O     O_3   0.037241 0.373047 0.646720 -0.559903
O75   O     O_R   0.500000 0.939250 0.912560 -0.526555
O76   O     O_R   0.560750 0.000000 0.412560 -0.519230
Zn1   Zn    Zn3+2 1.000000 0.586740 0.032740 0.924612
Zn2   Zn    Zn3+2 0.500000 0.913250 0.967240 0.958697
Zn3   Zn    Zn3+2 0.086750 0.500000 0.967240 0.971212
Zn4   Zn    Zn3+2 0.500000 0.086750 0.967240 0.970399
Zn5   Zn    Zn3+2 0.413250 0.000000 0.467240 0.971834
Zn6   Zn    Zn3+2 0.000000 0.413250 0.467240 0.972364
Zn7   Zn    Zn3+2 0.586750 0.000000 0.467240 0.959852
Zn8   Zn    Zn3+2 0.000000 0.586750 0.467240 0.957997
Zn9   Zn    Zn3+2 0.413260 0.000000 0.032740 0.934788
Zn10  Zn    Zn3+2 0.000000 0.413260 0.032740 0.930954
Zn11  Zn    Zn3+2 0.586740 0.000000 0.032740 0.928383
Zn12  Zn    Zn3+2 0.500000 0.086740 0.532740 0.930641
Zn13  Zn    Zn3+2 0.913260 0.500000 0.532740 0.928791
Zn14  Zn    Zn3+2 0.500000 0.913260 0.532740 0.923064
Zn15  Zn    Zn3+2 0.086740 0.500000 0.532740 0.926216
Zn16  Zn    Zn3+2 0.913250 0.500000 0.967240 0.959375

loop_
_geom_bond_atom_site_label_1
_geom_bond_atom_site_label_2
_ccdc_geom_bond_type
C154  H123  S    
C13   C79   A    
C126  C127  S    
C171  O65   S    
C102  H216  S    
C55   C56   A    
C125  H53   S    
C206  O17   A    
C114  C115  S    
C115  H30   S    
O67   Zn16  S    
C68   C75   A    
C176  C182  A    
C47   C217  S    
C43   C61   A    
C3    C224  A    
C149  H109  S    
C78   H163  S    
C15   H159  S    
C19   C226  A    
C138  H84   S    
C142  H94   S    
C204  O15   A    
C119  H39   S    
C61   H206  S    
C17   C228  A    
O7    Zn10  S    
C86   H180  S    
C13   C70   A    
C212  O42   A    
C143  C144  S    
O39   Zn11  S    
C108  C109  S    
C95   H201  S    
C2    C90   A    
C36   C53   A    
C124  C168  A    
C139  O69   S    
C38   C55   A    
C48   C212  S    
O21   Zn4   S    
C149  H108  S    
C168  C177  A    
C213  O43   A    
C121  H44   S    
C48   C65   A    
C137  H80   S    
C134  H74   S    
C205  O16   A    
C179  C183  A    
C27   C50   A    
C25   C34   A    
C211  O37   A    
C139  H86   S    
C7    H152  S    
C8    C16   A    
C185  O66   S    
O40   Zn14  S    
O2    Zn8   S    
C78   O49   S    
C128  H60   S    
C28   C31   A    
C129  H62   S    
C166  C174  A    
C40   C58   A    
C97   H207  S    
O1    Zn1   S    
C140  C141  S    
C117  H33   S    
C47   C64   A    
C118  H38   S    
C89   H187  S    
C214  O40   A    
C209  O19   A    
C237  H143  S    
C59   H184  S    
C141  H91   S    
C107  H14   S    
C74   I5    S    
O56   Zn4   S    
C109  H19   S    
C71   I2    S    
C105  H8    S    
C110  H20   S    
C39   C56   A    
C23   C222  A    
C75   C219  A    
C104  H7    S    
C46   C160  A    
C6    C227  A    
C142  O70   S    
C10   C232  A    
C4    C225  A    
C163  C172  A    
C154  H121  S    
C120  H41   S    
O41   Zn15  S    
C131  H66   S    
C173  C182  A    
C138  H82   S    
C10   C14   A    
C75   I6    S    
C95   H200  S    
C164  O3    A    
C42   C60   A    
C115  H28   S    
C164  O76   A    
C205  O31   A    
C49   C215  S    
O30   Zn8   S    
C78   H161  S    
C82   H169  S    
C95   O54   S    
C24   C90   A    
C46   C77   A    
C139  C140  S    
C222  H90   S    
C34   C207  S    
C209  O39   A    
C76   I7    S    
C17   C25   A    
C100  H213  S    
C106  H10   S    
C70   I1    S    
C156  C158  S    
C130  C131  S    
O3    Zn5   S    
O29   Zn5   S    
C52   H1    S    
C224  H113  S    
C127  H58   S    
C170  O64   S    
C26   C237  A    
C176  C189  A    
C217  O28   A    
C30   C233  A    
C9    C15   A    
C88   H186  S    
C18   C227  A    
C96   H202  S    
C57   C161  A    
C88   C89   S    
C23   C36   A    
C10   H155  S    
C77   I8    S    
C155  C156  S    
C51   C69   A    
C109  C110  S    
O28   Zn6   S    
C157  C171  A    
C76   C208  A    
C91   H190  S    
C126  H54   S    
C11   C233  A    
C5    C240  A    
C148  H105  S    
C42   C204  S    
C147  C148  S    
C44   C220  S    
C118  H36   S    
C128  H61   S    
C79   C230  A    
O31   Zn10  S    
C85   C86   S    
C85   O51   S    
C131  H69   S    
C213  O24   A    
C72   C230  A    
C107  H12   S    
C112  O56   A    
O27   Zn7   S    
C233  H138  S    
C114  H26   S    
C78   C80   S    
C116  O61   S    
C207  O38   A    
C222  C239  A    
C155  H125  S    
C8    C229  A    
C123  H50   S    
C54   H140  S    
C52   C60   A    
C236  H142  S    
C172  C181  A    
C124  C230  A    
C21   C38   A    
C113  C182  A    
O76   Zn7   S    
C238  H144  S    
C15   C236  A    
C198  C202  S    
C93   H194  S    
O26   Zn8   S    
C89   C91   S    
C116  H31   S    
C50   C67   A    
C133  H72   S    
C231  H136  S    
C156  H128  S    
O75   Zn2   S    
C45   C218  S    
C108  H17   S    
C33   C229  A    
C43   C216  S    
C14   C235  A    
C151  H116  S    
C56   H162  S    
C35   C76   A    
O42   Zn12  S    
C49   C66   A    
C88   O52   S    
O17   Zn4   S    
C66   H46   S    
O44   Zn14  S    
C111  H25   S    
O48   Zn15  S    
C152  H117  S    
C165  O59   S    
O19   Zn2   S    
C105  O58   S    
C24   C157  A    
C77   C219  A    
C206  O32   A    
C218  O29   A    
C158  H129  S    
C143  H95   S    
C97   H204  S    
C122  H47   S    
C29   C30   A    
C82   O50   S    
O15   Zn2   S    
C28   C49   A    
C26   C33   A    
C83   C84   S    
C172  C185  A    
O8    Zn11  S    
C103  H4    S    
C140  H88   S    
C107  H15   S    
C20   C21   A    
C150  H110  S    
C99   H210  S    
C125  H51   S    
C2    C73   A    
C27   C236  A    
C3    H147  S    
C164  C219  S    
C16   H160  S    
C98   C99   S    
C104  H6    S    
C148  H107  S    
C87   H182  S    
C152  H118  S    
C3    C4    A    
C101  C181  A    
C120  C121  S    
C235  H141  S    
C147  H104  S    
C149  O72   S    
C131  H67   S    
C173  C187  A    
C177  C190  A    
C46   C113  A    
C130  H64   S    
C1    C197  S    
C136  C137  S    
C115  H29   S    
C227  H133  S    
C57   C101  A    
C6    C239  A    
C2    C135  A    
C170  C179  A    
C116  H32   S    
C117  C118  S    
C85   H178  S    
O12   Zn11  S    
C202  O10   A    
C146  O51   S    
C145  O71   S    
O6    Zn9   S    
O5    Zn1   S    
C84   H175  S    
C79   C183  A    
C100  H212  S    
C132  H71   S    
C102  C103  S    
C73   I4    S    
C37   C210  S    
C19   C40   A    
C70   C186  A    
C201  O9    A    
C180  C184  A    
C71   C197  A    
C152  C153  S    
C98   H208  S    
C158  H130  S    
C150  C151  S    
C83   H172  S    
C121  H43   S    
C196  C201  S    
C138  H83   S    
C134  H75   S    
C108  H16   S    
C180  C193  A    
C81   H166  S    
C108  O59   S    
C11   H156  S    
C139  H85   S    
C153  H120  S    
O1    Zn3   S    
C39   C203  S    
O20   Zn16  S    
C212  O22   A    
C9    H154  S    
C161  O55   S    
C191  C198  A    
C133  H73   S    
C185  C194  A    
C145  H100  S    
C91   H191  S    
C175  O4    A    
C192  C196  A    
C144  H97   S    
C169  O63   S    
C216  O47   A    
C54   C58   A    
C223  H101  S    
C123  C125  S    
C214  O25   A    
C94   H199  S    
C193  C198  A    
C151  H114  S    
O1    Zn16  S    
C109  H18   S    
C17   C42   A    
C110  H21   S    
C218  O44   A    
O13   Zn15  S    
C167  O61   S    
C89   H188  S    
C203  O33   A    
C81   H168  S    
C68   C113  A    
C187  C195  A    
C154  H122  S    
C120  H42   S    
C63   C66   A    
C210  O36   A    
C6    H150  S    
C102  H215  S    
C67   H57   S    
C175  C208  S    
O22   Zn5   S    
C55   H151  S    
C145  C147  S    
O34   Zn15  S    
C191  O72   S    
C82   H170  S    
C142  H93   S    
C119  H40   S    
C215  O41   A    
C216  O27   A    
C86   C87   S    
O47   Zn12  S    
C86   H179  S    
C177  C183  A    
C22   C37   A    
C100  H214  S    
C106  H11   S    
C189  C195  A    
O34   Zn8   S    
C7    C238  A    
C31   C232  A    
C121  H45   S    
C160  C165  A    
C60   H195  S    
C65   H35   S    
C72   C186  A    
C199  O7    A    
C62   C67   A    
C90   C184  A    
C133  C134  S    
O35   Zn9   S    
C145  H102  S    
C99   H211  S    
C91   H189  S    
C128  H59   S    
C126  H55   S    
C137  C138  S    
C175  O2    A    
C20   C39   A    
C129  H63   S    
C232  H137  S    
C240  H146  S    
C27   C32   A    
C148  H106  S    
C144  H99   S    
C87   H183  S    
C92   O53   S    
C117  H34   S    
C35   C101  A    
C118  H37   S    
C200  O6    A    
C119  C120  S    
C64   H24   S    
C94   H197  S    
C94   H198  S    
C105  C106  S    
C34   C52   A    
C141  H92   S    
O12   Zn4   S    
C221  C238  A    
C64   C65   A    
C129  C130  S    
C105  H9    S    
O23   Zn12  S    
O46   Zn13  S    
C149  C150  S    
O24   Zn6   S    
O32   Zn11  S    
C220  O30   A    
C144  H98   S    
C92   C93   S    
C111  C114  S    
C137  H81   S    
C135  C169  A    
C123  H49   S    
C29   C234  A    
C228  H134  S    
C36   C211  S    
C152  O73   S    
O16   Zn3   S    
C201  O11   A    
C82   C83   S    
C31   C45   A    
C103  C104  S    
C84   H174  S    
C142  C143  S    
C132  H70   S    
C26   C51   A    
C98   H209  S    
C127  H56   S    
C217  O48   A    
C234  H139  S    
O34   Zn13  S    
C93   C94   S    
C21   C224  A    
C168  O62   S    
C207  O18   A    
C95   C96   S    
C202  O13   A    
C159  O53   S    
C132  O66   S    
C53   C59   A    
C74   C208  A    
C116  C117  S    
C12   C234  A    
O43   Zn13  S    
C122  O63   S    
C72   I3    S    
C124  O49   S    
C114  H27   S    
C223  C240  A    
C163  O58   S    
C112  C186  S    
O34   Zn6   S    
C7    C228  A    
C50   C214  S    
C165  C173  A    
C204  O35   A    
C5    C226  A    
O12   Zn2   S    
C119  O62   S    
C122  H48   S    
C135  O50   S    
C88   H185  S    
O11   Zn14  S    
C174  C188  A    
C199  O5    A    
C129  O65   S    
C93   H196  S    
C179  C192  A    
C141  H89   S    
C132  C133  S    
C58   H173  S    
C73   C197  A    
C103  H3    S    
O25   Zn7   S    
C25   C221  A    
C211  O21   A    
C150  H111  S    
C162  O57   S    
O23   Zn7   S    
C161  C166  A    
C190  C196  A    
C51   C213  S    
C155  O74   S    
C32   C231  A    
C188  C194  A    
C69   H68   S    
C87   H181  S    
C210  O20   A    
C13   C146  A    
O12   Zn9   S    
C174  C181  A    
C200  O8    A    
C62   H2    S    
C147  H103  S    
C221  H79   S    
C40   C206  S    
C1    O67   A    
O23   Zn5   S    
C92   H193  S    
C29   C48   A    
C18   C23   A    
C33   C43   A    
C30   C47   A    
C80   H164  S    
C19   C22   A    
O18   Zn3   S    
C41   C59   A    
C18   C41   A    
C136  H78   S    
C166  O60   S    
C44   C62   A    
C192  O73   S    
C45   C63   A    
C20   C225  A    
C155  H126  S    
C57   C74   A    
C14   H158  S    
O9    Zn12  S    
C193  O74   S    
C85   H177  S    
C151  H115  S    
C99   C100  S    
C136  H77   S    
O1    Zn10  S    
C96   C97   S    
C130  H65   S    
C84   H176  S    
C4    H148  S    
C106  C107  S    
C92   H192  S    
C5    H149  S    
C111  H23   S    
C37   C54   A    
C126  O64   S    
C16   C237  A    
C158  H131  S    
C146  C170  A    
C156  H127  S    
C159  C163  A    
C171  C180  A    
C157  O52   S    
C83   H171  S    
C229  H135  S    
C134  H76   S    
C169  C178  A    
O4    Zn6   S    
C12   H157  S    
C195  C200  S    
C189  O70   S    
C61   C69   A    
C153  H119  S    
O14   Zn16  S    
C98   O55   S    
C187  O68   S    
C80   C81   S    
C102  O57   S    
C220  O46   A    
C111  O60   S    
O23   Zn14  S    
O37   Zn9   S    
C11   C12   A    
O45   Zn3   S    
O10   Zn13  S    
C225  H124  S    
C68   C162  A    
C22   C223  A    
C226  H132  S    
C143  H96   S    
C9    C231  A    
C97   H205  S    
C122  C123  S    
C53   H112  S    
C160  O54   S    
C178  C191  A    
C96   H203  S    
O36   Zn10  S    
C63   H13   S    
C215  O26   A    
C140  H87   S    
C1    O45   A    
C136  O68   S    
C203  O14   A    
C188  O69   S    
C38   C209  S    
C41   C205  S    
C80   H165  S    
C35   C159  A    
C110  H22   S    
C125  H52   S    
C190  O71   S    
C28   C235  A    
C162  C167  A    
C194  C199  S    
C32   C44   A    
C104  H5    S    
C167  C176  A    
O38   Zn1   S    
O33   Zn1   S    
C153  C154  S    
C81   H167  S    
C239  H145  S    
C178  C184  A    
C127  C128  S    
C24   C71   A    
C8    H153  S    
C112  O75   A    
