data_mof_unit_61493.cif
_audit_creation_date              2012-12-10T17:35:51-0500
_audit_creation_method            fapswitch 2.2
_symmetry_space_group_name_H-M    P1
_symmetry_Int_Tables_number       1
_space_group_crystal_system       triclinic
_cell_length_a                    24.425535
_cell_length_b                    24.425536
_cell_length_c                    27.645369
_cell_angle_alpha                 89.999561
_cell_angle_beta                  89.999563
_cell_angle_gamma                 89.998859
_cell_volume                      16493.4147001

loop_
_atom_site_label
_atom_site_type_symbol
_atom_type_description
_atom_site_fract_x
_atom_site_fract_y
_atom_site_fract_z
_atom_type_partial_charge
C1    C     C_1   0.000000 0.500000 0.569118 0.029285
C2    C     C_1   1.000000 0.500000 0.474476 -0.014182
C3    C     C_R   0.183421 0.264989 0.719295 -0.031463
C4    C     C_R   0.317423 0.764141 0.220445 -0.031384
C5    C     C_R   0.682581 0.235855 0.779560 -0.031385
C6    C     C_R   0.235918 0.317482 0.220528 -0.031581
C7    C     C_R   0.764084 0.682520 0.779474 -0.031580
C8    C     C_R   0.182518 0.264082 0.279471 -0.031581
C9    C     C_R   0.817480 0.735916 0.720526 -0.031581
C10   C     C_R   0.264138 0.817425 0.279552 -0.031385
C11   C     C_R   0.735858 0.182579 0.720443 -0.031385
C12   C     C_R   0.764954 0.683386 0.219341 -0.031458
C13   C     C_1   0.500000 0.000000 0.525524 -0.014183
C14   C     C_R   0.235011 0.316578 0.780705 -0.031463
C15   C     C_R   0.735860 0.182575 0.279552 -0.031384
C16   C     C_R   0.264140 0.817423 0.720446 -0.031385
C17   C     C_R   0.182574 0.735862 0.720449 -0.031385
C18   C     C_R   0.817427 0.264136 0.279549 -0.031385
C19   C     C_R   0.316578 0.235011 0.780705 -0.031463
C20   C     C_R   0.683386 0.764954 0.219341 -0.031458
C21   C     C_R   0.817419 0.264145 0.720440 -0.031385
C22   C     C_R   0.182577 0.735858 0.279555 -0.031384
C23   C     C_R   0.735916 0.817480 0.720526 -0.031580
C24   C     C_1   0.500000 1.000000 0.474476 -0.014182
C25   C     C_R   0.264082 0.182518 0.279471 -0.031581
C26   C     C_R   0.729630 0.770370 0.750000 -0.030333
C27   C     C_R   0.270370 0.229630 0.250000 -0.030332
C28   C     C_R   0.770369 0.270370 0.749999 -0.030060
C29   C     C_R   0.229631 0.729630 0.250001 -0.030058
C30   C     C_R   0.270371 0.229629 0.750000 -0.030190
C31   C     C_R   0.729629 0.770371 0.250000 -0.030193
C32   C     C_R   0.229629 0.729631 0.750001 -0.030059
C33   C     C_R   0.770370 0.270369 0.249999 -0.030058
C34   C     C_R   0.729630 0.229631 0.250001 -0.030058
C35   C     C_1   0.500000 0.000000 0.025524 -0.014182
C36   C     C_R   0.270370 0.770369 0.749999 -0.030059
C37   C     C_R   0.770371 0.729629 0.250000 -0.030193
C38   C     C_R   0.229629 0.270371 0.750000 -0.030190
C39   C     C_R   0.270369 0.770370 0.249999 -0.030058
C40   C     C_R   0.729631 0.229629 0.750001 -0.030059
C41   C     C_R   0.229630 0.270370 0.250000 -0.030332
C42   C     C_R   0.770370 0.729630 0.750000 -0.030333
C43   C     C_R   0.675802 0.716214 0.807773 0.299496
C44   C     C_R   0.324201 0.283790 0.192232 0.299499
C45   C     C_R   0.716331 0.324079 0.807945 0.300489
C46   C     C_1   0.500000 1.000000 0.974476 -0.014183
C47   C     C_R   0.283676 0.675914 0.192065 0.300491
C48   C     C_R   0.219478 0.179066 0.687779 0.299702
C49   C     C_R   0.780594 0.821005 0.312128 0.299704
C50   C     C_R   0.283675 0.675913 0.807935 0.300387
C51   C     C_R   0.716323 0.324089 0.192068 0.300390
C52   C     C_R   0.675910 0.283680 0.192071 0.300492
C53   C     C_R   0.324088 0.716322 0.807932 0.300489
C54   C     C_R   0.821006 0.780594 0.312128 0.299704
C55   C     C_R   0.179066 0.219478 0.687779 0.299702
C56   C     C_R   0.324085 0.716326 0.192063 0.300389
C57   C     C_1   0.000000 0.500000 0.025524 -0.014182
C58   C     C_R   0.675922 0.283666 0.807948 0.300388
C59   C     C_R   0.283790 0.324201 0.192232 0.299499
C60   C     C_R   0.716214 0.675802 0.807773 0.299496
C61   C     C_R   0.175799 0.216210 0.307768 0.299499
C62   C     C_R   0.824197 0.783786 0.692227 0.299496
C63   C     C_R   0.216324 0.824086 0.307934 0.300491
C64   C     C_R   0.783669 0.175921 0.692055 0.300489
C65   C     C_R   0.719406 0.678994 0.187872 0.299704
C66   C     C_R   0.280522 0.320934 0.812221 0.299702
C67   C     C_R   0.783677 0.175911 0.307932 0.300390
C68   C     C_1   1.000000 0.500000 0.974476 -0.014183
C69   C     C_R   0.216325 0.824087 0.692065 0.300387
C70   C     C_R   0.175912 0.783678 0.692068 0.300489
C71   C     C_R   0.824090 0.216320 0.307929 0.300492
C72   C     C_R   0.320934 0.280522 0.812221 0.299702
C73   C     C_R   0.678994 0.719406 0.187872 0.299704
C74   C     C_R   0.824077 0.216334 0.692052 0.300388
C75   C     C_R   0.175915 0.783674 0.307937 0.300389
C76   C     C_R   0.783786 0.824197 0.692227 0.299496
C77   C     C_R   0.216210 0.175799 0.307768 0.299499
C78   C     C_R   1.000000 0.500000 0.878998 0.508457
C79   C     C_R   0.000000 0.500000 0.121002 0.508459
C80   C     C_R   0.500000 1.000000 0.878998 0.508457
C81   C     C_1   1.000000 0.500000 0.430882 0.029287
C82   C     C_R   0.500000 0.000000 0.121002 0.508459
C83   C     C_R   0.500000 1.000000 0.378998 0.508459
C84   C     C_R   0.500000 0.000000 0.621002 0.508457
C85   C     C_R   1.000000 0.500000 0.378998 0.508459
C86   C     C_R   0.000000 0.500000 0.621002 0.508457
C87   C     C_R   0.106010 0.606011 0.750000 0.511252
C88   C     C_R   0.893989 0.393989 0.249999 0.511253
C89   C     C_R   0.606011 0.893989 0.750000 0.510526
C90   C     C_R   0.393989 0.106011 0.250000 0.510526
C91   C     C_R   0.893989 0.393989 0.750000 0.511253
C92   C     C_1   0.500000 0.000000 0.569118 0.029285
C93   C     C_R   0.106011 0.606010 0.250000 0.511253
C94   C     C_R   0.393990 0.106010 0.750000 0.510917
C95   C     C_R   0.606010 0.893990 0.250000 0.510920
C96   C     C_R   0.106011 0.393989 0.250000 0.510526
C97   C     C_R   0.893989 0.606011 0.750000 0.510526
C98   C     C_R   0.606010 0.106011 0.250000 0.511252
C99   C     C_R   0.393989 0.893989 0.750000 0.511252
C100  C     C_R   0.893990 0.606010 0.250000 0.510920
C101  C     C_R   0.106010 0.393990 0.750000 0.510917
C102  C     C_R   0.393989 0.893989 0.249999 0.511253
C103  C     C_1   0.500000 1.000000 0.430882 0.029287
C104  C     C_R   0.606011 0.106010 0.750000 0.511253
C105  C     C_R   0.693832 0.856447 0.719543 -0.122061
C106  C     C_R   0.306166 0.143551 0.280455 -0.122059
C107  C     C_R   0.856384 0.306230 0.719462 -0.120421
C108  C     C_R   0.143612 0.693774 0.280533 -0.120420
C109  C     C_R   0.357738 0.195115 0.778705 -0.121669
C110  C     C_R   0.642230 0.804853 0.221342 -0.121665
C111  C     C_R   0.143608 0.693779 0.719473 -0.121585
C112  C     C_R   0.856393 0.306220 0.280526 -0.121583
C113  C     C_R   0.693776 0.143610 0.280530 -0.120420
C114  C     C_1   0.500000 0.000000 0.069118 0.029287
C115  C     C_R   0.306225 0.856389 0.719468 -0.120421
C116  C     C_R   0.804853 0.642230 0.221342 -0.121665
C117  C     C_R   0.195115 0.357738 0.778705 -0.121669
C118  C     C_R   0.306222 0.856391 0.280528 -0.121583
C119  C     C_R   0.693774 0.143612 0.719467 -0.121585
C120  C     C_R   0.143551 0.306166 0.280455 -0.122059
C121  C     C_R   0.856447 0.693832 0.719543 -0.122061
C122  C     C_R   0.193834 0.356449 0.219545 -0.122059
C123  C     C_R   0.806168 0.643552 0.780457 -0.122061
C124  C     C_R   0.356388 0.806226 0.219467 -0.120420
C125  C     C_1   0.500000 1.000000 0.930882 0.029285
C126  C     C_R   0.643616 0.193770 0.780538 -0.120421
C127  C     C_R   0.857770 0.695147 0.278658 -0.121664
C128  C     C_R   0.142262 0.304885 0.721295 -0.121669
C129  C     C_R   0.643607 0.193780 0.219474 -0.121583
C130  C     C_R   0.356392 0.806221 0.780527 -0.121585
C131  C     C_R   0.193774 0.643611 0.780532 -0.120421
C132  C     C_R   0.806224 0.356390 0.219470 -0.120420
C133  C     C_R   0.304885 0.142262 0.721295 -0.121669
C134  C     C_R   0.695147 0.857770 0.278658 -0.121665
C135  C     C_R   0.806226 0.356388 0.780533 -0.121585
C136  C     C_1   0.000000 0.500000 0.069118 0.029287
C137  C     C_R   0.193778 0.643609 0.219472 -0.121583
C138  C     C_R   0.643552 0.806168 0.780457 -0.122061
C139  C     C_R   0.356449 0.193834 0.219545 -0.122059
C140  C     C_R   0.648467 0.851533 0.750000 0.009103
C141  C     C_R   0.351533 0.148467 0.250000 0.009104
C142  C     C_R   0.851531 0.351534 0.749998 0.009404
C143  C     C_R   0.148469 0.648466 0.250002 0.009406
C144  C     C_R   0.351535 0.148465 0.750000 0.009576
C145  C     C_R   0.648465 0.851535 0.250000 0.009582
C146  C     C_R   0.148466 0.648469 0.750002 0.009405
C147  C     C_1   1.000000 0.500000 0.930882 0.029285
C148  C     C_R   0.851534 0.351531 0.249998 0.009406
C149  C     C_R   0.648466 0.148469 0.250002 0.009406
C150  C     C_R   0.351534 0.851531 0.749998 0.009405
C151  C     C_R   0.851535 0.648464 0.250000 0.009582
C152  C     C_R   0.148465 0.351535 0.750000 0.009576
C153  C     C_R   0.351531 0.851534 0.249998 0.009406
C154  C     C_R   0.648468 0.148466 0.750002 0.009404
C155  C     C_R   0.148467 0.351533 0.250000 0.009104
C156  C     C_R   0.851533 0.648467 0.750000 0.009103
C157  C     C_R   0.682520 0.764084 0.779474 -0.031581
C158  C     C_1   0.000000 0.500000 0.525524 -0.014183
C159  C     C_R   0.317482 0.235918 0.220528 -0.031581
C160  C     C_R   0.764142 0.317421 0.779557 -0.031385
C161  C     C_R   0.235862 0.682575 0.220448 -0.031385
C162  C     C_R   0.264989 0.183421 0.719295 -0.031463
C163  C     C_R   0.735046 0.816614 0.280659 -0.031458
C164  C     C_R   0.235859 0.682576 0.779554 -0.031385
C165  C     C_R   0.764139 0.317424 0.220447 -0.031384
C166  C     C_R   0.682573 0.235863 0.220451 -0.031385
C167  C     C_R   0.317426 0.764138 0.779551 -0.031385
C168  C     C_R   0.816614 0.735046 0.280659 -0.031458
H1    H     H_    0.695794 0.891000 0.695165 0.154174
H2    H     H_    0.304310 0.890895 0.695036 0.155450
H3    H     H_    0.800108 0.604882 0.200778 0.153443
H4    H     H_    0.199836 0.395062 0.799307 0.153458
H5    H     H_    0.304306 0.890897 0.304960 0.154390
H6    H     H_    0.695687 0.109110 0.695031 0.154389
H7    H     H_    0.108996 0.304202 0.304830 0.154175
H8    H     H_    0.891000 0.695794 0.695166 0.154174
H9    H     H_    0.195798 0.391004 0.195169 0.154175
H10   H     H_    0.804205 0.608999 0.804834 0.154174
H11   H     H_    0.390894 0.804312 0.195034 0.155447
H12   H     H_    0.304202 0.108996 0.304830 0.154175
H13   H     H_    0.609113 0.195681 0.804974 0.155450
H14   H     H_    0.895118 0.699891 0.299222 0.153443
H15   H     H_    0.104938 0.300164 0.700692 0.153458
H16   H     H_    0.609099 0.195697 0.195044 0.154391
H17   H     H_    0.390899 0.804305 0.804959 0.154390
H18   H     H_    0.195689 0.609105 0.804964 0.155450
H19   H     H_    0.804308 0.390897 0.195038 0.155447
H20   H     H_    0.300164 0.104938 0.700692 0.153458
H21   H     H_    0.699892 0.895118 0.299222 0.153443
H22   H     H_    0.804313 0.390890 0.804969 0.154389
H23   H     H_    0.890887 0.304319 0.695026 0.155450
H24   H     H_    0.195693 0.609103 0.195039 0.154390
H25   H     H_    0.608999 0.804206 0.804834 0.154174
H26   H     H_    0.391004 0.195798 0.195169 0.154175
H27   H     H_    0.597190 0.718267 0.816083 0.315685
H28   H     H_    0.402814 0.281737 0.183926 0.315686
H29   H     H_    0.718398 0.402674 0.816376 0.315667
H30   H     H_    0.281611 0.597317 0.183642 0.315667
H31   H     H_    0.249851 0.128774 0.640854 0.317788
H32   H     H_    0.750277 0.871353 0.359034 0.317800
H33   H     H_    0.281605 0.597318 0.816363 0.319002
H34   H     H_    0.109106 0.695688 0.304966 0.155447
H35   H     H_    0.718392 0.402684 0.183642 0.319006
H36   H     H_    0.597313 0.281615 0.183651 0.315666
H37   H     H_    0.402685 0.718387 0.816354 0.315663
H38   H     H_    0.871353 0.750277 0.359034 0.317800
H39   H     H_    0.128774 0.249851 0.640854 0.317787
H40   H     H_    0.402680 0.718397 0.183632 0.319007
H41   H     H_    0.597328 0.281595 0.816386 0.319003
H42   H     H_    0.281737 0.402814 0.183926 0.315685
H43   H     H_    0.718267 0.597190 0.816083 0.315684
H44   H     H_    0.097186 0.218263 0.316074 0.315685
H45   H     H_    0.395062 0.199836 0.799307 0.153458
H46   H     H_    0.902810 0.781733 0.683917 0.315685
H47   H     H_    0.218389 0.902683 0.316358 0.315667
H48   H     H_    0.781602 0.097326 0.683624 0.315666
H49   H     H_    0.749723 0.628647 0.140965 0.317800
H50   H     H_    0.250149 0.371226 0.859146 0.317788
H51   H     H_    0.781607 0.097315 0.316358 0.319006
H52   H     H_    0.218395 0.902682 0.683636 0.319002
H53   H     H_    0.097315 0.781613 0.683646 0.315663
H54   H     H_    0.902687 0.218385 0.316348 0.315666
H55   H     H_    0.371226 0.250149 0.859146 0.317787
H56   H     H_    0.604882 0.800108 0.200778 0.153443
H57   H     H_    0.628647 0.749723 0.140965 0.317800
H58   H     H_    0.902671 0.218405 0.683614 0.319003
H59   H     H_    0.097320 0.781603 0.316368 0.319007
H60   H     H_    0.781733 0.902810 0.683917 0.315684
H61   H     H_    0.218263 0.097186 0.316074 0.315685
H62   H     H_    0.109101 0.695695 0.695041 0.154390
H63   H     H_    0.890901 0.304303 0.304956 0.154391
H64   H     H_    0.695692 0.109103 0.304961 0.155447
O1    O     O_3   0.000000 0.500000 0.750000 -0.446093
O2    O     O_R   0.954240 0.500000 0.143870 -0.531504
O3    O     O_R   0.500000 0.954240 0.856130 -0.529807
O4    O     O_R   0.500000 0.045760 0.143870 -0.529805
O5    O     O_R   0.454240 1.000000 0.356130 -0.529806
O6    O     O_R   0.545760 1.000000 0.643870 -0.529808
O7    O     O_R   1.000000 0.545760 0.356130 -0.531505
O8    O     O_R   1.000000 0.454240 0.643870 -0.531507
O9    O     O_R   0.545760 1.000000 0.356130 -0.531504
O10   O     O_R   0.454240 1.000000 0.643870 -0.531506
O11   O     O_R   1.000000 0.454240 0.356130 -0.529805
O12   O     O_3   1.000000 0.500000 0.250000 -0.446094
O13   O     O_R   0.000000 0.545760 0.643870 -0.529807
O14   O     O_R   0.110440 0.564520 0.777740 -0.542067
O15   O     O_R   0.889560 0.435480 0.222260 -0.542072
O16   O     O_R   0.564520 0.889560 0.777740 -0.543367
O17   O     O_R   0.435480 0.110440 0.222260 -0.543366
O18   O     O_R   0.889560 0.435480 0.777740 -0.543350
O19   O     O_R   0.110440 0.564520 0.222260 -0.543349
O20   O     O_R   0.435480 0.110440 0.777740 -0.543276
O21   O     O_R   0.564520 0.889560 0.222260 -0.543276
O22   O     O_R   0.110440 0.435480 0.222260 -0.543366
O23   O     O_3   0.500000 1.000000 0.750000 -0.446093
O24   O     O_R   0.889560 0.564520 0.777740 -0.543366
O25   O     O_R   0.564520 0.110440 0.222260 -0.543348
O26   O     O_R   0.435480 0.889560 0.777740 -0.543350
O27   O     O_R   0.889560 0.564520 0.222260 -0.543276
O28   O     O_R   0.110440 0.435480 0.777740 -0.543276
O29   O     O_R   0.435480 0.889560 0.222260 -0.542072
O30   O     O_R   0.564520 0.110440 0.777740 -0.542068
O31   O     O_R   0.610440 0.064520 0.277740 -0.542072
O32   O     O_R   0.389560 0.935480 0.722260 -0.542068
O33   O     O_R   0.064520 0.389560 0.277740 -0.543366
O34   O     O_3   0.500000 0.000000 0.250000 -0.446094
O35   O     O_R   0.935480 0.610440 0.722260 -0.543367
O36   O     O_R   0.389560 0.935480 0.277740 -0.543349
O37   O     O_R   0.610440 0.064520 0.722260 -0.543350
O38   O     O_R   0.935480 0.610440 0.277740 -0.543276
O39   O     O_R   0.064520 0.389560 0.722260 -0.543276
O40   O     O_R   0.610440 0.935480 0.722260 -0.543367
O41   O     O_R   0.389560 0.064520 0.277740 -0.543366
O42   O     O_R   0.064520 0.610440 0.722260 -0.543350
O43   O     O_R   0.935480 0.389560 0.277740 -0.543348
O44   O     O_R   0.389560 0.064520 0.722260 -0.543276
O45   O     O_R   0.954240 0.500000 0.856130 -0.529808
O46   O     O_R   0.610440 0.935480 0.277740 -0.543276
O47   O     O_R   0.935480 0.389560 0.722260 -0.542068
O48   O     O_R   0.064520 0.610440 0.277740 -0.542072
O49   O     O_3   0.629474 0.706452 0.835043 -0.610958
O50   O     O_3   0.370531 0.293554 0.164964 -0.610944
O51   O     O_3   0.706624 0.370351 0.835305 -0.609036
O52   O     O_3   0.293387 0.629638 0.164712 -0.609028
O53   O     O_3   0.213576 0.136601 0.655242 -0.610725
O54   O     O_3   0.786534 0.863509 0.344619 -0.610737
O55   O     O_3   0.293384 0.629639 0.835291 -0.607810
O56   O     O_R   0.045760 0.500000 0.143870 -0.529806
O57   O     O_3   0.706613 0.370364 0.164713 -0.607805
O58   O     O_3   0.629633 0.293393 0.164720 -0.609028
O59   O     O_3   0.370364 0.706610 0.835285 -0.609034
O60   O     O_3   0.863509 0.786535 0.344619 -0.610737
O61   O     O_3   0.136601 0.213576 0.655242 -0.610726
O62   O     O_3   0.370358 0.706618 0.164705 -0.607807
O63   O     O_3   0.629653 0.293371 0.835311 -0.607811
O64   O     O_3   0.293554 0.370531 0.164964 -0.610945
O65   O     O_3   0.706452 0.629474 0.835043 -0.610959
O66   O     O_3   0.129469 0.206446 0.335035 -0.610944
O67   O     O_R   0.500000 0.045760 0.856130 -0.531507
O68   O     O_3   0.870526 0.793548 0.664957 -0.610958
O69   O     O_3   0.206613 0.870362 0.335288 -0.609028
O70   O     O_3   0.793376 0.129649 0.664695 -0.609035
O71   O     O_3   0.713465 0.636491 0.155381 -0.610737
O72   O     O_3   0.286424 0.363399 0.844758 -0.610725
O73   O     O_3   0.793387 0.129636 0.335287 -0.607805
O74   O     O_3   0.206616 0.870361 0.664708 -0.607810
O75   O     O_3   0.129635 0.793390 0.664715 -0.609034
O76   O     O_3   0.870367 0.206607 0.335280 -0.609028
O77   O     O_3   0.363399 0.286424 0.844758 -0.610726
O78   O     O_R   0.500000 0.954240 0.143870 -0.531505
O79   O     O_3   0.636491 0.713465 0.155381 -0.610737
O80   O     O_3   0.870347 0.206629 0.664688 -0.607811
O81   O     O_3   0.129641 0.793382 0.335295 -0.607807
O82   O     O_3   0.793548 0.870526 0.664957 -0.610959
O83   O     O_3   0.206446 0.129469 0.335035 -0.610945
O84   O     O_R   0.045760 0.500000 0.856130 -0.531506
Zn1   Zn    Zn3+2 1.000000 0.565500 0.710070 0.958446
Zn2   Zn    Zn3+2 0.500000 0.934500 0.789930 0.958446
Zn3   Zn    Zn3+2 0.065500 0.500000 0.210070 0.958449
Zn4   Zn    Zn3+2 0.934500 0.500000 0.789930 0.958446
Zn5   Zn    Zn3+2 0.500000 0.934500 0.210070 0.958380
Zn6   Zn    Zn3+2 0.500000 0.065500 0.789930 0.958382
Zn7   Zn    Zn3+2 0.934500 0.500000 0.210070 0.958380
Zn8   Zn    Zn3+2 0.065500 0.500000 0.789930 0.958382
Zn9   Zn    Zn3+2 0.000000 0.434500 0.289930 0.958450
Zn10  Zn    Zn3+2 0.565500 0.000000 0.710070 0.958446
Zn11  Zn    Zn3+2 0.434500 0.000000 0.289930 0.958449
Zn12  Zn    Zn3+2 1.000000 0.434500 0.710070 0.958382
Zn13  Zn    Zn3+2 1.000000 0.565500 0.289930 0.958380
Zn14  Zn    Zn3+2 0.434500 0.000000 0.710070 0.958382
Zn15  Zn    Zn3+2 0.565500 0.000000 0.289930 0.958380
Zn16  Zn    Zn3+2 0.500000 0.065500 0.210070 0.958450

loop_
_geom_bond_atom_site_label_1
_geom_bond_atom_site_label_2
_ccdc_geom_bond_type
C83   O5    A    
C45   O51   S    
C22   C29   A    
C48   C55   A    
H36   O58   S    
C10   C63   A    
C80   O3    A    
C105  H1    S    
O33   Zn9   S    
H28   O50   S    
O48   Zn13  S    
C48   C162  A    
C28   C40   A    
H59   O81   S    
C30   C38   A    
C118  C153  A    
C7    C42   A    
C104  O37   A    
C133  H20   S    
C130  C167  A    
C135  C142  A    
C66   C72   A    
C118  H5    S    
C5    C126  A    
C9    C121  A    
C87   O42   A    
C110  C145  A    
C95   O21   A    
C91   C142  S    
C139  C159  A    
C4    C56   A    
O12   Zn9   S    
C45   C160  A    
C104  O30   A    
O46   Zn15  S    
C123  H10   S    
H43   O65   S    
O3    Zn2   S    
H40   O62   S    
H57   O79   S    
C37   C168  A    
C123  C156  A    
C77   O83   S    
O23   Zn14  S    
C50   C53   A    
C78   O84   A    
C50   C164  A    
C51   C52   A    
O38   Zn13  S    
O1    Zn1   S    
O56   Zn3   S    
O29   Zn5   S    
O20   Zn6   S    
H54   O76   S    
C99   O26   A    
C120  C155  A    
C31   C37   A    
C116  H3    S    
H60   O82   S    
C29   C161  A    
C14   C38   A    
C48   O53   S    
C120  H7    S    
C88   C148  S    
C8    C41   A    
C102  C153  S    
H52   O74   S    
C97   O24   A    
C126  C154  A    
C21   C28   A    
C30   C162  A    
C16   C115  A    
C113  H64   S    
C138  H25   S    
C56   O62   S    
C18   C71   A    
C88   O43   A    
C79   O2    A    
C7    C123  A    
C94   O20   A    
C71   O76   S    
C94   C144  S    
C75   O81   S    
C96   O22   A    
C105  C140  A    
C137  C161  A    
C117  H4    S    
C131  C164  A    
C20   C73   A    
C109  C144  A    
O9    Zn15  S    
C69   C70   A    
C90   C141  S    
O30   Zn6   S    
O84   Zn8   S    
C44   C159  A    
C2    C81   T    
C19   C30   A    
O8    Zn12  S    
C91   O18   A    
C122  H9    S    
C87   C146  S    
O16   Zn2   S    
C50   O55   S    
C122  C155  A    
C23   C76   A    
O78   Zn5   S    
H38   O60   S    
C79   C136  S    
C112  H63   S    
C83   C103  S    
C5    C58   A    
C131  C146  A    
C32   C36   A    
C51   O57   S    
C119  H6    S    
O37   Zn10  S    
C44   C59   A    
C27   C159  A    
C23   C105  A    
C28   C160  A    
H48   O70   S    
C134  C163  A    
C4    C124  A    
C97   C156  S    
C82   O78   A    
C53   O59   S    
C127  C151  A    
C43   O49   S    
O34   Zn16  S    
C97   O35   A    
C59   O64   S    
C61   C77   A    
O45   Zn4   S    
C130  C150  A    
C15   C113  A    
C69   O74   S    
H33   O55   S    
C89   C140  S    
C100  O27   A    
C15   C67   A    
C124  C153  A    
C29   C39   A    
C128  H15   S    
C115  H2    S    
C17   C111  A    
C106  H12   S    
C72   O77   S    
C19   C109  A    
H58   O80   S    
C49   O54   S    
C132  C165  A    
C111  C146  A    
C3    C128  A    
H37   O59   S    
C135  H22   S    
C129  C149  A    
C86   O8    A    
O21   Zn5   S    
C14   C117  A    
C44   O50   S    
O12   Zn13  S    
H42   O64   S    
H39   O61   S    
C91   O47   A    
O11   Zn9   S    
H29   O51   S    
H30   O52   S    
O36   Zn11  S    
C86   O13   A    
C20   C110  A    
O5    Zn11  S    
C57   C68   S    
C26   C42   A    
C67   O73   S    
O34   Zn5   S    
C1    C86   S    
C17   C32   A    
C133  C144  A    
C6    C59   A    
O27   Zn7   S    
C54   C168  A    
C43   C157  A    
O42   Zn1   S    
O18   Zn4   S    
C24   C103  T    
C34   C166  A    
C16   C36   A    
C58   O63   S    
C139  C141  A    
C63   C75   A    
C60   O65   S    
C32   C164  A    
C11   C40   A    
C18   C33   A    
C70   O75   S    
C49   C163  A    
C51   C165  A    
C55   O61   S    
C76   O82   S    
O23   Zn6   S    
C107  H23   S    
C127  H14   S    
C126  H13   S    
C84   C92   S    
C116  C151  A    
C81   C85   S    
O26   Zn2   S    
C47   C56   A    
C12   C116  A    
O1    Zn8   S    
C82   O4    A    
C89   O40   A    
C46   C125  T    
C95   C145  S    
C110  H56   S    
C133  C162  A    
O41   Zn11  S    
C130  H17   S    
C100  O38   A    
C65   O71   S    
O39   Zn12  S    
C101  O39   A    
C66   O72   S    
C134  H21   S    
C1    C158  T    
C121  C156  A    
O12   Zn3   S    
C18   C112  A    
H44   O66   S    
C94   O44   A    
O19   Zn3   S    
C23   C26   A    
C12   C37   A    
C124  H11   S    
C80   O67   A    
C54   O60   S    
C127  C168  A    
O10   Zn14  S    
C15   C34   A    
O34   Zn11  S    
C95   O46   A    
O25   Zn16  S    
C62   C76   A    
H31   O53   S    
O47   Zn12  S    
C132  H19   S    
C99   C150  S    
C25   C106  A    
H47   O69   S    
C90   O17   A    
C33   C165  A    
C45   C58   A    
C64   O70   S    
O28   Zn8   S    
C36   C167  A    
C10   C39   A    
C137  H24   S    
C2    C158  S    
O32   Zn14  S    
C102  O29   A    
O13   Zn1   S    
C78   C147  S    
C129  C166  A    
C98   O25   A    
C129  H16   S    
C99   O32   A    
C119  C154  A    
C13   C92   T    
H49   O71   S    
C7    C60   A    
C106  C141  A    
C96   O33   A    
C134  C145  A    
C135  C160  A    
C84   O6    A    
C78   O45   A    
C52   O58   S    
O31   Zn15  S    
O2    Zn7   S    
C12   C65   A    
C83   O9    A    
C101  C152  S    
H35   O57   S    
O67   Zn6   S    
C22   C108  A    
C67   C71   A    
C73   O79   S    
O23   Zn2   S    
C74   O80   S    
C47   C161  A    
C5    C40   A    
C64   C74   A    
C104  C154  S    
H61   O83   S    
C35   C46   S    
C108  C143  A    
C98   C149  S    
C101  O28   A    
O6    Zn10  S    
C62   O68   S    
C11   C119  A    
H53   O75   S    
H32   O54   S    
C9    C42   A    
C26   C157  A    
C25   C77   A    
C109  H45   S    
C96   C155  S    
C80   C125  S    
C49   C54   A    
O23   Zn10  S    
C85   O11   A    
C65   C73   A    
C35   C114  T    
C93   O48   A    
C108  H34   S    
C52   C166  A    
C98   O31   A    
C53   C167  A    
O1    Zn12  S    
C3    C38   A    
C6    C41   A    
C57   C136  T    
C90   O41   A    
O14   Zn8   S    
C93   C143  S    
C139  H26   S    
C8    C61   A    
C137  C143  A    
C17   C70   A    
O4    Zn16  S    
C102  O36   A    
O1    Zn4   S    
C19   C72   A    
C3    C55   A    
C22   C75   A    
H51   O73   S    
C128  C152  A    
O15   Zn7   S    
C100  C151  S    
H41   O63   S    
C31   C163  A    
C9    C62   A    
C132  C148  A    
C113  C149  A    
O40   Zn10  S    
C82   C114  S    
C11   C64   A    
C21   C74   A    
C112  C148  A    
C13   C24   S    
C85   O7    A    
C121  H8    S    
C10   C118  A    
O34   Zn15  S    
C27   C41   A    
C4    C39   A    
O7    Zn13  S    
C33   C34   A    
C14   C66   A    
O44   Zn14  S    
C107  C142  A    
C21   C107  A    
C68   C147  T    
C138  C140  A    
C43   C60   A    
H46   O68   S    
C63   O69   S    
O43   Zn9   S    
C6    C122  A    
H50   O72   S    
C8    C120  A    
C87   O14   A    
C79   O56   A    
C61   O66   S    
O12   Zn7   S    
C16   C69   A    
O17   Zn16  S    
O35   Zn1   S    
C25   C27   A    
C89   O16   A    
H27   O49   S    
C88   O15   A    
C138  C157  A    
C115  C150  A    
C117  C152  A    
O22   Zn3   S    
C47   O52   S    
C131  H18   S    
C111  H62   S    
H55   O77   S    
C84   O10   A    
C93   O19   A    
O24   Zn4   S    
C20   C31   A    
