data_mof_unit_24656.cif
_audit_creation_date              2013-03-05T16:48:40-0500
_audit_creation_method            fapswitch 2.2
_symmetry_space_group_name_H-M    P1
_symmetry_Int_Tables_number       1
_space_group_crystal_system       triclinic
_cell_length_a                    27.745629
_cell_length_b                    8.941192
_cell_length_c                    8.098623
_cell_angle_alpha                 90.008582
_cell_angle_beta                  89.999195
_cell_angle_gamma                 89.998516
_cell_volume                      2009.09823982

loop_
_atom_site_label
_atom_site_type_symbol
_atom_site_description
_atom_site_fract_x
_atom_site_fract_y
_atom_site_fract_z
_atom_type_partial_charge
O1    O     O_R   0.500000 0.285350 0.636850 -0.614579
O2    O     O_R   0.500000 0.714650 0.363150 -0.614572
O3    O     O_R   0.500000 0.714650 0.636850 -0.614567
O4    O     O_R   0.500000 0.285350 0.363150 -0.614569
C1    C     C_R   0.500000 0.217952 0.499992 0.942560
C2    C     C_R   0.500000 0.782048 0.500008 0.942570
O5    O     O_R   0.428760 0.500000 0.636860 -0.622211
O6    O     O_R   0.571240 0.500000 0.363140 -0.622234
O7    O     O_R   0.571240 0.500000 0.636860 -0.622236
O8    O     O_R   0.428760 0.500000 0.363140 -0.622214
C3    C     C_R   0.405804 0.499990 0.500002 0.885275
C4    C     C_R   0.594197 0.500002 0.499999 0.885309
Zn1   Zn    Zn3+2 0.500000 0.500000 0.682780 0.998854
Zn2   Zn    Zn3+2 0.500000 0.500000 0.317220 0.998857
C5    C     C_R   0.177347 0.367757 0.476789 0.521985
C6    C     C_R   0.822658 0.631821 0.476847 0.522006
C7    C     C_R   0.177362 0.631565 0.523450 0.521992
C8    C     C_R   0.822637 0.368003 0.523347 0.522005
O9    O     O_2   0.202372 0.240212 0.452080 -0.529973
O10   O     O_2   0.797636 0.759378 0.452246 -0.529946
O11   O     O_2   0.202402 0.759082 0.548130 -0.529957
O12   O     O_2   0.797593 0.240484 0.547929 -0.529928
N1    N     N_R   0.201249 0.499649 0.500088 -0.360692
N2    N     N_R   0.798753 0.499929 0.500075 -0.360699
C9    C     C_R   0.277951 0.551045 0.360415 0.035579
C10   C     C_R   0.722044 0.448858 0.360328 0.035505
C11   C     C_R   0.277975 0.448329 0.639623 0.035484
C12   C     C_R   0.722037 0.551105 0.639734 0.035510
C13   C     C_R   0.328104 0.549768 0.360505 -0.242968
C14   C     C_R   0.671892 0.450351 0.360383 -0.242985
C15   C     C_R   0.328127 0.449866 0.639516 -0.242986
C16   C     C_R   0.671885 0.549648 0.639639 -0.242982
C17   C     C_R   0.252741 0.499639 0.500030 0.228242
C18   C     C_R   0.747262 0.499968 0.500043 0.228306
C19   C     C_R   0.101515 0.499707 0.500173 -0.053287
C20   C     C_R   0.898487 0.499856 0.500146 -0.053282
C21   C     C_R   0.126978 0.364831 0.478922 -0.019334
C22   C     C_R   0.873026 0.634737 0.478951 -0.019330
C23   C     C_R   0.126995 0.634550 0.521401 -0.019335
C24   C     C_R   0.873005 0.365014 0.521311 -0.019339
C25   C     C_R   0.101735 0.230859 0.458812 -0.126064
C26   C     C_R   0.898271 0.768704 0.458872 -0.126057
C27   C     C_R   0.101769 0.768552 0.541557 -0.126038
C28   C     C_R   0.898229 0.231010 0.541427 -0.126030
C29   C     C_R   0.353281 0.499895 0.500011 -0.060229
C30   C     C_R   0.646722 0.500003 0.500004 -0.060274
H1    H     H_    0.120527 0.126442 0.437771 0.188847
H2    H     H_    0.879480 0.873120 0.437854 0.188829
H3    H     H_    0.120575 0.872943 0.562595 0.188883
H4    H     H_    0.879421 0.126623 0.562426 0.188868
C31   C     C_R   0.974627 0.362167 0.508118 0.048822
C32   C     C_R   0.025374 0.637391 0.508169 0.048825
C33   C     C_R   0.974647 0.637430 0.492252 0.048828
C34   C     C_R   0.025355 0.362128 0.492222 0.048826
C35   C     C_R   0.949410 0.499818 0.500174 0.073746
C36   C     C_R   0.050592 0.499742 0.500191 0.073747
C37   C     C_R   0.948209 0.229281 0.534074 -0.217706
C38   C     C_R   0.051790 0.770280 0.534179 -0.217725
C39   C     C_R   0.948250 0.770358 0.466278 -0.217693
C40   C     C_R   0.051755 0.229199 0.466224 -0.217701
C41   C     C_1   0.500000 0.065167 0.499989 -0.181128
C42   C     C_1   0.500000 0.934833 0.500011 -0.181129
N3    N     N_1   0.500000 0.500000 0.073640 -0.033479
N4    N     N_1   0.500000 0.500000 0.926360 -0.033481
H5    H     H_    0.347525 0.410092 0.747199 0.166648
H6    H     H_    0.652496 0.589192 0.747438 0.166684
H7    H     H_    0.347484 0.589611 0.252808 0.166646
H8    H     H_    0.652509 0.410817 0.252572 0.166680
C43   C     C_1   0.252767 0.392805 0.782978 0.219408
N5    N     N_1   0.232502 0.347632 0.897506 -0.162153
C44   C     C_1   0.747258 0.606360 0.783174 0.219373
N6    N     N_1   0.767537 0.651297 0.897773 -0.162254
C45   C     C_1   0.252715 0.606344 0.217040 0.219365
N7    N     N_1   0.232426 0.651306 0.102489 -0.162248
C46   C     C_1   0.747274 0.393575 0.216912 0.219375
N8    N     N_1   0.767560 0.348613 0.102334 -0.162245
H9    H     H_    0.965486 0.123082 0.555291 0.133852
H10   H     H_    0.034512 0.876480 0.555418 0.133873
H11   H     H_    0.965544 0.876530 0.445078 0.133831
H12   H     H_    0.034462 0.123020 0.445008 0.133846

loop_
_geom_bond_atom_site_label_1
_geom_bond_atom_site_label_2
_geom_bond_distance
_ccdc_geom_bond_type
C45   N7    1.157264 T    
O3    C2    1.261559 A    
C33   C39   1.411847 A    
C34   C40   1.411853 A    
C11   C17   1.406732 A    
O5    C3    1.278340 A    
C7    N1    1.366058 A    
O1    C1    1.261513 A    
C19   C21   1.408176 A    
C22   C26   1.397117 A    
C7    C23   1.397822 A    
C8    C24   1.397844 A    
C5    C21   1.397861 A    
O7    Zn1   2.011271 S    
C27   C38   1.388086 A    
C5    O9    1.350020 S    
C10   C18   1.406611 A    
N1    C17   1.428681 S    
C31   C37   1.411847 A    
C24   C28   1.397118 A    
C31   C35   1.417186 A    
O3    Zn1   1.954995 S    
C6    O10   1.349999 S    
C5    N1    1.366047 A    
C12   C18   1.406608 A    
C6    N2    1.366042 A    
C13   H7    1.084836 S    
C21   C25   1.397123 A    
C41   C42   1.165344 T    
C33   C35   1.417179 A    
C9    C13   1.391565 A    
C34   C36   1.417185 A    
C11   C15   1.391545 A    
C37   H9    1.077480 S    
C12   C16   1.391549 A    
C4    C30   1.457350 S    
O8    Zn2   2.011274 S    
C39   H11   1.077484 S    
C27   H3    1.082803 S    
C23   C27   1.397120 A    
C7    O11   1.350020 S    
O2    C2    1.261513 A    
C13   C29   1.401221 A    
C19   C23   1.408170 A    
C46   N8    1.157281 T    
C20   C24   1.408174 A    
C28   C37   1.388103 A    
O6    C4    1.278363 A    
C10   C46   1.443315 S    
C25   H1    1.082798 S    
C1    C41   1.366076 S    
C26   H2    1.082793 S    
C32   C38   1.411849 A    
C10   C14   1.391563 A    
C8    N2    1.366040 A    
C3    C29   1.457303 S    
C12   C44   1.443303 S    
O1    Zn1   1.954886 S    
C32   C33   1.413339 A    
C16   H6    1.084650 S    
C28   H4    1.082796 S    
C15   H5    1.084792 S    
C40   H12   1.077489 S    
O6    Zn2   2.011282 S    
C19   C36   1.412896 A    
C8    O12   1.350021 S    
C16   C30   1.401136 A    
C14   C30   1.401139 A    
C25   C40   1.388104 A    
O4    C1    1.261559 A    
C11   C43   1.443507 S    
C26   C39   1.388089 A    
C31   C34   1.413354 A    
C2    C42   1.366076 S    
C20   C22   1.408172 A    
C44   N6    1.157269 T    
C20   C35   1.412905 A    
Zn1   N4    1.972663 S    
Zn2   N3    1.972663 S    
C9    C45   1.443324 S    
O4    Zn2   1.954996 S    
C43   N5    1.157446 T    
O2    Zn2   1.954885 S    
O7    C4    1.278353 A    
N2    C18   1.428664 S    
O8    C3    1.278351 A    
C38   H10   1.077489 S    
N3    N4    1.192764 T    
O5    Zn1   2.011284 S    
C15   C29   1.401343 A    
C9    C17   1.406817 A    
C14   H8    1.084644 S    
C32   C36   1.417186 A    
C6    C22   1.397837 A    
