data_mof_unit_63051.cif
_audit_creation_date              2013-03-05T16:07:35-0500
_audit_creation_method            fapswitch 2.2
_symmetry_space_group_name_H-M    P1
_symmetry_Int_Tables_number       1
_space_group_crystal_system       triclinic
_cell_length_a                    30.05236
_cell_length_b                    31.865623
_cell_length_c                    21.343574
_cell_angle_alpha                 90.09463
_cell_angle_beta                  134.749822
_cell_angle_gamma                 89.900222
_cell_volume                      14515.7829743

loop_
_atom_site_label
_atom_site_type_symbol
_atom_site_description
_atom_site_fract_x
_atom_site_fract_y
_atom_site_fract_z
_atom_type_partial_charge
O1    O     O_R   0.406950 0.500000 0.354430 -0.565580
O2    O     O_R   0.906950 0.000000 0.354430 -0.565403
O3    O     O_R   0.407010 0.500000 0.459520 -0.635108
O4    O     O_R   0.907010 0.000000 0.459520 -0.635055
C1    C     C_R   0.378383 0.500042 0.378571 0.892994
C2    C     C_R   0.878382 0.999983 0.378569 0.892768
O5    O     O_R   0.499970 0.561610 0.447450 -0.614467
O6    O     O_R   0.499970 0.438390 0.447450 -0.615812
O7    O     O_R   0.999970 0.061610 0.447450 -0.615495
O8    O     O_R   0.999970 0.938390 0.447450 -0.614811
O9    O     O_R   0.500030 0.561620 0.552540 -0.618554
O10   O     O_R   0.500030 0.438380 0.552540 -0.618012
O11   O     O_R   0.000030 0.061620 0.552540 -0.618220
O12   O     O_R   0.000030 0.938380 0.552540 -0.618366
C3    C     C_R   0.500095 0.581229 0.500134 0.896185
C4    C     C_R   0.500110 0.418771 0.500055 0.896653
C5    C     C_R   0.000093 0.081229 0.500132 0.895448
C6    C     C_R   0.000110 0.918771 0.500055 0.897307
Zn1   Zn    Zn3+2 0.499970 0.500000 0.429830 0.994740
Zn2   Zn    Zn3+2 0.999970 0.000000 0.429830 0.994822
Zn3   Zn    Zn3+2 0.500040 0.500000 0.570170 0.956561
Zn4   Zn    Zn3+2 0.000040 0.000000 0.570170 0.956494
O13   O     O_R   0.593000 0.500000 0.540480 -0.628004
O14   O     O_R   0.093000 0.000000 0.540480 -0.627996
O15   O     O_R   0.593060 0.500000 0.645570 -0.622761
O16   O     O_R   0.093060 0.000000 0.645570 -0.622789
C7    C     C_R   0.621571 0.500221 0.621179 0.889116
C8    C     C_R   0.121571 0.000221 0.621179 0.889144
C9    C     C_3   0.443800 0.764066 0.425363 -0.221322
C10   C     C_3   0.442345 0.235972 0.428063 -0.215544
C11   C     C_3   0.943573 0.264067 0.425791 -0.221398
C12   C     C_3   0.942105 0.735974 0.428782 -0.215670
C13   C     C_3   0.455500 0.736072 0.494935 0.232582
C14   C     C_3   0.458538 0.264108 0.500964 0.230359
C15   C     C_3   0.955938 0.236073 0.495883 0.232504
C16   C     C_3   0.959224 0.764109 0.502329 0.230298
H1    H     H_    0.397512 0.776047 0.363874 0.160168
H2    H     H_    0.394975 0.224020 0.369163 0.163432
H3    H     H_    0.897111 0.276049 0.364660 0.160170
H4    H     H_    0.894547 0.724024 0.370470 0.163443
H5    H     H_    0.519397 0.775763 0.627709 0.156270
H6    H     H_    0.527602 0.224512 0.633744 0.156851
H7    H     H_    0.020626 0.275763 0.628703 0.156266
H8    H     H_    0.029323 0.724509 0.635002 0.156896
C17   C     C_1   0.500261 0.625685 0.500405 -0.182016
C18   C     C_1   0.500252 0.374316 0.500102 -0.182644
C19   C     C_1   0.000256 0.125685 0.500401 -0.182495
C20   C     C_1   0.000250 0.874316 0.500102 -0.182205
C21   C     C_1   0.500074 0.874306 0.500698 -0.173454
C22   C     C_1   0.499955 0.125696 0.500497 -0.159644
C23   C     C_1   0.000075 0.374306 0.500700 -0.173460
C24   C     C_1   0.999957 0.625696 0.500507 -0.160351
C25   C     C_3   0.489296 0.736127 0.431393 -0.320086
C26   C     C_3   0.484690 0.263732 0.427511 -0.317455
C27   C     C_3   0.988619 0.236127 0.430855 -0.320321
C28   C     C_3   0.983754 0.763733 0.426856 -0.317230
C29   C     C_3   0.500424 0.708636 0.500963 0.107939
C30   C     C_3   0.500354 0.291366 0.500498 0.106073
C31   C     C_3   0.000417 0.208637 0.500958 0.108013
C32   C     C_3   0.000353 0.791366 0.500506 0.106049
C33   C     C_3   0.544324 0.763869 0.507436 0.496036
C34   C     C_3   0.541201 0.235962 0.500727 0.498829
C35   C     C_3   0.043889 0.263869 0.506506 0.496109
C36   C     C_3   0.040535 0.735961 0.499418 0.498597
C37   C     C_3   0.499836 0.791378 0.501459 0.088006
C38   C     C_3   0.499785 0.208629 0.501176 0.085872
C39   C     C_3   0.999842 0.291378 0.501472 0.088055
C40   C     C_3   0.999800 0.708629 0.501210 0.085902
C41   C     C_3   0.555805 0.736223 0.576272 0.123404
C42   C     C_3   0.557132 0.263751 0.572870 0.122329
C43   C     C_3   0.056028 0.236222 0.575859 0.123587
C44   C     C_3   0.057384 0.763749 0.572202 0.122425
C45   C     C_3   0.510934 0.764015 0.571058 -0.242421
C46   C     C_3   0.515427 0.236139 0.574200 -0.245802
C47   C     C_3   0.011611 0.264014 0.571606 -0.242425
C48   C     C_3   0.016378 0.736138 0.574900 -0.245631
C49   C     C_1   0.500370 0.663174 0.500639 -0.021149
C50   C     C_1   0.500331 0.336828 0.500213 -0.020485
C51   C     C_1   0.000363 0.163173 0.500633 -0.021399
C52   C     C_1   0.000328 0.836828 0.500216 -0.020265
C53   C     C_1   0.500033 0.836808 0.501164 0.011568
C54   C     C_1   0.499921 0.163197 0.500896 0.018881
C55   C     C_1   0.000035 0.336808 0.501170 0.011558
C56   C     C_1   0.999928 0.663197 0.500916 0.018644
H9    H     H_    0.481427 0.724458 0.375199 0.165306
H10   H     H_    0.473095 0.275279 0.368366 0.166621
H11   H     H_    0.980196 0.224459 0.374206 0.165180
H12   H     H_    0.971386 0.775281 0.367139 0.166780
C57   C     C_3   0.270477 0.464035 0.296975 -0.228277
C58   C     C_3   0.270262 0.533371 0.303847 -0.228291
C59   C     C_3   0.770400 0.965501 0.301153 -0.227607
C60   C     C_3   0.770324 0.034984 0.299770 -0.228894
C61   C     C_3   0.228831 0.497390 0.287588 0.269558
C62   C     C_3   0.728818 0.000518 0.287698 0.269175
H13   H     H_    0.288762 0.435009 0.337275 0.153895
H14   H     H_    0.288355 0.560188 0.349674 0.156655
H15   H     H_    0.788616 0.937760 0.344830 0.155171
H16   H     H_    0.788480 0.063205 0.342328 0.155251
C63   C     C_3   0.189048 0.500012 0.188809 -0.061136
C64   C     C_3   0.689046 0.999951 0.188794 -0.061148
C65   C     C_3   0.229589 0.466605 0.196333 -0.262528
C66   C     C_3   0.229395 0.536114 0.203278 -0.265263
C67   C     C_3   0.729531 0.964839 0.200424 -0.265765
C68   C     C_3   0.729456 0.034497 0.199032 -0.262104
C69   C     C_3   0.270446 0.502631 0.212709 0.504966
C70   C     C_3   0.770450 0.999401 0.212572 0.504936
C71   C     C_3   0.310913 0.500043 0.311436 -0.056734
C72   C     C_3   0.810911 0.999962 0.311426 -0.056654
H17   H     H_    0.211742 0.439908 0.150339 0.169391
H18   H     H_    0.211467 0.565079 0.162874 0.170742
H19   H     H_    0.711681 0.936705 0.157731 0.169200
H20   H     H_    0.711533 0.062141 0.155213 0.171104
C73   C     C_3   0.729531 0.532186 0.763098 0.166636
C74   C     C_3   0.729493 0.464309 0.752343 0.174560
C75   C     C_3   0.229531 0.032184 0.763102 0.166639
C76   C     C_3   0.229493 0.964308 0.752336 0.174628
C77   C     C_3   0.770226 0.496036 0.829133 -0.165260
C78   C     C_3   0.270226 0.996032 0.829131 -0.165273
H21   H     H_    0.787895 0.492629 0.895310 0.134689
H22   H     H_    0.287895 0.992622 0.895307 0.134744
C79   C     C_3   0.811088 0.500115 0.810739 -0.094337
C80   C     C_3   0.311088 0.000115 0.810738 -0.094367
C81   C     C_3   0.771727 0.536817 0.746693 -0.175564
C82   C     C_3   0.771736 0.467743 0.735754 -0.174156
C83   C     C_3   0.271727 0.036820 0.746698 -0.175564
C84   C     C_3   0.271736 0.967746 0.735747 -0.174154
C85   C     C_3   0.731152 0.504360 0.671476 0.157700
C86   C     C_3   0.231151 0.004365 0.671476 0.157714
C87   C     C_3   0.689049 0.500366 0.687646 -0.024782
C88   C     C_3   0.189049 0.000367 0.687645 -0.024788
H23   H     H_    0.790356 0.566595 0.745689 0.155289
H24   H     H_    0.790484 0.441293 0.726042 0.150961
H25   H     H_    0.290355 0.066599 0.745699 0.155292
H26   H     H_    0.290484 0.941298 0.726030 0.150960
O17   O     O_R   0.447530 0.000000 0.354370 -0.600874
O18   O     O_R   0.947530 0.500000 0.354370 -0.598450
O19   O     O_R   0.552560 0.000000 0.459510 -0.633222
O20   O     O_R   0.052560 0.500000 0.459510 -0.633674
C89   C     C_R   0.500378 0.999988 0.378664 0.914505
C90   C     C_R   0.000377 0.500012 0.378663 0.912993
O21   O     O_R   0.447490 0.938400 0.447370 -0.625817
O22   O     O_R   0.447490 0.061600 0.447370 -0.610775
O23   O     O_R   0.947490 0.438400 0.447370 -0.625737
O24   O     O_R   0.947490 0.561600 0.447370 -0.610367
O25   O     O_R   0.552530 0.938390 0.552510 -0.609397
O26   O     O_R   0.552530 0.061610 0.552510 -0.612315
O27   O     O_R   0.052530 0.438390 0.552510 -0.609359
O28   O     O_R   0.052530 0.561610 0.552510 -0.612709
C91   C     C_R   0.500031 0.918775 0.500108 0.891817
C92   C     C_R   0.499989 0.081225 0.500061 0.917538
C93   C     C_R   0.000031 0.418775 0.500108 0.891764
C94   C     C_R   0.999989 0.581225 0.500063 0.916242
Zn5   Zn    Zn3+2 0.429870 0.000000 0.429720 0.975824
Zn6   Zn    Zn3+2 0.929870 0.500000 0.429720 0.977245
Zn7   Zn    Zn3+2 0.570140 0.000000 0.570120 0.972122
Zn8   Zn    Zn3+2 0.070140 0.500000 0.570120 0.971565
O29   O     O_R   0.447440 0.000000 0.540340 -0.627215
O30   O     O_R   0.947440 0.500000 0.540340 -0.627244
O31   O     O_R   0.552480 0.000000 0.645470 -0.629234
O32   O     O_R   0.052480 0.500000 0.645470 -0.629204
C95   C     C_R   0.499567 0.999867 0.621009 0.909062
C96   C     C_R   0.999567 0.499866 0.621009 0.909068
O33   O     O_R   0.000050 0.534770 0.093010 -0.632425
O34   O     O_R   0.000050 0.465230 0.093010 -0.625333
O35   O     O_R   0.500050 0.034770 0.093010 -0.632421
O36   O     O_R   0.500050 0.965230 0.093010 -0.625711
C97   C     C_R   0.000633 0.500039 0.122384 0.889379
C98   C     C_R   0.500647 0.000035 0.122398 0.889568
O37   O     O_R   0.093030 0.534780 0.092960 -0.625108
O38   O     O_R   0.093030 0.465220 0.092960 -0.626169
O39   O     O_R   0.593030 0.034780 0.092960 -0.624375
O40   O     O_R   0.593030 0.965220 0.092960 -0.626959
C99   C     C_R   0.121745 0.499994 0.121377 0.931310
C100  C     C_R   0.621745 0.999984 0.121365 0.931308
Zn9   Zn    Zn3+2 1.000000 0.546450 0.999940 0.955798
Zn10  Zn    Zn3+2 0.000000 0.453550 0.999940 0.955943
Zn11  Zn    Zn3+2 0.500000 0.046450 0.999940 0.955861
Zn12  Zn    Zn3+2 0.500000 0.953550 0.999940 0.955644
O41   O     O_R   0.999950 0.534800 0.906860 -0.625336
O42   O     O_R   0.999950 0.465200 0.906860 -0.630166
O43   O     O_R   0.499950 0.034800 0.906860 -0.625415
O44   O     O_R   0.499950 0.965200 0.906860 -0.630105
O45   O     O_R   0.906980 0.534790 0.906910 -0.630756
O46   O     O_R   0.906980 0.465210 0.906910 -0.628235
O47   O     O_R   0.406980 0.034790 0.906910 -0.630764
O48   O     O_R   0.406980 0.965210 0.906910 -0.628176
C101  C     C_R   0.999964 0.499963 0.878254 0.951854
C102  C     C_R   0.499964 0.999964 0.878254 0.951851
C103  C     C_R   0.878288 0.500024 0.878321 0.891909
C104  C     C_R   0.378288 0.000024 0.878320 0.892059
C105  C     C_3   0.560878 0.000686 0.330796 -0.218681
C106  C     C_3   0.472374 0.964958 0.242960 -0.212436
C107  C     C_3   0.060736 0.502683 0.330660 -0.218617
C108  C     C_3   0.974953 0.464096 0.245525 -0.211635
C109  C     C_3   0.034440 0.466917 0.263117 -0.135491
C110  C     C_3   0.531988 0.965828 0.260682 -0.137563
H27   H     H_    0.061628 0.440012 0.271155 0.152384
H28   H     H_    0.557179 0.938058 0.266765 0.153270
H29   H     H_    0.609623 0.001066 0.397278 0.171111
H30   H     H_    0.449211 0.936355 0.238471 0.151768
H31   H     H_    0.109389 0.504671 0.397061 0.170989
H32   H     H_    0.953915 0.434769 0.243156 0.151374
C111  C     C_3   0.001051 0.500152 0.190210 -0.046960
C112  C     C_3   0.501076 0.000127 0.190235 -0.046722
C113  C     C_3   0.027622 0.536019 0.256713 -0.238786
C114  C     C_3   0.941412 0.497224 0.171054 -0.229866
C115  C     C_3   0.530249 0.035068 0.259318 -0.237158
C116  C     C_3   0.441292 0.999158 0.170943 -0.229582
C117  C     C_3   0.471251 0.033194 0.241619 0.495536
C118  C     C_3   0.968844 0.532217 0.239215 0.495143
C119  C     C_3   0.501283 0.999756 0.312067 -0.010908
C120  C     C_3   0.001282 0.499808 0.312065 -0.010937
H33   H     H_    0.048297 0.565582 0.259152 0.159668
H34   H     H_    0.892816 0.495668 0.104448 0.134908
H35   H     H_    0.553066 0.063907 0.263848 0.158451
H36   H     H_    0.392638 0.999196 0.104285 0.134840
C121  C     C_3   0.531153 0.966579 0.760418 0.085448
C122  C     C_3   0.525159 0.035278 0.754550 0.090893
C123  C     C_3   0.031176 0.466588 0.760441 0.085581
C124  C     C_3   0.025135 0.535285 0.754526 0.090853
C125  C     C_3   0.057262 0.502103 0.826966 0.481109
C126  C     C_3   0.557264 0.002086 0.826968 0.481068
C127  C     C_3   0.998993 0.499862 0.810210 -0.121376
C128  C     C_3   0.498993 0.999862 0.810210 -0.121345
C129  C     C_3   0.972025 0.463886 0.743497 -0.235968
C130  C     C_3   0.965881 0.533438 0.737499 -0.235729
C131  C     C_3   0.472000 0.963894 0.743473 -0.235910
C132  C     C_3   0.465904 0.033448 0.737521 -0.235797
C133  C     C_3   0.439770 0.997524 0.670563 0.184521
C134  C     C_3   0.939771 0.497505 0.670565 0.184481
C135  C     C_3   0.498566 0.999764 0.687389 -0.083138
C136  C     C_3   0.998566 0.499763 0.687389 -0.083165
H37   H     H_    0.950028 0.434816 0.739994 0.166932
H38   H     H_    0.938960 0.560615 0.729244 0.164793
H39   H     H_    0.449985 0.934831 0.739951 0.166916
H40   H     H_    0.439001 0.060633 0.729284 0.164794
C137  C     C_3   0.404459 0.719709 0.487493 -0.900879
H41   H     H_    0.379180 0.746515 0.484039 0.241842
H42   H     H_    0.370896 0.700358 0.426954 0.244348
H43   H     H_    0.425758 0.700220 0.546032 0.245131
C138  C     C_3   0.411015 0.280669 0.500820 -0.900401
H44   H     H_    0.387472 0.253962 0.501024 0.241831
H45   H     H_    0.435171 0.300228 0.560397 0.245287
H46   H     H_    0.375448 0.299995 0.440958 0.243948
C139  C     C_3   0.905396 0.219709 0.489518 -0.900904
H47   H     H_    0.880366 0.246515 0.486600 0.241877
H48   H     H_    0.871524 0.200359 0.429059 0.244141
H49   H     H_    0.927123 0.200220 0.548235 0.245214
C140  C     C_3   0.912474 0.780671 0.503721 -0.900257
H50   H     H_    0.889319 0.753964 0.504692 0.241785
H51   H     H_    0.937209 0.800230 0.563471 0.245235
H52   H     H_    0.876511 0.799998 0.444048 0.244120
O49   O     O_3   0.293960 0.505416 0.175024 -0.740532
H53   H     H_    0.256576 0.506536 0.110456 0.343803
O50   O     O_3   0.793961 0.998810 0.174737 -0.740414
H54   H     H_    0.756575 0.998579 0.110120 0.343700
C141  C     C_3   0.705055 0.568791 0.777553 -0.901554
H55   H     H_    0.745079 0.587124 0.835984 0.245727
H56   H     H_    0.675612 0.589409 0.718552 0.235336
H57   H     H_    0.676557 0.556820 0.788903 0.256069
C142  C     C_3   0.704616 0.423303 0.754165 -0.913251
H58   H     H_    0.744426 0.402765 0.806982 0.248988
H59   H     H_    0.675500 0.429793 0.767298 0.253104
H60   H     H_    0.675626 0.407148 0.689589 0.235587
C143  C     C_3   0.205055 0.068786 0.777563 -0.901682
H61   H     H_    0.245080 0.087118 0.835997 0.245726
H62   H     H_    0.175612 0.089406 0.718566 0.235425
H63   H     H_    0.176558 0.056813 0.788911 0.256016
C144  C     C_3   0.204616 0.923299 0.754150 -0.913411
H64   H     H_    0.244426 0.902760 0.806964 0.249008
H65   H     H_    0.175499 0.929786 0.767281 0.253051
H66   H     H_    0.175627 0.907147 0.689571 0.235616
C145  C     C_3   0.710595 0.509203 0.583263 -0.881862
H67   H     H_    0.752511 0.511888 0.594315 0.229783
H68   H     H_    0.682948 0.481374 0.541274 0.252166
H69   H     H_    0.681596 0.537923 0.549493 0.249541
C146  C     C_3   0.210594 0.009213 0.583263 -0.881893
H70   H     H_    0.252509 0.011901 0.594314 0.229775
H71   H     H_    0.182947 0.981386 0.541269 0.252181
H72   H     H_    0.181594 0.037934 0.549497 0.249525
O51   O     O_3   0.439776 0.068162 0.234504 -0.761939
H73   H     H_    0.425305 0.084092 0.183019 0.328470
O52   O     O_3   0.934844 0.566121 0.229557 -0.760907
H74   H     H_    0.919188 0.581523 0.176881 0.327968
O53   O     O_3   0.118262 0.504490 0.911096 -0.785164
H75   H     H_    0.145864 0.505514 0.901153 0.334844
O54   O     O_3   0.618266 0.004455 0.911099 -0.785163
H76   H     H_    0.645870 0.005452 0.901158 0.334877
C147  C     C_3   0.568252 0.929103 0.773196 -0.875207
H77   H     H_    0.585692 0.910451 0.830736 0.255057
H78   H     H_    0.537672 0.909119 0.713212 0.233817
H79   H     H_    0.608680 0.940140 0.785086 0.249683
C148  C     C_3   0.555507 0.075270 0.760524 -0.884672
H80   H     H_    0.569971 0.095151 0.815057 0.257460
H81   H     H_    0.597324 0.067284 0.773438 0.248083
H82   H     H_    0.521533 0.092808 0.697465 0.232577
C149  C     C_3   0.068299 0.429123 0.773244 -0.875255
H83   H     H_    0.085749 0.410476 0.830795 0.255002
H84   H     H_    0.037733 0.409130 0.713273 0.233770
H85   H     H_    0.108722 0.440172 0.785131 0.249690
C150  C     C_3   0.055456 0.575286 0.760473 -0.884785
H86   H     H_    0.069910 0.595171 0.814994 0.257489
H87   H     H_    0.097277 0.567313 0.773390 0.248042
H88   H     H_    0.021471 0.592814 0.697403 0.232669
C151  C     C_3   0.371894 0.994833 0.581954 -0.859035
H89   H     H_    0.359719 0.023006 0.541910 0.248616
H90   H     H_    0.365066 0.966206 0.546312 0.247312
H91   H     H_    0.340752 0.993296 0.592656 0.225975
C152  C     C_3   0.871897 0.494793 0.581957 -0.858980
H92   H     H_    0.859702 0.522964 0.541895 0.248642
H93   H     H_    0.865090 0.466166 0.546333 0.247293
H94   H     H_    0.840756 0.493245 0.592659 0.225977
C153  C     C_3   0.619379 0.720286 0.660868 -0.895831
H95   H     H_    0.650315 0.747300 0.702426 0.258986
H96   H     H_    0.613523 0.700775 0.697681 0.246317
H97   H     H_    0.641035 0.701037 0.644740 0.237813
C154  C     C_3   0.622196 0.279670 0.653911 -0.895293
H98   H     H_    0.653885 0.252649 0.693815 0.258452
H99   H     H_    0.640864 0.298791 0.633227 0.238430
H100  H     H_    0.619676 0.299309 0.694327 0.246528
C155  C     C_3   0.119844 0.220284 0.659965 -0.896028
H101  H     H_    0.150902 0.247297 0.701291 0.258955
H102  H     H_    0.114477 0.200772 0.697323 0.246292
H103  H     H_    0.141069 0.201036 0.643162 0.237845
C156  C     C_3   0.122707 0.779666 0.652440 -0.895517
H104  H     H_    0.154529 0.752643 0.691962 0.258500
H105  H     H_    0.140738 0.798783 0.630823 0.238434
H106  H     H_    0.120886 0.799308 0.693580 0.246485
O55   O     O_3   0.591107 0.779675 0.514566 -0.755401
H107  H     H_    0.610978 0.754694 0.514919 0.328018
O56   O     O_3   0.584780 0.219971 0.501190 -0.749983
H108  H     H_    0.603110 0.244867 0.498495 0.328103
O57   O     O_3   0.090219 0.279675 0.512652 -0.755451
H109  H     H_    0.109865 0.254693 0.512555 0.328029
O58   O     O_3   0.083412 0.719969 0.498479 -0.750402
H110  H     H_    0.101400 0.744864 0.495147 0.328148
C157  C     C_3   0.202787 0.494430 0.327965 -0.920996
H111  H     H_    0.173734 0.465719 0.303673 0.238566
H112  H     H_    0.241993 0.493027 0.400901 0.248856
H113  H     H_    0.173361 0.522359 0.308984 0.238726
C158  C     C_3   0.702754 0.001146 0.328198 -0.920130
H114  H     H_    0.673484 0.029597 0.306023 0.239989
H115  H     H_    0.673538 0.972841 0.307127 0.237312
H116  H     H_    0.741950 0.001463 0.401199 0.248816

loop_
_geom_bond_atom_site_label_1
_geom_bond_atom_site_label_2
_geom_bond_distance
_ccdc_geom_bond_type
C27   C31   1.545371 S    
C69   O49   1.398190 S    
C123  C136  1.536029 S    
O18   C90   1.277383 A    
C157  H111  1.109954 S    
C127  C130  1.539718 S    
O47   C104  1.266261 A    
O38   Zn10  2.020412 S    
O57   H109  0.991160 S    
C11   C39   1.542915 S    
C111  C113  1.536408 S    
C90   C120  1.440701 S    
Zn9   O45   2.020149 S    
C58   C71   1.537525 S    
Zn6   O30   2.024329 S    
C77   H21   1.110417 S    
C122  C148  1.520460 S    
C109  C111  1.534000 S    
C32   C44   1.536225 S    
C9    C13   1.546752 S    
C64   C68   1.537730 S    
C145  H69   1.109742 S    
C107  H31   1.110286 S    
C10   H2    1.110170 S    
C24   C56   1.194991 T    
C105  C110  1.547756 S    
O26   C92   1.283401 A    
O9    C3    1.283351 A    
O10   C4    1.283279 A    
O8    Zn2   1.999549 S    
C42   C46   1.549161 S    
O31   C95   1.277589 A    
C110  C112  1.534129 S    
O55   H107  0.991167 S    
C114  H34   1.110413 S    
C152  H93   1.109722 S    
O6    C4    1.283409 A    
C139  H47   1.109653 S    
C128  C132  1.539719 S    
C122  C132  1.547754 S    
C132  C133  1.544994 S    
H7    C47   1.110242 S    
C15   C139  1.519667 S    
C34   C38   1.525917 S    
C30   C42   1.536232 S    
O23   Zn6   1.998330 S    
C44   C156  1.520148 S    
C150  H86   1.109586 S    
O48   C104  1.266722 A    
C154  H100  1.109737 S    
Zn1   O13   2.024122 S    
O42   C101  1.265902 A    
C69   C71   1.522499 S    
C38   C54   1.447745 S    
C75   C78   1.543550 S    
C153  H96   1.109725 S    
C60   C62   1.542651 S    
C134  C136  1.537260 S    
Zn12  O44   2.020610 S    
O20   C90   1.275413 A    
C82   C85   1.541271 S    
C13   C45   1.548288 S    
C63   C65   1.537523 S    
C35   C43   1.530741 S    
O5    Zn1   1.998326 S    
C144  H65   1.109703 S    
C76   C144  1.520650 S    
C23   C55   1.194981 T    
C157  H113  1.110062 S    
C58   C61   1.542922 S    
C68   H20   1.110203 S    
C1    C71   1.439995 S    
C150  H88   1.109891 S    
Zn10  O46   2.019564 S    
C57   C65   1.553874 S    
C59   C67   1.553405 S    
C62   C158  1.521328 S    
C124  C150  1.520460 S    
C129  C134  1.545245 S    
C89   C119  1.440695 S    
C59   C62   1.542765 S    
O22   C92   1.283686 A    
O8    C6    1.283415 A    
C76   C78   1.542972 S    
C8    C88   1.440212 S    
C106  H30   1.110191 S    
O24   Zn6   1.998916 S    
C78   H22   1.110417 S    
C79   C81   1.536042 S    
C60   C68   1.553500 S    
C108  C120  1.534143 S    
O58   H110  0.991154 S    
Zn12  O48   2.019564 S    
C33   C37   1.525856 S    
C76   C88   1.530171 S    
C84   H26   1.110414 S    
C155  H101  1.109619 S    
C139  H49   1.109766 S    
C14   C30   1.534690 S    
C25   H9    1.110022 S    
C138  H45   1.109770 S    
C105  C119  1.536361 S    
C39   C55   1.447711 S    
O35   Zn11  2.020578 S    
O33   C97   1.266866 A    
O33   Zn9   2.020578 S    
C10   C26   1.557924 S    
C34   C42   1.530771 S    
C140  H50   1.109657 S    
C118  O52   1.397871 S    
C12   C16   1.546751 S    
C15   C31   1.534673 S    
C36   C40   1.525911 S    
C79   C103  1.434382 S    
O49   H53   0.991304 S    
C70   C72   1.522543 S    
C28   H12   1.110015 S    
C38   C46   1.544008 S    
C117  O51   1.397861 S    
O19   Zn7   2.023951 S    
C138  H44   1.109660 S    
C78   C80   1.535776 S    
C156  H105  1.109816 S    
C58   C66   1.553007 S    
C95   C135  1.438137 S    
C134  C152  1.520932 S    
C25   C33   1.540028 S    
C60   C72   1.537538 S    
C151  H90   1.109724 S    
C27   C35   1.540026 S    
C28   C36   1.540064 S    
O14   C8    1.273429 A    
C137  H41   1.109659 S    
C14   C138  1.519669 S    
O36   C98   1.267188 A    
C149  H84   1.109892 S    
C85   C145  1.520937 S    
C124  C125  1.529942 S    
O40   C100  1.266436 A    
C158  H115  1.110016 S    
C43   C155  1.520076 S    
O6    Zn1   1.999549 S    
C107  C113  1.549225 S    
C10   C14   1.546753 S    
Zn7   O31   2.017398 S    
C41   C153  1.520089 S    
Zn8   O32   2.017398 S    
C26   H10   1.110022 S    
C123  C149  1.520476 S    
C105  C115  1.549128 S    
C130  C134  1.544991 S    
O9    Zn3   1.999856 S    
C98   C112  1.438837 S    
O32   C96   1.277589 A    
O27   C93   1.283471 A    
C85   C87   1.533554 S    
C148  H80   1.109586 S    
O4    Zn4   2.024121 S    
C114  C118  1.532512 S    
C81   C85   1.541587 S    
C62   C64   1.527233 S    
C155  H103  1.109806 S    
C147  H77   1.109601 S    
C124  C130  1.547757 S    
O44   C102  1.265901 A    
C126  C128  1.522485 S    
C143  H62   1.110042 S    
C73   C77   1.543551 S    
C131  C133  1.545245 S    
C118  C120  1.517263 S    
C64   C100  1.436482 S    
C9    C37   1.542917 S    
C39   C47   1.543994 S    
O40   Zn12  2.020412 S    
Zn3   O15   2.017458 S    
C32   C52   1.448695 S    
C140  H52   1.109774 S    
C84   C86   1.541270 S    
O23   C93   1.283611 A    
C5    C19   1.416611 S    
C6    C20   1.416572 S    
C142  H60   1.110028 S    
C127  C129  1.539973 S    
C58   H14   1.110246 S    
C40   C48   1.544009 S    
C130  H38   1.110373 S    
O11   C5    1.283348 A    
C141  H57   1.109603 S    
O12   Zn4   1.998640 S    
C80   C83   1.536044 S    
C146  H71   1.109677 S    
O24   C94   1.283690 A    
O21   Zn5   1.998330 S    
C101  C127  1.431920 S    
C113  C118  1.531699 S    
Zn11  O43   2.019405 S    
O5    C3    1.283357 A    
C145  H68   1.109677 S    
C61   C157  1.521305 S    
C74   C77   1.542971 S    
O3    Zn3   2.024121 S    
C23   C93   1.417103 S    
Zn10  O42   2.020610 S    
C60   H16   1.110246 S    
C137  H43   1.109769 S    
O52   H74   0.991216 S    
C115  C117  1.532031 S    
O37   C99   1.266186 A    
O39   Zn11  2.019826 S    
C17   C49   1.194604 T    
C96   C136  1.438139 S    
C109  H27   1.110277 S    
C75   C88   1.530326 S    
O39   C100  1.266453 A    
C68   C70   1.531989 S    
O19   C89   1.275393 A    
O1    C1    1.274903 A    
C106  C110  1.549004 S    
C148  H82   1.109892 S    
C152  H94   1.109795 S    
O41   C101  1.266169 A    
C65   H17   1.110200 S    
C108  H32   1.110186 S    
O45   C103  1.266261 A    
C147  H79   1.109625 S    
Zn11  O47   2.020149 S    
C66   C69   1.532125 S    
C67   H19   1.110192 S    
C35   O57   1.398024 S    
C21   C53   1.194981 T    
C154  H99   1.109824 S    
O26   Zn7   1.998601 S    
C116  C117  1.532365 S    
C41   C45   1.549172 S    
O36   Zn12  2.019370 S    
C97   C111  1.438815 S    
C61   C63   1.527234 S    
C108  C109  1.549302 S    
C113  H33   1.110212 S    
C144  H64   1.109605 S    
C73   C141  1.520576 S    
C121  C147  1.520479 S    
C157  H112  1.109539 S    
O43   C102  1.266168 A    
C80   C104  1.434385 S    
C150  H87   1.109684 S    
C111  C114  1.535209 S    
O1    Zn1   2.017460 S    
H6    C46   1.110252 S    
O2    Zn2   2.017460 S    
C40   C56   1.447745 S    
C29   C49   1.448707 S    
C110  H28   1.110257 S    
C31   C51   1.448710 S    
C18   C50   1.194583 T    
C25   C29   1.545375 S    
C107  C120  1.536347 S    
C26   C34   1.540068 S    
C152  H92   1.109683 S    
C64   C67   1.537764 S    
C28   C32   1.545352 S    
C57   H13   1.110248 S    
O56   H108  0.991163 S    
O53   H75   0.991046 S    
O18   Zn6   2.017397 S    
O7    Zn2   1.998326 S    
C37   C53   1.447710 S    
O54   H76   0.991042 S    
C73   C81   1.542205 S    
C112  C115  1.536292 S    
C24   C94   1.417122 S    
C15   C47   1.548288 S    
C57   C71   1.537573 S    
C115  H35   1.110224 S    
C16   C140  1.519666 S    
O37   Zn9   2.019826 S    
C59   H15   1.110246 S    
O27   Zn8   1.999195 S    
C14   C46   1.548244 S    
O4    C2    1.277665 A    
C139  H48   1.109775 S    
C74   C87   1.530171 S    
C11   C15   1.546751 S    
C66   H18   1.110199 S    
C4    C18   1.416576 S    
C128  C131  1.539971 S    
O29   C95   1.273105 A    
C22   C54   1.194994 T    
C121  C126  1.530323 S    
C81   H23   1.110431 S    
C59   C72   1.537571 S    
O34   C97   1.267296 A    
O3    C1    1.277633 A    
C86   C88   1.533554 S    
O17   C89   1.277398 A    
C129  H37   1.110376 S    
C138  H46   1.109778 S    
C133  C135  1.537262 S    
C153  H95   1.109622 S    
C142  H58   1.109606 S    
C75   C83   1.542208 S    
O11   Zn4   1.999856 S    
O34   Zn10  2.019370 S    
Zn5   O29   2.024329 S    
C156  H104  1.109613 S    
C13   C137  1.519669 S    
C30   C50   1.448695 S    
C63   C66   1.538020 S    
C148  H81   1.109682 S    
C151  H89   1.109684 S    
Zn4   O16   2.017458 S    
C144  H66   1.110029 S    
C9    H1    1.110166 S    
O28   Zn8   1.998601 S    
C11   C27   1.557880 S    
C12   C28   1.557928 S    
O25   C91   1.283470 A    
C75   C143  1.520573 S    
O38   C99   1.266720 A    
C149  H83   1.109601 S    
O12   C6    1.283277 A    
C19   C51   1.194600 T    
C44   C48   1.549165 S    
O21   C91   1.283611 A    
C158  H114  1.110005 S    
C82   H24   1.110413 S    
C126  O54   1.398522 S    
C73   C87   1.530329 S    
C74   C142  1.520650 S    
C105  H29   1.110286 S    
C141  H55   1.109634 S    
C36   O58   1.398023 S    
C34   O56   1.398018 S    
C37   C45   1.543994 S    
H8    C48   1.110245 S    
C77   C79   1.535779 S    
C79   C82   1.535546 S    
C16   C48   1.548239 S    
C147  H78   1.109891 S    
Zn2   O14   2.024122 S    
C107  C109  1.547679 S    
C63   C99   1.436515 S    
C83   C86   1.541587 S    
O13   C7    1.273430 A    
C143  H61   1.109635 S    
C12   C40   1.542892 S    
C74   C82   1.543551 S    
C36   C44   1.530767 S    
C116  H36   1.110411 S    
C76   C84   1.543551 S    
C57   C61   1.542490 S    
C106  C116  1.550247 S    
O2    C2    1.274887 A    
C122  C126  1.529944 S    
C65   C69   1.531978 S    
C108  C114  1.550100 S    
C35   C39   1.525851 S    
O28   C94   1.283397 A    
C140  H51   1.109762 S    
C124  C136  1.535885 S    
O20   Zn8   2.023951 S    
C142  H59   1.109706 S    
C153  H97   1.109807 S    
Zn9   O41   2.019405 S    
C155  H102  1.109724 S    
O51   H73   0.991220 S    
H5    C45   1.110245 S    
O10   Zn3   1.998640 S    
C141  H56   1.110039 S    
C80   C84   1.535545 S    
C156  H106  1.109733 S    
C125  O53   1.398523 S    
C106  C119  1.534136 S    
C123  C125  1.530324 S    
C22   C92   1.417121 S    
C151  H91   1.109794 S    
C83   H25   1.110429 S    
C145  H67   1.109805 S    
C123  C129  1.547068 S    
C10   C38   1.542896 S    
C27   H11   1.110017 S    
C112  C116  1.535231 S    
C102  C128  1.431924 S    
O7    C5    1.283357 A    
C121  C131  1.547071 S    
O35   C98   1.266986 A    
C137  H42   1.109777 S    
C7    C87   1.440212 S    
C149  H85   1.109624 S    
C146  H72   1.109743 S    
C3    C17   1.416608 S    
O50   H54   0.991304 S    
C86   C146  1.520936 S    
C26   C30   1.545356 S    
C158  H116  1.109535 S    
C33   C41   1.530746 S    
C13   C29   1.534675 S    
C70   O50   1.398199 S    
C42   C154  1.520163 S    
C16   C32   1.534689 S    
O15   C7    1.278003 A    
C131  H39   1.110374 S    
O16   C8    1.278002 A    
O17   Zn5   2.017397 S    
C21   C91   1.417103 S    
C33   O55   1.398019 S    
C20   C52   1.194586 T    
C125  C127  1.522486 S    
C121  C135  1.536027 S    
C43   C47   1.549169 S    
C9    C25   1.557877 S    
C117  C119  1.517216 S    
C11   H3    1.110158 S    
C67   C70   1.532082 S    
C12   H4    1.110160 S    
O22   Zn5   1.998916 S    
C154  H98   1.109616 S    
C143  H63   1.109601 S    
C122  C135  1.535888 S    
C132  H40   1.110370 S    
C133  C151  1.520930 S    
O30   C96   1.273105 A    
O25   Zn7   1.999195 S    
C2    C72   1.440028 S    
O46   C103  1.266722 A    
C29   C41   1.536247 S    
C146  H70   1.109808 S    
C31   C43   1.536243 S    
