data_mof_unit_67339.cif
_audit_creation_date              2013-03-05T16:05:43-0500
_audit_creation_method            fapswitch 2.2
_symmetry_space_group_name_H-M    P1
_symmetry_Int_Tables_number       1
_space_group_crystal_system       triclinic
_cell_length_a                    8.481335
_cell_length_b                    15.401589
_cell_length_c                    16.752894
_cell_angle_alpha                 113.49218
_cell_angle_beta                  98.926329
_cell_angle_gamma                 79.968996
_cell_volume                      1967.37579186

loop_
_atom_site_label
_atom_site_type_symbol
_atom_site_description
_atom_site_fract_x
_atom_site_fract_y
_atom_site_fract_z
_atom_type_partial_charge
P1    P     P_3+3 0.592580 0.619730 0.703530 0.467421
O1    O     O_2   0.428380 0.595290 0.716080 -0.267968
O2    O     O_3   0.649320 0.571640 0.606850 -0.457515
O3    O     O_3   0.202060 0.415890 0.655600 -0.403487
O4    O     O_2   0.374176 0.494576 0.811379 -0.395363
O5    O     O_3   0.561211 0.745473 0.744139 -0.604066
O6    O     O_3   0.221692 0.348619 0.790335 -0.624006
H1    H     H_    0.449507 0.321244 0.745261 0.164658
C1    C     C_3   0.446836 0.267010 0.844450 -0.766514
H2    H     H_    0.554388 0.213770 0.827242 0.245063
H3    H     H_    0.483872 0.334000 0.896273 0.231788
P2    P     P_3+3 0.156500 0.273340 0.422460 0.478567
P3    P     P_3+3 0.666247 0.238630 0.592481 0.478211
O7    O     O_2   0.338780 0.265250 0.448290 -0.293408
O8    O     O_3   0.612600 0.359160 0.609560 -0.354951
O9    O     O_2   0.520483 0.186698 0.539756 -0.375645
O10   O     O_3   0.137829 0.218071 0.307683 -0.608420
O11   O     O_3   0.684129 0.223001 0.692136 -0.578097
C2    C     C_3   0.826847 0.254558 0.744650 0.532576
H4    H     H_    0.923815 0.249819 0.704835 0.087063
C3    C     C_3   0.890295 0.190324 0.798983 -0.216741
H5    H     H_    0.801358 0.140730 0.786604 0.202821
C4    C     C_3   0.748973 0.201767 0.267115 0.298235
H6    H     H_    0.851093 0.241517 0.277506 0.118093
C5    C     C_3   0.767962 0.105542 0.185826 -0.301186
H7    H     H_    0.686852 0.057587 0.187577 0.162934
Ba1   Ba    Ba6+2 0.364200 0.465260 0.540910 1.560125
C6    C     C_3   0.456838 0.781573 0.688132 0.537919
H8    H     H_    0.340617 0.753432 0.674688 0.167475
C7    C     C_3   0.432861 0.891767 0.731521 -0.357642
H9    H     H_    0.354079 0.921555 0.686460 0.198035
H10   H     H_    0.550679 0.919332 0.744130 0.231020
C8    C     C_3   0.220570 0.256198 0.265536 0.622676
H11   H     H_    0.324406 0.290761 0.307679 0.148889
C9    C     C_3   0.279878 0.176036 0.180719 -0.415516
H12   H     H_    0.361270 0.204208 0.153618 0.190099
H13   H     H_    0.178180 0.155042 0.129237 0.225644
P4    P     P_3+3 0.597130 0.380190 0.296460 0.460370
O12   O     O_2   0.761310 0.404670 0.283870 -0.405541
O13   O     O_3   0.540390 0.428280 0.393140 -0.360705
O14   O     O_3   0.987650 0.584030 0.344390 -0.379966
O15   O     O_3   0.601316 0.254757 0.254964 -0.632463
P5    P     P_3+3 0.521757 0.757814 0.399187 0.435155
O16   O     O_3   0.122140 0.620560 0.549160 -0.336148
O17   O     O_3   0.577110 0.640760 0.390430 -0.386817
O18   O     O_2   0.667100 0.811244 0.449540 -0.416917
O19   O     O_3   0.509882 0.763440 0.295704 -0.534236
Ba2   Ba    Ba6+2 0.825640 0.534660 0.459080 1.546083
P6    P     P_3+3 0.213467 0.452617 0.770213 0.455472
C10   C     C_3   0.364889 0.288352 0.765343 0.390728
H14   H     H_    0.363853 0.239703 0.871400 0.274002
O20   O     O_3   0.067570 0.379360 0.450830 -0.409937
C11   C     C_3   0.921429 0.804541 0.740835 0.320907
H15   H     H_    0.815719 0.843650 0.718028 0.067574
H16   H     H_    0.883795 0.735026 0.724633 0.066949
C12   C     C_3   0.951661 0.855538 0.842535 -0.466281
P7    P     P_3+3 0.035144 0.743529 0.582163 0.449438
O21   O     O_2   0.850910 0.734710 0.551660 -0.396925
O22   O     O_3   0.059628 0.796478 0.698767 -0.592724
C13   C     C_3   0.518387 0.671937 0.228328 0.399699
H17   H     H_    0.629062 0.627431 0.240639 0.164805
H18   H     H_    0.414439 0.635550 0.224303 0.047779
C14   C     C_3   0.521568 0.681965 0.140491 -0.219044
H19   H     H_    0.618476 0.724465 0.148505 0.199500
P8    P     P_3+3 0.976779 0.561123 0.233670 0.406065
C15   C     C_3   0.947851 0.749463 0.274777 0.328161
O23   O     O_2   0.853333 0.488613 0.189860 -0.421881
O24   O     O_3   0.890901 0.664215 0.211905 -0.572154
H20   H     H_    0.914590 0.761223 0.340289 0.049541
H21   H     H_    0.947756 0.897562 0.289142 0.132287
C16   C     C_3   0.872792 0.838827 0.252156 -0.263881
C17   C     C_2   0.301751 0.491597 0.247497 -0.475474
C18   C     C_R   0.917509 0.561218 0.761812 -0.454575
C19   C     C_2   0.468742 0.386198 0.130412 -0.224474
C20   C     C_2   0.450663 0.424205 0.217687 0.206007
C21   C     C_2   0.174647 0.505071 0.190624 0.182247
C22   C     C_3   0.178855 0.451919 0.092477 0.047685
C23   C     C_3   0.348544 0.413670 0.065015 0.050130
C24   C     C_2   0.068985 0.499099 0.035013 -0.131027
C25   C     C_2   0.112519 0.510748 0.965394 -0.050869
C26   C     C_R   0.836820 0.582383 0.924225 0.028767
C27   C     C_R   0.995312 0.545184 0.903452 -0.008787
C28   C     C_R   0.717783 0.601578 0.863289 -0.155261
C29   C     C_R   0.753906 0.586426 0.779641 0.192360
C30   C     C_R   0.033750 0.532336 0.819374 0.341310
H22   H     H_    0.596978 0.629285 0.881791 0.167000
H23   H     H_    0.290187 0.523792 0.317220 0.174778
H24   H     H_    0.943577 0.516828 0.047344 0.163290
H25   H     H_    0.236623 0.490146 0.950843 0.166096
C31   C     C_R   0.853638 0.183247 0.537181 0.246220
H26   H     H_    0.700746 0.056292 0.555849 0.209486
C32   C     C_R   0.079659 0.200943 0.473866 0.237427
C33   C     C_R   0.242020 0.766921 0.478474 -0.537667
C34   C     C_R   0.336398 0.817423 0.454814 0.278278
C35   C     C_R   0.288845 0.913453 0.471357 -0.209843
C36   C     C_R   0.132712 0.955910 0.494116 0.036684
C37   C     C_R   0.046174 0.907986 0.529489 -0.078359
C38   C     C_R   0.065104 0.047721 0.489723 0.030522
C39   C     C_R   0.912054 0.086944 0.520128 -0.177224
C40   C     C_R   0.823455 0.032255 0.540863 -0.189348
C41   C     C_R   0.896403 0.955424 0.560719 0.265737
C42   C     C_R   0.135190 0.101111 0.452949 0.049352
C43   C     C_R   0.948123 0.242000 0.524482 -0.187006
C44   C     C_R   0.110448 0.813470 0.527057 0.236435
H27   H     H_    0.275811 0.691341 0.462435 0.166081
H28   H     H_    0.374893 0.952474 0.463504 0.173170
C45   C     C_3   0.935626 0.049684 0.185340 -0.959001
H29   H     H_    0.964674 0.028248 0.242092 0.247598
H30   H     H_    0.023520 0.093683 0.185309 0.305435
H31   H     H_    0.944478 0.983981 0.124991 0.274146
C46   C     C_2   0.721982 0.118915 0.100529 0.673664
H32   H     H_    0.595998 0.127288 0.077131 0.017088
O25   O     O_2   0.823781 0.119800 0.056690 -0.564413
C47   C     C_3   0.533191 0.753177 0.604431 -0.892848
H33   H     H_    0.485932 0.689781 0.552938 0.255335
H34   H     H_    0.526996 0.812888 0.583268 0.211096
H35   H     H_    0.658645 0.731239 0.618903 0.283736
C48   C     C_3   0.357370 0.929971 0.817394 -0.857066
H36   H     H_    0.229226 0.920113 0.803130 0.236506
H37   H     H_    0.417301 0.893262 0.861110 0.262707
H38   H     H_    0.366246 0.007572 0.851309 0.271209
C49   C     C_3   0.102924 0.328136 0.238624 -0.894272
H39   H     H_    0.151150 0.342003 0.188116 0.202689
H40   H     H_    0.989638 0.297761 0.206982 0.258407
H41   H     H_    0.079206 0.394952 0.296254 0.284191
C50   C     C_3   0.366725 0.086168 0.193232 -0.769415
H42   H     H_    0.450494 0.104566 0.253617 0.283409
H43   H     H_    0.281463 0.041549 0.196697 0.256976
H44   H     H_    0.432019 0.041381 0.135119 0.219413
C51   C     C_2   0.325891 0.199752 0.687829 0.581125
H45   H     H_    0.246896 0.207245 0.633099 0.005680
O26   O     O_2   0.382841 0.119977 0.684532 -0.614797
C52   C     C_2   0.940535 0.962378 0.867859 0.425079
H46   H     H_    0.039460 0.001684 0.905816 0.071989
O27   O     O_2   0.817378 0.007049 0.848440 -0.583130
C53   C     C_2   0.821524 0.839924 0.886318 0.514734
H47   H     H_    0.698139 0.867775 0.874015 0.096306
O28   O     O_2   0.852049 0.799367 0.937484 -0.597505
C54   C     C_2   0.115350 0.819478 0.877382 0.753356
H48   H     H_    0.192234 0.869177 0.925404 -0.092464
O29   O     O_2   0.159140 0.734309 0.856835 -0.524574
C55   C     C_2   0.907484 0.243679 0.897692 0.677266
H49   H     H_    0.803171 0.285631 0.930418 0.047093
O30   O     O_2   0.036179 0.240780 0.941579 -0.580418
C56   C     C_3   0.560740 0.586387 0.065995 -0.993243
H50   H     H_    0.673196 0.546593 0.083187 0.289562
H51   H     H_    0.574794 0.598415 0.006836 0.261042
H52   H     H_    0.462003 0.542952 0.049582 0.271290
C57   C     C_2   0.368174 0.734756 0.115262 0.755032
H53   H     H_    0.363181 0.809546 0.126432 0.035816
O31   O     O_2   0.247535 0.695163 0.083989 -0.595219
C58   C     C_2   0.128160 0.741767 0.280823 0.501617
H54   H     H_    0.200488 0.689032 0.302527 -0.027619
O32   O     O_2   0.195159 0.796577 0.265607 -0.616198
C59   C     C_2   0.712597 0.883549 0.287456 0.593591
H55   H     H_    0.701910 0.902522 0.356154 0.061183
O33   O     O_2   0.597011 0.904482 0.242309 -0.616668
C60   C     C_3   0.791433 0.359951 0.801680 -1.028746
H56   H     H_    0.900772 0.382817 0.845087 0.232294
H57   H     H_    0.759569 0.402504 0.760604 0.260716
H58   H     H_    0.690876 0.373494 0.841716 0.247534
C61   C     C_3   0.873943 0.819732 0.154264 -0.610386
H59   H     H_    0.838181 0.749078 0.110316 0.255049
H60   H     H_    0.792679 0.874862 0.135892 0.233121
H61   H     H_    0.996592 0.821912 0.140583 0.267365
C62   C     C_2   0.609507 0.318724 0.092954 0.557991
H62   H     H_    0.721298 0.312776 0.131997 0.081829
O34   O     O_2   0.601319 0.266957 0.015689 -0.605432
C63   C     C_2   0.975544 0.569344 0.686666 0.597172
H63   H     H_    0.914450 0.546268 0.622734 0.059754
O35   O     O_2   0.101206 0.602010 0.696252 -0.456735
C64   C     C_3   0.897523 0.347344 0.561682 -0.666555
H64   H     H_    0.986114 0.390113 0.567482 0.241313
H65   H     H_    0.792800 0.367513 0.521133 0.268944
H66   H     H_    0.881795 0.370955 0.631843 0.166850
C65   C     C_3   0.244299 0.050892 0.380541 -0.856691
H67   H     H_    0.203601 0.074495 0.326614 0.260557
H68   H     H_    0.370418 0.065131 0.403912 0.281253
H69   H     H_    0.235559 0.973588 0.348580 0.268192
C66   C     C_3   0.826894 0.947026 0.633472 -0.869874
H70   H     H_    0.746896 0.011919 0.669100 0.251192
H71   H     H_    0.747310 0.891377 0.608486 0.273305
H72   H     H_    0.925972 0.941304 0.682737 0.253697
C67   C     C_3   0.047805 0.127746 0.767775 -0.852029
H73   H     H_    0.076061 0.071449 0.795047 0.262095
H74   H     H_    0.040678 0.093328 0.695672 0.243685
H75   H     H_    0.147096 0.171966 0.790053 0.278300
C68   C     C_2   0.743773 0.178606 0.345164 0.481535
H76   H     H_    0.831705 0.124673 0.357747 -0.053000
O36   O     O_2   0.636567 0.217144 0.393169 -0.527643

loop_
_geom_bond_atom_site_label_1
_geom_bond_atom_site_label_2
_geom_bond_distance
_ccdc_geom_bond_type
Ba1   Ba2   4.756967 S    
C3    C67   1.534065 S    
C15   O24   1.423763 S    
C50   H42   1.107698 S    
C16   C61   1.547756 S    
P3    C31   1.861852 S    
C59   O33   1.221161 D    
C63   O35   1.218223 D    
C63   H63   1.063208 S    
C35   C36   1.408103 A    
C1    H14   1.108686 S    
C17   C21   1.368924 D    
C56   H52   1.096111 S    
C56   H50   1.104589 S    
C11   O22   1.421913 S    
C22   C23   1.524469 S    
C64   H64   1.051969 S    
P1    C29   1.869922 S    
C33   C34   1.401419 A    
P8    C21   1.859075 S    
P3    O11   1.759917 S    
C13   C14   1.544331 S    
C68   O36   1.218267 D    
C6    H8    1.101050 S    
C2    C3    1.573934 S    
C3    C55   1.521401 S    
P4    O15   1.769104 S    
C57   O31   1.220461 D    
C4    C68   1.494693 S    
P7    O22   1.785279 S    
C15   H20   1.112091 S    
C42   C65   1.508997 S    
O2    Ba2   2.901245 S    
P5    C34   1.858103 S    
C67   H73   1.107897 S    
C13   H18   1.104264 S    
P1    O1    1.569043 D    
C25   H25   1.081487 S    
C48   H36   1.099687 S    
C14   C57   1.505705 S    
O3    Ba1   2.917182 S    
C10   C51   1.506322 S    
C32   C43   1.408471 A    
C33   H27   1.080597 S    
O19   C13   1.409611 S    
Ba1   O16   2.840559 S    
C60   H57   1.102829 S    
C65   H69   1.104497 S    
O5    C6    1.399942 S    
C2    H4    1.112259 S    
C66   H71   1.092348 S    
P8    O23   1.548368 D    
C36   C38   1.456415 A    
P2    O10   1.759131 S    
C4    H6    1.099209 S    
H21   C16   1.112533 S    
O7    Ba1   2.874065 S    
C1    H2    1.104596 S    
Ba1   O13   2.900569 S    
C18   C29   1.419085 A    
P4    Ba2   3.411544 S    
C60   H58   1.106690 S    
C66   H72   1.100931 S    
C32   C42   1.441567 A    
C22   C24   1.538350 S    
P4    O13   1.601500 S    
C3    H5    1.105124 S    
C62   O34   1.218447 D    
C45   H30   1.091470 S    
O4    P6    1.552711 D    
C62   H62   1.077142 S    
O10   C8    1.401326 S    
C17   C20   1.499212 S    
C33   C44   1.399863 A    
C24   H24   1.081933 S    
C26   C28   1.401998 A    
C64   H65   1.109831 S    
C12   C52   1.516037 S    
C61   H60   1.108766 S    
P4    C20   1.911905 S    
C11   H16   1.087336 S    
C19   C20   1.363786 D    
C56   H51   1.105216 S    
P2    Ba1   3.439606 S    
P1    O5    1.763648 S    
C37   C44   1.449505 A    
P6    C30   1.854869 S    
C21   C22   1.519837 S    
O6    P6    1.751648 S    
C53   O28   1.222134 D    
C12   C54   1.521518 S    
O11   C2    1.417367 S    
O14   P8    1.734957 S    
C7    C48   1.518389 S    
C50   H44   1.108667 S    
C5    H7    1.104590 S    
C11   H15   1.096204 S    
C26   C27   1.405070 A    
C14   H19   1.097784 S    
C68   H76   1.079626 S    
P1    O2    1.601503 S    
C48   H38   1.110690 S    
C60   H56   1.101422 S    
C9    C50   1.526589 S    
C51   O26   1.222044 D    
C15   C58   1.503757 S    
C35   H28   1.075510 S    
C61   H61   1.108153 S    
C1    H3    1.109541 S    
O8    Ba1   2.824636 S    
C15   C16   1.574460 S    
O16   P7    1.800559 S    
C45   H29   1.105820 S    
P8    O24   1.777860 S    
C16   C59   1.506227 S    
C36   C37   1.451584 A    
C8    H11   1.108212 S    
C46   O25   1.222251 D    
C4    O15   1.404673 S    
Ba2   O21   2.874307 S    
P5    O17   1.734283 S    
C18   C30   1.412064 A    
C43   C64   1.496413 S    
O1    Ba1   2.849115 S    
C6    C47   1.507011 S    
C25   C27   1.510400 S    
C65   H67   1.090331 S    
C58   O32   1.218237 D    
C12   C53   1.516050 S    
P3    O8    1.748616 S    
C52   H46   1.085933 S    
H26   C40   1.075164 S    
C45   H31   1.110516 S    
C55   O30   1.222336 D    
C28   C29   1.399898 A    
C49   H40   1.106278 S    
H1    C10   1.105594 S    
C31   C39   1.406104 A    
C19   C62   1.476297 S    
C17   H23   1.084766 S    
C8    C49   1.516571 S    
Ba1   O20   2.957465 S    
C5    C45   1.527797 S    
C52   O27   1.221832 D    
C61   H59   1.106872 S    
C11   C12   1.566258 S    
O13   Ba2   2.977630 S    
P7    C44   1.906823 S    
O17   Ba2   2.825277 S    
C50   H43   1.102951 S    
C46   H32   1.083661 S    
C9    H13   1.111917 S    
C2    C60   1.523381 S    
P2    C32   1.898050 S    
C1    C10   1.526211 S    
O6    C10   1.402547 S    
P2    O7    1.536587 D    
C53   H47   1.081088 S    
O12   Ba2   2.849593 S    
C47   H34   1.100705 S    
C54   H48   1.085575 S    
C64   H66   1.105713 S    
C47   H33   1.102574 S    
C27   C30   1.423831 A    
P2    O20   1.588883 S    
C67   H75   1.100868 S    
O3    P6    1.763984 S    
C49   H41   1.107985 S    
O2    Ba1   2.976692 S    
C51   H45   1.081517 S    
C41   C66   1.491659 S    
C38   C42   1.448049 A    
C39   C40   1.389082 A    
C7    H10   1.110931 S    
C54   O29   1.219455 D    
C7    H9    1.113387 S    
P7    O21   1.578594 D    
P4    O12   1.569405 D    
P5    O19   1.756607 S    
C6    C7    1.546667 S    
C40   C41   1.374257 A    
C8    C9    1.550228 S    
O14   Ba2   2.916502 S    
C67   H74   1.105331 S    
C4    C5    1.566115 S    
C34   C35   1.388179 A    
P5    O18   1.544542 D    
C48   H37   1.108531 S    
C31   C43   1.401874 A    
C47   H35   1.079395 S    
C5    C46   1.506714 S    
C24   C25   1.361013 D    
Ba2   O20   2.839916 S    
C28   H22   1.081089 S    
C58   H54   1.077421 S    
C38   C39   1.412822 A    
C19   C23   1.513710 S    
P3    O9    1.546170 D    
C59   H55   1.083137 S    
P1    Ba1   3.410921 S    
C55   H49   1.081553 S    
C13   H17   1.105432 S    
C9    H12   1.108877 S    
C49   H39   1.100369 S    
C57   H53   1.085012 S    
C18   C63   1.477205 S    
C14   C56   1.525944 S    
C37   C41   1.413954 A    
C66   H70   1.108762 S    
O16   Ba2   2.956530 S    
C65   H68   1.108539 S    
