data_mof_unit_9328.cif
_audit_creation_date              2013-03-05T16:44:36-0500
_audit_creation_method            fapswitch 2.2
_symmetry_space_group_name_H-M    P1
_symmetry_Int_Tables_number       1
_space_group_crystal_system       triclinic
_cell_length_a                    27.73854
_cell_length_b                    10.666916
_cell_length_c                    9.845177
_cell_angle_alpha                 90.068247
_cell_angle_beta                  90.076946
_cell_angle_gamma                 90.043743
_cell_volume                      2913.03146228

loop_
_atom_site_label
_atom_site_type_symbol
_atom_site_description
_atom_site_fract_x
_atom_site_fract_y
_atom_site_fract_z
_atom_type_partial_charge
O1    O     O_R   0.500010 0.316790 0.614690 -0.588654
O2    O     O_R   0.500000 0.316760 0.385350 -0.625795
C1    C     C_R   0.498552 0.259981 0.500022 0.930789
O3    O     O_R   0.428760 0.500040 0.614660 -0.583187
O4    O     O_R   0.428750 0.500000 0.385310 -0.600896
C2    C     C_R   0.406128 0.500359 0.500149 1.028057
Zn1   Zn    Zn3+2 0.500000 0.500020 0.653130 1.008056
Zn2   Zn    Zn3+2 0.500000 0.499980 0.346870 0.971797
O5    O     O_R   0.500000 0.683240 0.614650 -0.613553
O6    O     O_R   0.499990 0.683210 0.385310 -0.640149
O7    O     O_R   0.571250 0.500000 0.614690 -0.615873
O8    O     O_R   0.571240 0.499960 0.385340 -0.623550
C3    C     C_R   0.498493 0.740054 0.500125 0.886802
C4    C     C_R   0.593995 0.499846 0.500089 0.895950
C5    C     C_R   0.178149 0.400575 0.546544 0.544442
O9    O     O_2   0.203563 0.298490 0.584376 -0.536700
N1    N     N_R   0.201657 0.507460 0.508396 -0.317214
C6    C     C_R   0.177248 0.613283 0.471481 0.599472
C7    C     C_R   0.278740 0.578157 0.602679 0.413504
C8    C     C_R   0.329651 0.580465 0.596634 0.216261
C9    C     C_R   0.327364 0.429362 0.409087 0.366294
C10   C     C_R   0.277076 0.435001 0.410102 -0.305102
C11   C     C_R   0.253098 0.508238 0.506078 0.191674
C12   C     C_R   0.101745 0.504958 0.510036 -0.053485
C13   C     C_R   0.127761 0.396897 0.546822 -0.038124
C14   C     C_R   0.103091 0.288214 0.584091 -0.130303
C15   C     C_R   0.126837 0.614510 0.473083 -0.047722
C16   C     C_R   0.353534 0.503211 0.501781 -0.172033
H1    H     H_    0.256213 0.380072 0.338390 0.177191
H2    H     H_    0.122319 0.204814 0.615766 0.196136
C17   C     C_R   0.646665 0.498988 0.500222 -0.081024
C18   C     C_R   0.975050 0.386561 0.528302 0.003623
C19   C     C_R   0.974079 0.614765 0.488809 0.065469
C20   C     C_R   0.949265 0.499522 0.507928 0.074542
C21   C     C_R   0.949155 0.272801 0.534436 -0.325865
C22   C     C_R   0.898728 0.269543 0.529610 0.513120
C23   C     C_R   0.872895 0.382766 0.517817 -0.084500
C24   C     C_R   0.898217 0.497503 0.506456 -0.126977
C25   C     C_R   0.872413 0.610809 0.493524 0.000875
C26   C     C_R   0.822132 0.608236 0.492621 0.541703
N2    N     N_R   0.798397 0.496809 0.502549 -0.367130
C27   C     C_R   0.822138 0.385470 0.515417 0.581016
C28   C     C_R   0.722074 0.499108 0.623538 -0.119762
C29   C     C_R   0.672040 0.500112 0.623644 -0.177265
C30   C     C_R   0.671995 0.496541 0.376849 -0.231185
C31   C     C_R   0.722121 0.495329 0.376586 0.220283
C32   C     C_R   0.747090 0.496875 0.500519 0.249990
O10   O     O_2   0.796383 0.278532 0.525687 -0.445905
C33   C     C_R   0.025957 0.390272 0.539540 0.072477
C34   C     C_R   0.050718 0.503383 0.509925 0.077811
C35   C     C_R   0.025008 0.614865 0.479988 0.043271
C36   C     C_R   0.053128 0.284742 0.580755 -0.208646
H3    H     H_    0.653318 0.501853 0.720112 0.178924
H4    H     H_    0.741554 0.500217 0.718965 0.164525
H5    H     H_    0.967409 0.183815 0.538448 0.134676
H6    H     H_    0.036811 0.198677 0.614920 0.147936
O11   O     O_2   0.201786 0.716568 0.432784 -0.529699
C37   C     C_R   0.101239 0.722092 0.437191 -0.123893
H7    H     H_    0.119746 0.806848 0.406237 0.192525
C38   C     C_R   0.946999 0.726555 0.480204 -0.213286
C39   C     C_R   0.897117 0.724351 0.482565 -0.111724
O12   O     O_2   0.796936 0.716019 0.481485 -0.519993
C40   C     C_R   0.051261 0.722589 0.440686 -0.209120
H8    H     H_    0.963324 0.818122 0.475124 0.137714
H9    H     H_    0.653016 0.495393 0.280647 0.182893
H10   H     H_    0.877955 0.812595 0.475327 0.200180
H11   H     H_    0.034198 0.808128 0.408025 0.144216
C41   C     C_R   0.494416 0.064074 0.623602 0.050904
C42   C     C_R   0.491234 0.128646 0.501180 -0.095191
C43   C     C_R   0.479088 0.064722 0.381389 -0.191997
H12   H     H_    0.472873 0.113848 0.286706 0.169963
C44   C     C_R   0.479009 0.935025 0.381529 -0.208663
H13   H     H_    0.472835 0.885636 0.286856 0.171618
C45   C     C_R   0.490946 0.871376 0.501542 -0.068776
C46   C     C_R   0.494029 0.936231 0.623979 0.075975
C47   C     C_3   0.530553 0.927182 0.735685 -0.555560
C48   C     C_3   0.531415 0.069790 0.735091 0.285944
H14   H     H_    0.514755 0.887654 0.830107 0.186274
H15   H     H_    0.564759 0.882261 0.702478 0.213105
H16   H     H_    0.517574 0.113024 0.830056 0.134679
C49   C     C_R   0.477212 0.406560 0.071006 0.118629
N3    N     N_R   0.499670 0.499140 0.142800 -0.096624
C50   C     C_R   0.526162 0.585406 0.072264 -0.109642
H17   H     H_    0.546517 0.655808 0.126941 0.148853
C51   C     C_R   0.526151 0.585444 0.928141 -0.111578
H18   H     H_    0.546541 0.655757 0.873805 0.146187
N4    N     N_R   0.499670 0.499180 0.857150 -0.117012
C52   C     C_R   0.477427 0.406240 0.928104 0.126064
C53   C     C_3   0.424911 0.375127 0.922453 0.224957
C54   C     C_3   0.424846 0.375125 0.077087 -0.513350
H19   H     H_    0.402505 0.450438 0.876618 0.188302
H20   H     H_    0.403027 0.452713 0.120563 0.232504
H21   H     H_    0.418435 0.281627 0.123471 0.230783
O13   O     O_3   0.351549 0.350298 0.321410 -0.763235
H22   H     H_    0.327814 0.305182 0.263874 0.348476
O14   O     O_3   0.252957 0.639995 0.702194 -0.732879
H23   H     H_    0.273502 0.648879 0.783960 0.345160
I1    I     I_    0.758693 0.490328 0.187818 -0.290574
O15   O     O_3   0.575965 0.120720 0.693975 -0.718901
H24   H     H_    0.585642 0.080879 0.606899 0.344936
O16   O     O_3   0.415699 0.256670 0.864674 -0.717263
H25   H     H_    0.437704 0.194354 0.906795 0.326097
O17   O     O_3   0.874415 0.156357 0.535707 -0.682705
H26   H     H_    0.897815 0.086572 0.544353 0.322029
O18   O     O_3   0.356836 0.659103 0.678115 -0.759568
H27   H     H_    0.337251 0.733386 0.702340 0.356198

loop_
_geom_bond_atom_site_label_1
_geom_bond_atom_site_label_2
_geom_bond_distance
_ccdc_geom_bond_type
N4    C52   1.361391 A    
O16   H25   0.993460 S    
C10   H1    1.083547 S    
N2    C27   1.364385 A    
C21   C22   1.399923 A    
C12   C15   1.408140 A    
C4    C17   1.461037 S    
C28   C29   1.387938 A    
C49   N3    1.363496 A    
C30   C31   1.390509 A    
C41   C46   1.363731 A    
Zn1   O7    2.012778 S    
N1    C11   1.427143 S    
C22   O17   1.383888 S    
Zn2   N3    2.009123 S    
C22   C23   1.409619 A    
C1    C42   1.415481 S    
C47   H14   1.111631 S    
C24   C25   1.410930 A    
O7    C4    1.293416 A    
C5    C13   1.398208 A    
C9    O13   1.380984 S    
C5    O9    1.350135 S    
C41   C48   1.502839 S    
C26   O12   1.350415 S    
Zn1   O5    1.991213 S    
C23   C27   1.408399 A    
O5    C3    1.281353 A    
C6    O11   1.350101 S    
C29   H3    1.083202 S    
C2    C16   1.459328 S    
C7    C8    1.413727 A    
C41   C42   1.391639 A    
C47   H15   1.112606 S    
C43   H12   1.083578 S    
C53   H19   1.111802 S    
C31   I1    2.119136 S    
O1    Zn1   1.990360 S    
C9    C10   1.396304 A    
C42   C43   1.402145 A    
O3    Zn1   2.011562 S    
C39   H10   1.083723 S    
C19   C20   1.421257 A    
C51   N4    1.367775 A    
C12   C34   1.415475 A    
C25   C39   1.395460 A    
C40   H11   1.077443 S    
C17   C29   1.403459 A    
C21   H5    1.076886 S    
C18   C21   1.411035 A    
C35   C40   1.414544 A    
C12   C13   1.407900 A    
O3    C2    1.289657 A    
C45   C46   1.391609 A    
C25   C26   1.395009 A    
C8    C16   1.410905 A    
C34   C35   1.418154 A    
C13   C14   1.395496 A    
C51   H18   1.081544 S    
O6    C3    1.282835 A    
C38   C39   1.384071 A    
O1    C1    1.281223 A    
C18   C20   1.416041 A    
C7    C11   1.400838 A    
C46   C47   1.497548 S    
C23   C24   1.415286 A    
C14   C36   1.386700 A    
C28   H4    1.083217 S    
C54   H20   1.111340 S    
C50   H17   1.081701 S    
Zn2   O8    2.011562 S    
C33   C36   1.414704 A    
O14   H23   0.990107 S    
N1    C6    1.366092 A    
N2    C32   1.423298 S    
C27   O10   1.349458 S    
C47   C48   1.521377 S    
C49   C54   1.491791 S    
C44   C45   1.402800 A    
C26   N2    1.361976 A    
C50   C51   1.418915 A    
C9    C16   1.405692 A    
O8    C4    1.293355 A    
C14   H2    1.083566 S    
C19   C38   1.412377 A    
C30   H9    1.083042 S    
C54   H21   1.111710 S    
C8    O18   1.382596 S    
C48   H16   1.111041 S    
C37   C40   1.386823 A    
C5    N1    1.366278 A    
C31   C32   1.402271 A    
C53   O16   1.408148 S    
C20   C24   1.416190 A    
O2    Zn2   1.991214 S    
C6    C15   1.398497 A    
C44   H13   1.083459 S    
C15   C37   1.395530 A    
O4    Zn2   2.012781 S    
C19   C35   1.415470 A    
O18   H27   0.990174 S    
O15   H24   0.993736 S    
C38   H8    1.077531 S    
O2    C1    1.282458 A    
C37   H7    1.083565 S    
O4    C2    1.293818 A    
C48   O15   1.409595 S    
O13   H22   0.991850 S    
C18   C33   1.416807 A    
C49   C52   1.406920 A    
Zn1   N4    2.008677 S    
C52   C53   1.494742 S    
Zn2   O6    1.990359 S    
C33   C34   1.418668 A    
C17   C30   1.404250 A    
O17   H26   0.991666 S    
C10   C11   1.395066 A    
C43   C44   1.383474 A    
N3    C50   1.367799 A    
C53   C54   1.522406 S    
C28   C32   1.396843 A    
C7    O14   1.381152 S    
C36   H6    1.077633 S    
C3    C45   1.416570 S    
