data_mof_unit_63477.cif
_audit_creation_date              2013-03-05T15:58:11-0500
_audit_creation_method            fapswitch 2.2
_symmetry_space_group_name_H-M    P1
_symmetry_Int_Tables_number       1
_space_group_crystal_system       triclinic
_cell_length_a                    38.561753
_cell_length_b                    21.667066
_cell_length_c                    21.659506
_cell_angle_alpha                 90.00001
_cell_angle_beta                  124.145201
_cell_angle_gamma                 90.000014
_cell_volume                      14977.3589043

loop_
_atom_site_label
_atom_site_type_symbol
_atom_site_description
_atom_site_fract_x
_atom_site_fract_y
_atom_site_fract_z
_atom_type_partial_charge
O1    O     O_R   0.999990 0.948250 0.091620 -0.598006
O2    O     O_R   0.000010 0.948250 0.908380 -0.598006
O3    O     O_R   0.499990 0.448250 0.091620 -0.597908
O4    O     O_R   0.500010 0.448250 0.908380 -0.597908
O5    O     O_R   0.999990 0.051750 0.091660 -0.586052
O6    O     O_R   0.000010 0.051750 0.908340 -0.586054
O7    O     O_R   0.499990 0.551750 0.091660 -0.586140
O8    O     O_R   0.500010 0.551750 0.908340 -0.586140
C1    C     C_R   0.000553 0.999988 0.120601 0.948994
C2    C     C_R   0.999447 0.999987 0.879399 0.948991
C3    C     C_R   0.500558 0.499987 0.120606 0.948982
C4    C     C_R   0.499442 0.499987 0.879394 0.948983
O9    O     O_R   0.061430 0.948250 0.061430 -0.608423
O10   O     O_R   0.938570 0.948250 0.938570 -0.608438
O11   O     O_R   0.561430 0.448250 0.061430 -0.608178
O12   O     O_R   0.438570 0.448250 0.938570 -0.608176
O13   O     O_R   0.061430 0.051750 0.061470 -0.579284
O14   O     O_R   0.938570 0.051750 0.938530 -0.579248
O15   O     O_R   0.561430 0.551750 0.061470 -0.579791
O16   O     O_R   0.438570 0.551750 0.938530 -0.579795
C5    C     C_R   0.080968 0.000004 0.081137 0.902577
C6    C     C_R   0.919032 0.000004 0.918863 0.902574
C7    C     C_R   0.580968 0.500004 0.081143 0.902642
C8    C     C_R   0.419032 0.500004 0.918857 0.902644
Zn1   Zn    Zn3+2 0.000000 0.930890 0.000000 1.120934
Zn2   Zn    Zn3+2 0.500000 0.430890 0.000000 1.121268
Zn3   Zn    Zn3+2 0.000000 0.069110 0.000000 1.178853
Zn4   Zn    Zn3+2 0.500000 0.569110 0.000000 1.177901
C9    C     C_3   0.226223 0.938795 0.244479 -0.069201
C10   C     C_3   0.773776 0.938748 0.755682 -0.069188
C11   C     C_3   0.726211 0.439565 0.246979 -0.069412
C12   C     C_3   0.273789 0.439572 0.753000 -0.069413
C13   C     C_3   0.225213 0.053549 0.268412 -0.088395
C14   C     C_3   0.774787 0.053437 0.731452 -0.088417
C15   C     C_3   0.725210 0.555229 0.266286 -0.088050
C16   C     C_3   0.274790 0.555243 0.733732 -0.088047
C17   C     C_3   0.274527 0.050176 0.325129 0.339619
C18   C     C_3   0.725473 0.050047 0.674747 0.339639
C19   C     C_3   0.774521 0.552141 0.323166 0.339310
C20   C     C_3   0.225479 0.552157 0.676850 0.339311
H1    H     H_    0.288426 0.922636 0.343449 0.210610
H2    H     H_    0.711573 0.922496 0.656756 0.210612
H3    H     H_    0.788403 0.424878 0.346594 0.210587
H4    H     H_    0.211597 0.424897 0.653381 0.210585
H5    H     H_    0.218741 0.932418 0.286661 0.215324
H6    H     H_    0.781258 0.932243 0.713516 0.215321
H7    H     H_    0.718717 0.435193 0.289362 0.215391
H8    H     H_    0.281283 0.435216 0.710616 0.215391
H9    H     H_    0.217242 0.098001 0.238048 0.230936
H10   H     H_    0.782759 0.097947 0.761702 0.230932
H11   H     H_    0.717253 0.598743 0.234153 0.231011
H12   H     H_    0.282747 0.598749 0.765879 0.231012
C21   C     C_1   0.374706 0.001669 0.374455 0.054858
C22   C     C_1   0.625294 0.001672 0.625544 0.054857
C23   C     C_1   0.874707 0.501630 0.374457 0.054829
C24   C     C_1   0.125293 0.501629 0.625542 0.054829
C25   C     C_3   0.208495 0.002784 0.206664 -0.145139
C26   C     C_3   0.791505 0.002789 0.793331 -0.145137
C27   C     C_3   0.708496 0.502702 0.206610 -0.145223
C28   C     C_3   0.291504 0.502701 0.793390 -0.145223
C29   C     C_3   0.275000 0.938463 0.285532 -0.065680
C30   C     C_3   0.724999 0.938438 0.714632 -0.065719
C31   C     C_3   0.774991 0.438909 0.288081 -0.065098
C32   C     C_3   0.225009 0.438913 0.711897 -0.065092
C33   C     C_3   0.291470 0.005772 0.288113 -0.268930
C34   C     C_3   0.708530 0.005782 0.711878 -0.268919
C35   C     C_3   0.791472 0.505602 0.287992 -0.269152
C36   C     C_3   0.208528 0.505600 0.712009 -0.269154
C37   C     C_3   0.274199 0.027781 0.204684 0.327205
C38   C     C_3   0.725802 0.027962 0.795250 0.327190
C39   C     C_3   0.774223 0.524949 0.203745 0.327502
C40   C     C_3   0.225777 0.524926 0.796261 0.327504
C41   C     C_3   0.224822 0.016040 0.155768 -0.023983
C42   C     C_3   0.775179 0.016219 0.844194 -0.023958
C43   C     C_3   0.724843 0.513249 0.155267 -0.024303
C44   C     C_3   0.275157 0.513226 0.844736 -0.024309
C45   C     C_1   0.337279 0.003615 0.335767 0.191751
C46   C     C_1   0.662721 0.003621 0.664230 0.191758
C47   C     C_1   0.837280 0.503514 0.335733 0.191720
C48   C     C_1   0.162720 0.503513 0.664267 0.191719
C49   C     C_1   0.162706 0.000994 0.162069 0.141578
C50   C     C_1   0.837294 0.000995 0.837929 0.141589
C51   C     C_1   0.662706 0.500970 0.162053 0.141423
C52   C     C_1   0.337294 0.500970 0.837947 0.141422
C53   C     C_1   0.125269 0.000161 0.125166 -0.036833
C54   C     C_1   0.874731 0.000161 0.874834 -0.036821
C55   C     C_1   0.625269 0.500159 0.125166 -0.037104
C56   C     C_1   0.374731 0.500159 0.874834 -0.037105
H13   H     H_    0.218322 0.972134 0.124600 0.195778
H14   H     H_    0.781679 0.972376 0.875476 0.195784
H15   H     H_    0.718341 0.468388 0.125882 0.195682
H16   H     H_    0.281659 0.468357 0.874106 0.195684
C57   C     C_R   0.971507 0.037642 0.188741 0.249879
C58   C     C_R   0.028494 0.037642 0.811259 0.249872
C59   C     C_R   0.471521 0.537657 0.188758 0.249830
C60   C     C_R   0.528478 0.537657 0.811242 0.249834
C61   C     C_R   0.971923 0.039456 0.253235 0.077869
C62   C     C_R   0.028077 0.039455 0.746765 0.077883
C63   C     C_R   0.471936 0.539470 0.253250 0.078126
C64   C     C_R   0.528064 0.539470 0.746750 0.078125
C65   C     C_R   0.000193 0.001196 0.313536 -0.273713
C66   C     C_R   0.999807 0.001196 0.686464 -0.273717
C67   C     C_R   0.500190 0.501186 0.313535 -0.273765
C68   C     C_R   0.499810 0.501186 0.686465 -0.273763
C69   C     C_R   0.029539 0.964068 0.311427 0.269691
C70   C     C_R   0.970461 0.964069 0.688573 0.269688
C71   C     C_R   0.529516 0.464024 0.311410 0.269633
C72   C     C_R   0.470484 0.464023 0.688590 0.269635
C73   C     C_R   0.030336 0.964582 0.248167 0.066991
C74   C     C_R   0.969664 0.964582 0.751833 0.066997
C75   C     C_R   0.530323 0.464548 0.248160 0.066990
C76   C     C_R   0.469677 0.464548 0.751840 0.066988
C77   C     C_R   0.000580 0.000153 0.186638 -0.278890
C78   C     C_R   0.999420 0.000153 0.813362 -0.278894
C79   C     C_R   0.500584 0.500150 0.186645 -0.278979
C80   C     C_R   0.499416 0.500150 0.813354 -0.278980
C81   C     C_R   0.500000 0.186121 0.499999 -0.335396
C82   C     C_R   0.000000 0.686131 0.500000 -0.335653
O17   O     O_R   0.500000 0.908530 0.551740 -0.583535
O18   O     O_R   0.500000 0.908530 0.448260 -0.583516
O19   O     O_R   0.000000 0.408530 0.551740 -0.583410
O20   O     O_R   0.000000 0.408530 0.448260 -0.583410
C83   C     C_R   0.500000 0.879891 0.500000 0.952329
C84   C     C_R   0.000000 0.379891 0.500000 0.952774
O21   O     O_R   0.438570 0.000200 0.490320 -0.588127
O22   O     O_R   0.561430 0.000200 0.509680 -0.588073
O23   O     O_R   0.938570 0.500200 0.490320 -0.589006
O24   O     O_R   0.061430 0.500200 0.509680 -0.589012
O25   O     O_R   0.438570 0.000170 0.386880 -0.581342
O26   O     O_R   0.561430 0.000170 0.613120 -0.581384
O27   O     O_R   0.938570 0.500170 0.386880 -0.580603
O28   O     O_R   0.061430 0.500170 0.613120 -0.580600
C85   C     C_R   0.419010 0.000068 0.419036 0.910741
C86   C     C_R   0.580990 0.000068 0.580964 0.910733
C87   C     C_R   0.919010 0.500074 0.419038 0.910803
C88   C     C_R   0.080990 0.500074 0.580962 0.910807
Zn5   Zn    Zn3+2 0.499990 0.000210 0.569090 1.200262
Zn6   Zn    Zn3+2 0.500010 0.000210 0.430910 1.200334
Zn7   Zn    Zn3+2 0.999990 0.500210 0.569090 1.200336
Zn8   Zn    Zn3+2 0.000010 0.500210 0.430910 1.200327
O29   O     O_R   0.500000 0.091870 0.551750 -0.589389
O30   O     O_R   0.500000 0.091870 0.448250 -0.589382
O31   O     O_R   0.000000 0.591870 0.551750 -0.589377
O32   O     O_R   0.000000 0.591870 0.448250 -0.589377
C89   C     C_R   0.500000 0.120190 0.499999 0.992591
C90   C     C_R   0.000000 0.620193 0.500000 0.992178
O33   O     O_R   0.965340 0.908230 0.465340 -0.575032
O34   O     O_R   0.034660 0.908230 0.534660 -0.575033
O35   O     O_R   0.465340 0.408230 0.465340 -0.574975
O36   O     O_R   0.534660 0.408230 0.534660 -0.574973
C91   C     C_R   0.000000 0.879513 0.500000 1.036872
C92   C     C_R   0.500000 0.379509 0.500000 1.036717
O37   O     O_R   0.965330 0.999890 0.373740 -0.589439
O38   O     O_R   0.034670 0.999890 0.626260 -0.589436
O39   O     O_R   0.465330 0.499890 0.373740 -0.589377
O40   O     O_R   0.534670 0.499890 0.626260 -0.589377
O41   O     O_R   0.034690 0.999930 0.443090 -0.589428
O42   O     O_R   0.965310 0.999930 0.556910 -0.589427
O43   O     O_R   0.534690 0.499930 0.443090 -0.589441
O44   O     O_R   0.465310 0.499930 0.556910 -0.589441
C93   C     C_R   0.000019 0.000920 0.379632 0.964461
C94   C     C_R   0.999981 0.000920 0.620368 0.964456
C95   C     C_R   0.500018 0.500917 0.379632 0.964358
C96   C     C_R   0.499982 0.500917 0.620368 0.964359
Zn9   Zn    Zn3+2 0.953690 0.999890 0.453720 1.180416
Zn10  Zn    Zn3+2 0.046310 0.999890 0.546280 1.180421
Zn11  Zn    Zn3+2 0.453690 0.499890 0.453720 1.180503
Zn12  Zn    Zn3+2 0.546310 0.499890 0.546280 1.180501
O45   O     O_R   0.965300 0.091560 0.465360 -0.610158
O46   O     O_R   0.034700 0.091560 0.534640 -0.610159
O47   O     O_R   0.465300 0.591560 0.465360 -0.610185
O48   O     O_R   0.534700 0.591560 0.534640 -0.610190
C97   C     C_R   0.000000 0.120185 0.500000 0.914121
C98   C     C_R   0.500000 0.620185 0.500000 0.914125
C99   C     C_R   0.523524 0.781571 0.478625 0.249317
C100  C     C_R   0.476475 0.781571 0.521375 0.249338
C101  C     C_R   0.023537 0.281573 0.478652 0.249634
C102  C     C_R   0.976463 0.281573 0.521348 0.249629
C103  C     C_R   0.022712 0.217501 0.476890 0.075565
C104  C     C_R   0.977288 0.217501 0.523110 0.075563
C105  C     C_R   0.522701 0.717499 0.476867 0.075439
C106  C     C_R   0.477299 0.717499 0.523133 0.075442
C107  C     C_R   0.000000 0.186057 0.500000 -0.229309
C108  C     C_R   0.500000 0.686055 0.500000 -0.229255
C109  C     C_R   0.500000 0.813391 0.500000 -0.322189
C110  C     C_R   0.000000 0.313393 0.500000 -0.322041
C111  C     C_R   0.470543 0.217535 0.433975 0.198715
C112  C     C_R   0.529457 0.217535 0.566023 0.198719
C113  C     C_R   0.970643 0.717552 0.433897 0.198778
C114  C     C_R   0.029357 0.717552 0.566103 0.198777
C115  C     C_R   0.970962 0.781674 0.433574 0.215330
C116  C     C_R   0.029038 0.781675 0.566427 0.215326
C117  C     C_R   0.470878 0.281658 0.433630 0.215356
C118  C     C_R   0.529122 0.281657 0.566369 0.215354
C119  C     C_R   1.000000 0.813333 0.500000 -0.325134
C120  C     C_R   0.500000 0.313322 0.500000 -0.325036
I1    I     I_    0.193031 0.860533 0.170987 -0.109535
I2    I     I_    0.806968 0.860591 0.829377 -0.109494
I3    I     I_    0.693018 0.359749 0.176666 -0.110116
I4    I     I_    0.306982 0.359743 0.823287 -0.110122
I5    I     I_    0.301876 0.866156 0.254661 -0.038164
I6    I     I_    0.698124 0.866281 0.745691 -0.038235
I7    I     I_    0.801871 0.364337 0.260174 -0.036903
I8    I     I_    0.198129 0.364324 0.739780 -0.036897
N1    N     N_R   0.285275 0.093581 0.205344 0.242073
O49   O     O_R   0.259140 0.138506 0.189548 -0.267462
O50   O     O_R   0.323251 0.108093 0.226807 -0.200380
N2    N     N_R   0.714728 0.093788 0.794423 0.242075
O51   O     O_R   0.740862 0.138686 0.810095 -0.267487
O52   O     O_R   0.676755 0.108344 0.772936 -0.200278
N3    N     N_R   0.785324 0.590275 0.201821 0.242018
O53   O     O_R   0.759178 0.635584 0.184102 -0.267282
O54   O     O_R   0.823337 0.604109 0.222927 -0.202126
N4    N     N_R   0.214676 0.590248 0.798207 0.242017
O55   O     O_R   0.240822 0.635559 0.815942 -0.267271
O56   O     O_R   0.176663 0.604077 0.777102 -0.202135
N5    N     N_R   0.940940 0.072755 0.124612 0.242994
O57   O     O_R   0.912543 0.044621 0.063600 -0.336904
O58   O     O_R   0.943918 0.132574 0.124842 -0.277330
N6    N     N_R   0.059061 0.072753 0.875389 0.242998
O59   O     O_R   0.087458 0.044617 0.936401 -0.336803
O60   O     O_R   0.056084 0.132571 0.875161 -0.277344
N7    N     N_R   0.440958 0.572774 0.124632 0.243079
O61   O     O_R   0.412565 0.544641 0.063616 -0.335173
O62   O     O_R   0.443938 0.632592 0.124867 -0.277838
N8    N     N_R   0.559041 0.572775 0.875367 0.243078
O63   O     O_R   0.587435 0.544642 0.936383 -0.335186
O64   O     O_R   0.556061 0.632593 0.875133 -0.277848
I9    I     I_    0.930396 0.102442 0.257736 -0.033425
I10   I     I_    0.069605 0.102441 0.742266 -0.033380
I11   I     I_    0.430423 0.602475 0.257765 -0.033419
I12   I     I_    0.569577 0.602475 0.742235 -0.033464
N9    N     N_R   0.058114 0.925076 0.373064 0.241523
O65   O     O_R   0.044085 0.878647 0.391018 -0.320468
O66   O     O_R   0.097802 0.938653 0.414615 -0.287415
N10   N     N_R   0.941885 0.925077 0.626935 0.241523
O67   O     O_R   0.955914 0.878648 0.608980 -0.320466
O68   O     O_R   0.902197 0.938654 0.585385 -0.287396
N11   N     N_R   0.558051 0.424972 0.373013 0.241529
O69   O     O_R   0.543971 0.378590 0.390936 -0.320676
O70   O     O_R   0.597751 0.438468 0.414587 -0.287562
N12   N     N_R   0.441949 0.424971 0.626987 0.241528
O71   O     O_R   0.456029 0.378590 0.609064 -0.320685
O72   O     O_R   0.402249 0.438466 0.585414 -0.287569
I13   I     I_    0.077782 0.912589 0.248424 -0.085755
I14   I     I_    0.922218 0.912589 0.751575 -0.085719
I15   I     I_    0.577755 0.412521 0.248406 -0.086027
I16   I     I_    0.422246 0.412520 0.751594 -0.086044
N13   N     N_R   0.549412 0.814215 0.461297 0.243769
O73   O     O_R   0.539415 0.815631 0.393094 -0.284740
O74   O     O_R   0.581177 0.846402 0.512573 -0.362760
N14   N     N_R   0.450587 0.814215 0.538702 0.243762
O75   O     O_R   0.460584 0.815631 0.606904 -0.284779
O76   O     O_R   0.418822 0.846401 0.487425 -0.362767
N15   N     N_R   0.049439 0.314218 0.461356 0.243646
O77   O     O_R   0.039458 0.315639 0.393164 -0.284931
O78   O     O_R   0.081198 0.346402 0.512650 -0.362934
N16   N     N_R   0.950561 0.314218 0.538644 0.243646
O79   O     O_R   0.960542 0.315639 0.606836 -0.284926
O80   O     O_R   0.918802 0.346402 0.487350 -0.362931
I17   I     I_    0.055752 0.169589 0.438155 -0.089544
I18   I     I_    0.944248 0.169589 0.561845 -0.089538
I19   I     I_    0.555728 0.669585 0.438107 -0.089818
I20   I     I_    0.444272 0.669585 0.561893 -0.089828
N17   N     N_R   0.440248 0.184399 0.367429 0.258684
O81   O     O_R   0.436902 0.194796 0.305124 -0.241827
O82   O     O_R   0.414952 0.145318 0.368415 -0.311269
N18   N     N_R   0.559755 0.184398 0.632565 0.258682
O83   O     O_R   0.563106 0.194792 0.694874 -0.241832
O84   O     O_R   0.585051 0.145320 0.631573 -0.311288
N19   N     N_R   0.940473 0.684429 0.367235 0.258785
O85   O     O_R   0.937311 0.694889 0.305103 -0.242106
O86   O     O_R   0.915103 0.645304 0.367926 -0.310687
N20   N     N_R   0.059526 0.684430 0.632765 0.258786
O87   O     O_R   0.062689 0.694890 0.694897 -0.242101
O88   O     O_R   0.084896 0.645304 0.632075 -0.310686
N21   N     N_R   0.941718 0.814398 0.365910 0.254911
O89   O     O_R   0.901671 0.804588 0.331445 -0.232511
O90   O     O_R   0.955134 0.852062 0.336919 -0.323131
N22   N     N_R   0.058282 0.814399 0.634090 0.254912
O91   O     O_R   0.098329 0.804589 0.668556 -0.232502
O92   O     O_R   0.044865 0.852062 0.663081 -0.323124
N23   N     N_R   0.441570 0.314375 0.366004 0.254968
O93   O     O_R   0.401529 0.304633 0.331751 -0.232268
O94   O     O_R   0.454920 0.351965 0.336836 -0.322768
N24   N     N_R   0.558430 0.314374 0.633995 0.254968
O95   O     O_R   0.598471 0.304634 0.668246 -0.232267
O96   O     O_R   0.545081 0.351963 0.663165 -0.322769
I21   I     I_    0.189644 0.065377 0.318032 -0.033723
I22   I     I_    0.810354 0.065044 0.681800 -0.033727
I23   I     I_    0.689616 0.570498 0.315305 -0.033360
I24   I     I_    0.310385 0.570540 0.684719 -0.033375
N25   N     N_R   0.287390 0.025511 0.399119 0.226253
O97   O     O_R   0.323479 0.041301 0.458360 -0.269277
O98   O     O_R   0.265779 0.983715 0.406626 -0.353336
N26   N     N_R   0.712609 0.025224 0.600820 0.226261
O99   O     O_R   0.676520 0.040954 0.541540 -0.269233
O100  O     O_R   0.734218 0.983352 0.593419 -0.353308
N27   N     N_R   0.787362 0.529939 0.398083 0.226161
O101  O     O_R   0.823458 0.546595 0.456688 -0.269957
O102  O     O_R   0.765724 0.489372 0.407211 -0.353691
N28   N     N_R   0.212639 0.529974 0.601927 0.226160
O103  O     O_R   0.176541 0.546636 0.543326 -0.269968
O104  O     O_R   0.234277 0.489418 0.592785 -0.353698
N29   N     N_R   0.291456 0.113931 0.338016 0.246579
O105  O     O_R   0.330873 0.123475 0.365316 -0.263260
O106  O     O_R   0.270960 0.158894 0.343645 -0.258956
N30   N     N_R   0.708545 0.113812 0.661697 0.246577
O107  O     O_R   0.669129 0.123389 0.634384 -0.263373
O108  O     O_R   0.729038 0.158704 0.655940 -0.258975
N31   N     N_R   0.791465 0.615676 0.333523 0.246625
O109  O     O_R   0.830908 0.624702 0.360644 -0.261721
O110  O     O_R   0.770929 0.661682 0.337157 -0.258551
N32   N     N_R   0.208535 0.615690 0.666513 0.246625
O111  O     O_R   0.169092 0.624711 0.639393 -0.261707
O112  O     O_R   0.229072 0.661703 0.662897 -0.258557
N33   N     N_R   0.201096 0.063080 0.097275 0.269835
O113  O     O_R   0.205477 0.066256 0.042019 -0.212771
O114  O     O_R   0.175822 0.101781 0.099014 -0.285551
N34   N     N_R   0.798906 0.063348 0.902566 0.269853
O115  O     O_R   0.794524 0.066680 0.957812 -0.212721
O116  O     O_R   0.824181 0.101978 0.900726 -0.285644
N35   N     N_R   0.701131 0.558857 0.094910 0.269491
O117  O     O_R   0.705513 0.559614 0.039575 -0.213731
O118  O     O_R   0.675874 0.598643 0.095077 -0.284277
N36   N     N_R   0.298869 0.558822 0.905109 0.269488
O119  O     O_R   0.294486 0.559559 0.960444 -0.213730
O120  O     O_R   0.324126 0.598616 0.904955 -0.284260
N37   N     N_R   0.293325 0.992007 0.172286 0.235144
O121  O     O_R   0.333869 0.989588 0.206533 -0.292708
O122  O     O_R   0.270849 0.974052 0.102951 -0.270973
N38   N     N_R   0.706676 0.992321 0.827741 0.235147
O123  O     O_R   0.666133 0.989918 0.793500 -0.292653
O124  O     O_R   0.729152 0.974490 0.897123 -0.270983
N39   N     N_R   0.793358 0.487137 0.172838 0.235086
O125  O     O_R   0.833901 0.484490 0.207181 -0.293528
O126  O     O_R   0.770884 0.467263 0.104283 -0.270821
N40   N     N_R   0.206642 0.487098 0.827156 0.235086
O127  O     O_R   0.166098 0.484451 0.792813 -0.293533
O128  O     O_R   0.229116 0.467204 0.895702 -0.270824

loop_
_geom_bond_atom_site_label_1
_geom_bond_atom_site_label_2
_geom_bond_distance
_ccdc_geom_bond_type
C76   I16   2.145975 S    
C63   C67   1.408207 A    
N15   O78   1.301171 A    
C118  C120  1.409287 A    
N7    O61   1.300988 A    
O34   C91   1.269139 A    
H1    C29   1.109149 S    
H3    C31   1.109171 S    
H4    C32   1.109172 S    
C100  C106  1.388642 A    
C112  N18   1.437866 S    
C26   C50   1.462060 S    
C59   C63   1.388501 A    
C111  N17   1.437868 S    
N19   O85   1.301171 A    
C22   C86   1.414372 S    
C64   C68   1.408207 A    
N20   O87   1.301171 A    
C11   C27   1.559496 S    
O27   Zn8   1.996576 S    
C102  N16   1.434691 S    
O39   Zn11  2.018742 S    
C38   C42   1.596275 S    
N12   O72   1.300968 A    
N36   O119  1.301021 A    
O4    C4    1.278995 A    
C3    C79   1.429812 S    
O29   C89   1.277845 A    
C32   I8    2.180321 S    
C111  C117  1.389461 A    
O26   C86   1.282088 A    
N28   O104  1.301198 A    
Zn9   O45   2.020487 S    
C101  N15   1.434691 S    
C41   N33   1.476399 S    
C33   C45   1.463294 S    
N35   O117  1.301021 A    
C116  C119  1.409208 A    
C21   C85   1.414367 S    
C98   C108  1.427225 S    
N39   O126  1.302582 A    
C92   C120  1.434089 S    
Zn11  O47   2.020487 S    
O16   Zn4   1.996259 S    
N32   O111  1.301432 A    
C62   C66   1.408230 A    
C28   C44   1.572628 S    
O13   C5    1.282920 A    
C101  C110  1.408561 A    
O37   C93   1.270631 A    
C60   N8    1.435093 S    
C83   C109  1.440847 S    
O15   C7    1.282913 A    
C68   C96   1.435363 S    
O36   C92   1.269182 A    
O4    Zn2   2.019990 S    
C82   C90   1.428670 S    
C36   C40   1.607880 S    
O36   Zn12  2.020504 S    
O9    C5    1.283061 A    
N38   O123  1.302072 A    
O25   C85   1.282095 A    
N26   O99   1.302143 A    
N18   O84   1.300926 A    
N13   O74   1.301170 A    
C39   N3    1.486090 S    
C15   H11   1.108027 S    
O8    Zn4   2.020841 S    
O18   Zn6   2.021710 S    
C16   C20   1.583741 S    
C17   N25   1.485796 S    
C113  N19   1.437905 S    
O3    Zn2   2.019992 S    
C19   N31   1.485865 S    
C52   C56   1.194972 T    
O23   C87   1.282726 A    
C100  N14   1.434691 S    
C63   I11   2.147451 S    
O17   C83   1.280990 A    
C42   H14   1.110694 S    
C84   C110  1.440830 S    
C103  I17   2.145875 S    
C34   C38   1.607884 S    
O3    C3    1.278996 A    
N39   O125  1.302073 A    
C102  C110  1.408561 A    
C29   C33   1.579087 S    
C9    I1    2.181821 S    
O22   C86   1.282763 A    
C14   C26   1.564052 S    
C60   C80   1.405733 A    
C67   C71   1.409889 A    
C13   H9    1.108032 S    
O42   Zn9   2.017906 S    
N14   O75   1.300961 A    
N24   O96   1.301014 A    
C17   N29   1.485850 S    
C44   N36   1.476400 S    
O28   Zn7   1.996580 S    
N13   O73   1.300960 A    
C70   N10   1.434883 S    
C32   C36   1.579063 S    
C15   C27   1.564037 S    
C38   N38   1.489375 S    
C82   C113  1.405510 A    
N4    O56   1.302026 A    
C102  C104  1.388646 A    
O40   Zn12  2.018742 S    
N10   O67   1.300774 A    
C57   N5    1.435117 S    
C25   C41   1.572650 S    
C113  C115  1.389460 A    
O33   Zn9   2.020505 S    
O5    Zn3   2.020841 S    
Zn7   O31   2.021243 S    
C15   I23   2.180962 S    
N29   O106  1.302628 A    
C17   C33   1.607284 S    
N9    O65   1.300770 A    
H2    C30   1.109145 S    
C16   H12   1.108027 S    
O8    C4    1.279072 A    
C99   C105  1.388642 A    
C73   I13   2.145963 S    
C117  N23   1.437676 S    
N21   O89   1.301192 A    
C18   N26   1.485796 S    
N37   O122  1.302565 A    
C42   N34   1.476395 S    
N6    O59   1.300996 A    
C24   C88   1.414333 S    
N30   O108  1.302618 A    
N1    O50   1.302001 A    
C9    C29   1.565580 S    
C30   C34   1.579084 S    
O13   Zn3   1.996256 S    
C11   C31   1.565597 S    
N22   O91   1.301195 A    
C12   C32   1.565596 S    
O39   C95   1.270601 A    
N5    O57   1.300997 A    
C59   N7    1.435092 S    
N35   O118  1.302181 A    
N34   O116  1.302179 A    
O33   C91   1.269140 A    
O5    C1    1.279050 A    
N25   O97   1.302142 A    
N27   O102  1.301200 A    
O28   C88   1.282101 A    
C117  C120  1.409286 A    
N11   O70   1.300969 A    
O15   Zn4   1.996256 S    
N17   O82   1.300922 A    
C10   I2    2.181815 S    
C44   H16   1.110684 S    
Zn10  O46   2.020487 S    
N40   O128  1.302584 A    
N31   O110  1.302650 A    
C18   N30   1.485846 S    
O20   C84   1.280989 A    
C57   C61   1.388515 A    
C76   C80   1.403609 A    
C26   C42   1.572651 S    
C69   C73   1.387700 A    
O37   Zn9   2.018742 S    
O14   C6    1.282921 A    
C71   C75   1.387721 A    
O38   C94   1.270631 A    
C81   C112  1.405374 A    
C51   C55   1.194972 T    
N7    O62   1.300926 A    
C37   N1    1.486058 S    
C24   C48   1.195492 T    
C1    C77   1.429771 S    
O10   C6    1.283064 A    
N19   O86   1.300916 A    
N16   O79   1.300958 A    
O24   Zn8   1.996051 S    
O20   Zn8   2.021710 S    
C60   C64   1.388499 A    
O48   C98   1.269278 A    
N20   O88   1.300915 A    
C25   C49   1.462069 S    
C115  C119  1.409206 A    
C75   I15   2.145978 S    
N8    O63   1.300988 A    
C114  N20   1.437907 S    
N23   O93   1.301191 A    
O45   C97   1.269284 A    
N36   O120  1.302182 A    
C9    H5    1.110412 S    
C4    C80   1.429812 S    
O31   C90   1.277881 A    
C40   N4    1.486088 S    
O34   Zn10  2.020504 S    
N11   O69   1.300778 A    
O35   Zn11  2.020505 S    
C11   I3    2.181807 S    
C100  C109  1.408570 A    
O44   C96   1.270535 A    
C27   C51   1.462082 S    
O24   C88   1.282728 A    
C99   N13   1.434694 S    
C58   C62   1.388513 A    
N32   O112  1.302651 A    
C81   C89   1.428544 S    
C91   C119  1.433935 S    
N33   O114  1.302181 A    
C30   I6    2.180274 S    
N2    O51   1.301221 A    
C37   C41   1.596277 S    
C2    C78   1.429771 S    
O18   C83   1.280994 A    
N26   O100  1.301188 A    
C11   H7    1.110411 S    
C12   H8    1.110414 S    
O30   C89   1.277840 A    
C19   C35   1.607353 S    
C10   H6    1.110414 S    
O12   Zn2   1.996259 S    
C34   C46   1.463293 S    
O47   C98   1.269280 A    
C5    C53   1.413847 S    
O1    C1    1.278995 A    
O32   C90   1.277883 A    
Zn6   O30   2.021242 S    
O21   Zn5   1.996054 S    
C50   C54   1.194969 T    
C71   N11   1.434887 S    
C40   N40   1.489396 S    
C72   C76   1.387721 A    
C15   C19   1.583740 S    
N27   O101  1.302138 A    
C99   C109  1.408573 A    
C23   C47   1.195492 T    
N3    O53   1.301220 A    
C66   C94   1.435394 S    
C58   N6    1.435114 S    
N12   O71   1.300780 A    
C35   C47   1.463263 S    
C57   C77   1.405728 A    
C20   N28   1.485808 S    
C8    C56   1.413847 S    
C31   I7    2.180321 S    
C9    C25   1.559450 S    
C10   C30   1.565577 S    
C12   C28   1.559495 S    
O41   C93   1.270523 A    
C68   C72   1.409889 A    
N14   O76   1.301172 A    
C105  C108  1.404955 A    
Zn5   O29   2.021243 S    
C114  C116  1.389460 A    
Zn8   O32   2.021242 S    
N38   O124  1.302560 A    
O6    C2    1.279052 A    
C13   I21   2.181010 S    
C41   H13   1.110694 S    
C12   I4    2.181807 S    
C82   C114  1.405509 A    
O19   Zn7   2.021711 S    
C33   C37   1.607891 S    
N10   O68   1.300968 A    
O2    Zn1   2.019990 S    
C35   C39   1.607880 S    
C6    C54   1.413847 S    
O10   Zn1   1.996259 S    
C13   C17   1.583716 S    
C20   N32   1.485864 S    
O7    Zn4   2.020841 S    
Zn12  O48   2.020487 S    
N18   O83   1.301168 A    
C97   C107  1.427242 S    
N29   O105  1.301466 A    
C20   C36   1.607352 S    
C72   N12   1.434885 S    
O38   Zn10  2.018742 S    
O26   Zn5   1.996580 S    
C22   C46   1.195518 T    
O46   C97   1.269282 A    
C36   C48   1.463263 S    
N31   O109  1.301434 A    
N23   O94   1.301016 A    
N37   O121  1.302073 A    
C21   C45   1.195513 T    
C40   C44   1.596311 S    
N6    O60   1.300929 A    
C58   C78   1.405728 A    
N1    O49   1.301223 A    
O7    C3    1.279070 A    
N22   O92   1.301008 A    
O27   C87   1.282106 A    
N24   O95   1.301191 A    
C38   N2    1.486053 S    
C118  N24   1.437679 S    
O43   Zn12  2.017906 S    
O44   Zn11  2.017906 S    
C115  N21   1.437704 S    
O19   C84   1.280985 A    
C29   I5    2.180281 S    
C61   I9    2.147452 S    
O25   Zn6   1.996576 S    
C18   C34   1.607279 S    
C59   C79   1.405732 A    
N17   O81   1.301172 A    
C104  C107  1.404968 A    
C73   C77   1.403587 A    
C74   I14   2.145961 S    
O11   C7    1.283065 A    
C112  C118  1.389459 A    
O12   C8    1.283065 A    
C7    C55   1.413847 S    
O1    Zn1   2.019992 S    
O9    Zn1   1.996259 S    
O23   Zn7   1.996054 S    
C103  C107  1.404965 A    
C65   C69   1.409911 A    
C31   C35   1.579065 S    
C14   H10   1.108032 S    
O17   Zn5   2.021711 S    
O16   C8    1.282915 A    
C64   I12   2.147452 S    
C81   C111  1.405379 A    
O35   C92   1.269182 A    
N4    O55   1.301221 A    
O11   Zn2   1.996258 S    
C101  C103  1.388646 A    
C43   N35   1.476400 S    
N16   O80   1.301172 A    
C104  I18   2.145875 S    
O6    Zn3   2.020841 S    
C105  I19   2.145874 S    
C106  I20   2.145873 S    
C39   N39   1.489398 S    
N9    O66   1.300969 A    
C116  N22   1.437703 S    
N3    O54   1.302024 A    
N8    O64   1.300925 A    
N21   O90   1.301007 A    
O43   C95   1.270532 A    
N15   O77   1.300958 A    
O2    C2    1.278994 A    
C27   C43   1.572629 S    
N30   O107  1.301473 A    
C70   C74   1.387700 A    
O21   C85   1.282760 A    
C16   I24   2.180964 S    
C74   C78   1.403586 A    
N28   O103  1.302138 A    
O22   Zn6   1.996051 S    
C13   C25   1.564054 S    
C106  C108  1.404957 A    
C14   C18   1.583713 S    
C69   N9    1.434884 S    
O14   Zn3   1.996259 S    
C16   C28   1.564035 S    
O41   Zn10  2.017906 S    
C19   N27   1.485806 S    
C37   N37   1.489377 S    
C43   H15   1.110683 S    
N5    O58   1.300926 A    
C67   C95   1.435360 S    
C62   I10   2.147454 S    
N34   O115  1.301011 A    
C65   C93   1.435396 S    
N25   O98   1.301194 A    
C39   C43   1.596307 S    
C28   C52   1.462082 S    
C23   C87   1.414334 S    
C10   C26   1.559444 S    
C66   C70   1.409917 A    
N33   O113  1.301013 A    
C49   C53   1.194969 T    
O42   C94   1.270526 A    
O40   C96   1.270601 A    
N2    O52   1.302000 A    
N40   O127  1.302073 A    
C75   C79   1.403610 A    
C61   C65   1.408231 A    
C14   I22   2.181009 S    
