data_mof_unit_8168.cif
_audit_creation_date              2012-12-11T14:58:03-0500
_audit_creation_method            fapswitch 2.2
_symmetry_space_group_name_H-M    P1
_symmetry_Int_Tables_number       1
_space_group_crystal_system       triclinic
_cell_length_a                    6.970888
_cell_length_b                    16.605534
_cell_length_c                    17.17093
_cell_angle_alpha                 100.306509
_cell_angle_beta                  90.736949
_cell_angle_gamma                 90.477211
_cell_volume                      1955.27963706

loop_
_atom_site_label
_atom_site_type_symbol
_atom_type_description
_atom_site_fract_x
_atom_site_fract_y
_atom_site_fract_z
_atom_type_partial_charge
O1    O     O_R   0.506180 0.438940 0.579430 -0.492571
O2    O     O_R   0.170520 0.406230 0.413590 -0.544678
O3    O     O_R   0.005180 0.561060 0.420570 -0.539047
C1    C     C_R   0.338517 0.382071 0.386578 0.659711
O4    O     O_R   0.176140 0.429310 0.578370 -0.556063
O5    O     O_R   0.010830 0.584300 0.586530 -0.540578
C2    C     C_R   0.345716 0.413143 0.604217 0.785678
O6    O     O_R   0.500520 0.415700 0.413470 -0.541274
O7    O     O_3   0.340830 0.550820 0.502480 -0.365004
V1    V     V_3+5 0.064040 0.490570 0.499540 1.480755
O8    O     O_R   0.681400 0.593770 0.586410 -0.510361
C3    C     C_R   0.851256 0.614636 0.616450 0.751214
O9    O     O_R   0.675790 0.570690 0.421630 -0.540508
C4    C     C_R   0.844256 0.586897 0.395685 0.681871
V2    V     V_3+5 0.564650 0.509430 0.500460 1.547225
O10   O     O_3   0.837730 0.449180 0.497520 -0.369012
C5    C     C_R   0.911338 0.865954 0.170356 -0.092550
C6    C     C_R   0.854464 0.636600 0.332275 -0.039872
C7    C     C_R   0.879786 0.643275 0.191635 0.063335
C8    C     C_R   0.869932 0.597859 0.253302 -0.177245
C9    C     C_R   0.853198 0.722313 0.350190 -0.193001
C10   C     C_R   0.870095 0.769391 0.289856 0.140454
C11   C     C_R   0.885541 0.730454 0.209756 0.142986
C12   C     C_R   0.910076 0.779865 0.151123 -0.215184
C13   C     C_R   0.891279 0.904109 0.250778 0.022998
C14   C     C_R   0.872514 0.855140 0.309188 -0.161131
H1    H     H_    0.929263 0.752399 0.089858 0.145165
H2    H     H_    0.859438 0.884280 0.370670 0.098072
H3    H     H_    0.868412 0.531489 0.239502 0.100648
H4    H     H_    0.842169 0.752364 0.411352 0.097770
H5    H     H_    0.090702 0.637689 0.976477 0.130396
C15   C     C_R   0.840960 0.910597 0.725770 -0.143984
C16   C     C_R   0.805500 0.926400 0.649441 0.039669
C17   C     C_R   0.780309 0.860901 0.586880 -0.210056
C18   C     C_R   0.796341 0.780657 0.599471 -0.129750
C19   C     C_R   0.838068 0.763029 0.675647 0.065472
C20   C     C_R   0.857861 0.829463 0.740054 0.032286
C21   C     C_R   0.864314 0.680991 0.687369 -0.157873
C22   C     C_R   0.913062 0.664960 0.765134 0.038408
C23   C     C_R   0.937218 0.733527 0.828402 0.059224
C24   C     C_R   0.902208 0.814516 0.816636 -0.155302
C25   C     C_R   0.941514 0.584007 0.783551 -0.021054
C26   C     C_R   0.002577 0.574558 0.860920 -0.059511
C27   C     C_R   0.037570 0.643500 0.918194 -0.144386
C28   C     C_R   0.999945 0.720679 0.903482 -0.113998
H6    H     H_    0.859606 0.962388 0.773501 0.141349
H7    H     H_    0.751440 0.871841 0.527508 0.113126
H8    H     H_    0.778528 0.732828 0.548162 0.093110
H9    H     H_    0.023494 0.770509 0.952579 0.100230
C29   C     C_R   0.282062 0.215170 0.405222 -0.133021
C30   C     C_R   0.268758 0.136736 0.420921 -0.213903
C31   C     C_R   0.306081 0.069369 0.362781 -0.009715
C32   C     C_R   0.351062 0.081006 0.284850 -0.012015
C33   C     C_R   0.367763 0.162629 0.266837 0.037186
C34   C     C_R   0.333306 0.230217 0.330042 0.069048
C35   C     C_R   0.420230 0.180207 0.190209 -0.156547
C36   C     C_R   0.447170 0.263316 0.181495 0.058660
C37   C     C_R   0.400117 0.328523 0.243632 0.039456
C38   C     C_R   0.349317 0.312362 0.318375 -0.157331
C39   C     C_R   0.520039 0.283645 0.111060 -0.137413
C40   C     C_R   0.526482 0.364524 0.099418 -0.175225
C41   C     C_R   0.459635 0.427651 0.156701 0.011780
C42   C     C_R   0.402214 0.409920 0.229391 -0.130622
C43   C     C_R   0.406986 0.138722 0.833591 -0.122578
C44   C     C_R   0.358145 0.367376 0.670743 -0.063750
C45   C     C_R   0.415586 0.359929 0.810377 -0.013223
C46   C     C_R   0.389883 0.407957 0.750231 -0.057773
C47   C     C_R   0.359808 0.281498 0.653040 -0.241984
C48   C     C_R   0.377798 0.234551 0.713134 0.123316
C49   C     C_R   0.386749 0.273501 0.793268 0.150649
C50   C     C_R   0.373255 0.224005 0.853452 -0.049166
C51   C     C_R   0.414932 0.102204 0.753596 -0.087805
C52   C     C_R   0.391176 0.148973 0.694044 -0.085253
H10   H     H_    0.389561 0.118323 0.632757 0.102012
O11   O     O_R   0.265840 0.084300 0.086750 -0.540815
O12   O     O_R   0.589750 0.070740 0.921690 -0.536462
O13   O     O_R   0.755020 0.915730 0.913400 -0.541679
C53   C     C_R   0.420026 0.085855 0.894870 0.657322
O14   O     O_R   0.595830 0.093740 0.086480 -0.512541
O15   O     O_R   0.761150 0.938890 0.079360 -0.489863
C54   C     C_R   0.428479 0.114929 0.117064 0.736798
O16   O     O_R   0.259710 0.061140 0.920790 -0.540747
O17   O     O_3   0.425260 0.949200 0.997610 -0.367091
V3    V     V_3+5 0.702060 0.009430 0.000450 1.554538
O18   O     O_R   0.090530 0.929220 0.078150 -0.558781
C55   C     C_R   0.922215 0.914005 0.105103 0.783820
O19   O     O_R   0.084440 0.906220 0.913360 -0.546065
C56   C     C_R   0.914671 0.884035 0.884742 0.664835
V4    V     V_3+5 0.201450 0.990520 0.999290 1.481386
O20   O     O_3   0.928380 0.050800 0.002390 -0.365793
C57   C     C_2   0.914888 0.508179 0.724817 0.448209
H11   H     H_    0.031602 0.466078 0.711890 0.088226
O21   O     O_2   0.758516 0.488486 0.695379 -0.520433
C58   C     C_2   0.030054 0.494304 0.887127 0.386725
H12   H     H_    0.091375 0.493111 0.945356 0.070866
O22   O     O_2   0.983368 0.429187 0.846106 -0.491280
C59   C     C_2   0.448213 0.511504 0.139248 0.336908
H13   H     H_    0.483774 0.522663 0.080751 0.091724
O23   O     O_2   0.397128 0.568801 0.189308 -0.526846
H14   H     H_    0.252136 0.264377 0.453748 0.096634
H15   H     H_    0.231664 0.128748 0.480218 0.111310
C60   C     C_2   0.297994 0.987936 0.388036 0.279696
H16   H     H_    0.226529 0.982089 0.442618 0.052634
O24   O     O_2   0.375057 0.927563 0.350821 -0.526870
C61   C     C_2   0.372773 0.006214 0.225133 0.461814
H17   H     H_    0.255481 0.962859 0.212618 0.069296
O25   O     O_2   0.527055 0.988283 0.195423 -0.514422
C62   C     C_2   0.889965 0.994468 0.277796 0.389151
H18   H     H_    0.868064 0.019347 0.339906 0.044237
O26   O     O_2   0.913115 0.042283 0.232288 -0.534409
H19   H     H_    0.572924 0.237550 0.063981 0.114184
H20   H     H_    0.581330 0.377920 0.044930 0.172545
H21   H     H_    0.355016 0.460049 0.274064 0.140532
C63   C     C_2   0.293021 0.256633 0.932742 0.411074
H22   H     H_    0.305705 0.222222 0.980332 0.019098
O27   O     O_2   0.198014 0.318923 0.944212 -0.516338
H23   H     H_    0.432306 0.036604 0.737167 0.110113
C64   C     C_2   0.511177 0.397120 0.885916 0.443210
H24   H     H_    0.457089 0.452286 0.922026 0.000349
O28   O     O_2   0.655251 0.365725 0.907650 -0.502109
C65   C     C_2   0.402898 0.499724 0.771505 0.380501
H25   H     H_    0.441438 0.529741 0.830883 0.040287
O29   O     O_2   0.369864 0.543999 0.723436 -0.531729
H26   H     H_    0.349019 0.251071 0.591795 0.099090
C66   C     C_2   0.876298 0.596134 0.109880 0.298250
H27   H     H_    0.946965 0.537323 0.097069 0.067004
O30   O     O_2   0.782746 0.619139 0.057594 -0.545010
C67   C     C_2   0.798656 0.011059 0.633682 0.325033
H28   H     H_    0.760290 0.021894 0.574973 0.042553
O31   O     O_2   0.838003 0.069587 0.685512 -0.522610

loop_
_geom_bond_atom_site_label_1
_geom_bond_atom_site_label_2
_ccdc_geom_bond_type
O19   C56   A    
C34   C38   A    
C6    C9    A    
C52   H10   S    
C4    C6    S    
O2    C1    A    
C7    C8    A    
C12   H1    S    
O15   V3    S    
C67   H28   S    
O12   V3    S    
C63   H22   S    
C35   C54   S    
C45   C49   A    
C32   C33   A    
C62   H18   S    
C61   O25   D    
C31   C60   S    
O16   V4    S    
C19   C20   A    
O12   C53   A    
C25   C57   S    
C48   C49   A    
O5    C3    A    
C21   C22   A    
C2    C44   S    
V2    O10   S    
C26   C58   S    
C35   C36   A    
C17   C18   A    
C43   C50   A    
C64   H24   S    
O15   C55   A    
O8    V2    S    
C18   C19   A    
O13   C56   A    
C62   O26   D    
C47   C48   A    
C44   C46   A    
C51   H23   S    
C11   C12   A    
C48   C52   A    
C49   C50   A    
O1    V2    S    
O7    V1    S    
C1    O6    A    
C58   O22   D    
C15   H6    S    
C45   C46   A    
O9    C4    A    
C3    C21   S    
C47   H26   S    
C40   C41   A    
V3    O20   S    
C18   H8    S    
C46   C65   S    
C59   O23   D    
C59   H13   S    
C22   C25   A    
C8    H3    S    
C23   C28   A    
O17   V4    S    
C33   C35   A    
C5    C12   A    
H5    C27   S    
C30   C31   A    
C57   H11   S    
O4    C2    A    
O18   V4    S    
O11   C54   A    
C36   C39   A    
O13   V3    S    
C13   C14   A    
O18   C55   A    
C7    C66   S    
C16   C67   S    
C5    C55   S    
C50   C63   S    
C39   C40   A    
C7    C11   A    
C26   C27   A    
C41   C42   A    
C66   O30   D    
C57   O21   D    
C41   C59   S    
C53   O16   A    
O17   V3    S    
C28   H9    S    
C44   C47   A    
C29   C30   A    
C58   H12   S    
C15   C20   A    
C60   O24   D    
C65   H25   S    
O3    C4    A    
C23   C24   A    
O6    V2    S    
O19   V4    S    
C10   C14   A    
C66   H27   S    
C25   C26   A    
O2    V1    S    
C22   C23   A    
C31   C32   A    
O14   C54   A    
C61   H17   S    
C37   C42   A    
C24   C56   S    
C33   C34   A    
O1    C2    A    
C43   C53   S    
C27   C28   A    
C51   C52   A    
C67   O31   D    
O5    V1    S    
C63   O27   D    
O8    C3    A    
C30   H15   S    
C9    H4    S    
C14   H2    S    
C29   C34   A    
C5    C13   A    
C15   C16   A    
O9    V2    S    
C37   C38   A    
O4    V1    S    
C39   H19   S    
V1    O10   S    
C36   C37   A    
O14   V3    S    
C1    C38   S    
C19   C21   A    
C16   C17   A    
C6    C8    A    
C43   C51   A    
C20   C24   A    
C60   H16   S    
C64   O28   D    
C29   H14   S    
C65   O29   D    
O11   V4    S    
C42   H21   S    
C32   C61   S    
C13   C62   S    
C45   C64   S    
O3    V1    S    
C10   C11   A    
C17   H7    S    
V4    O20   S    
C9    C10   A    
C40   H20   S    
O7    V2    S    
