data_mof_unit_22016.cif
_audit_creation_date              2012-12-11T14:00:03-0500
_audit_creation_method            fapswitch 2.2
_symmetry_space_group_name_H-M    P1
_symmetry_Int_Tables_number       1
_space_group_crystal_system       triclinic
_cell_length_a                    11.267502
_cell_length_b                    11.183407
_cell_length_c                    18.780101
_cell_angle_alpha                 89.794729
_cell_angle_beta                  89.799331
_cell_angle_gamma                 120.282886
_cell_volume                      2043.49832861

loop_
_atom_site_label
_atom_site_type_symbol
_atom_type_description
_atom_site_fract_x
_atom_site_fract_y
_atom_site_fract_z
_atom_type_partial_charge
C1    C     C_R   0.541628 0.477656 0.853500 0.572790
C2    C     C_R   0.481755 0.540838 0.349326 0.554435
C3    C     C_R   0.137928 0.551806 0.358564 0.568188
C4    C     C_R   0.458317 0.940019 0.350452 0.570901
C5    C     C_2   0.015240 0.509274 0.581880 -0.153016
C6    C     C_2   0.557377 0.452168 0.566415 -0.148588
C7    C     C_2   0.507494 0.013157 0.576315 -0.106220
C8    C     C_2   0.500096 0.000996 0.420404 -0.101085
C9    C     C_2   0.513908 0.495858 0.414153 -0.091705
C10   C     C_2   0.135643 0.558487 0.436916 -0.148454
C11   C     C_2   0.123502 0.459013 0.483192 -0.015647
C12   C     C_R   0.522376 0.064588 0.853418 0.556809
C13   C     C_2   0.562392 0.585245 0.468397 0.041051
C14   C     C_2   0.414363 0.023014 0.461259 -0.017619
C15   C     C_2   0.395707 0.980544 0.537072 -0.055398
C16   C     C_2   0.635221 0.561129 0.524601 -0.015549
C17   C     C_2   0.108009 0.474662 0.560539 -0.045463
C18   C     C_2   0.002874 0.508354 0.921822 -0.146152
C19   C     C_2   0.493452 0.493377 0.923600 -0.153368
C20   C     C_2   0.505396 0.997630 0.922478 -0.149412
C21   C     C_2   0.508852 0.003768 0.077895 -0.138796
C22   C     C_2   0.499176 0.490304 0.079208 -0.097309
C23   C     C_R   0.935555 0.458224 0.853267 0.555417
C24   C     C_2   0.998737 0.505787 0.077710 -0.163345
C25   C     C_2   0.020122 0.616609 0.037529 -0.021369
C26   C     C_2   0.391724 0.391607 0.041355 -0.027112
C27   C     C_2   0.597925 0.983071 0.037990 -0.025137
C28   C     C_2   0.615488 0.018462 0.961905 -0.011121
C29   C     C_2   0.402078 0.381546 0.963078 -0.069532
C30   C     C_2   0.983480 0.598516 0.961741 -0.012253
C31   C     C_2   0.104318 0.322488 0.461905 0.319533
C32   C     C_2   0.532135 0.699811 0.477439 0.316928
C33   C     C_2   0.338348 0.090238 0.433045 0.306014
C34   C     C_R   0.478689 0.540864 0.147320 0.573312
C35   C     C_2   0.254952 0.902434 0.568907 0.238040
C36   C     C_2   0.781871 0.665930 0.537701 0.312260
C37   C     C_2   0.181170 0.435541 0.613356 0.268816
C38   C     C_2   0.077787 0.759795 0.065969 0.340203
C39   C     C_2   0.258507 0.288415 0.075161 0.342645
C40   C     C_2   0.683885 0.927348 0.066991 0.329583
C41   C     C_2   0.757288 0.074049 0.932419 0.337455
C42   C     C_2   0.305323 0.245376 0.929910 0.280200
C43   C     C_2   0.928114 0.685279 0.932979 0.337029
C44   C     C_R   0.064811 0.522554 0.146588 0.542030
C45   C     C_R   0.458209 0.935809 0.146722 0.562741
C46   C     C_R   0.584244 0.448527 0.641103 0.560207
C47   C     C_R   0.519699 0.062002 0.648694 0.525745
C48   C     C_R   0.940229 0.459478 0.649142 0.508672
Cr1   Cr    Cr6+3 0.464030 0.233680 0.750360 1.054215
Cr2   Cr    Cr6+3 0.766320 0.230350 0.750360 1.036376
Cr3   Cr    Cr6+3 0.769650 0.535970 0.750360 1.029593
Cr4   Cr    Cr6+3 0.233680 0.464030 0.249640 1.131825
Cr5   Cr    Cr6+3 0.230350 0.766320 0.249640 1.088851
Cr6   Cr    Cr6+3 0.535970 0.769650 0.249640 1.043763
H1    H     H_    0.147427 0.653912 0.458433 0.140103
H2    H     H_    0.403164 0.947739 0.945984 0.161125
H3    H     H_    0.551215 0.594966 0.947533 0.161012
H4    H     H_    0.052362 0.455298 0.944666 0.119414
H5    H     H_    0.028135 0.229881 0.489701 0.134468
H6    H     H_    0.463743 0.711317 0.441228 0.085272
H7    H     H_    0.263647 0.097958 0.466302 0.180729
H8    H     H_    0.240642 0.868236 0.624028 0.134676
H9    H     H_    0.839164 0.651708 0.579545 0.137484
H10   H     H_    0.173996 0.450994 0.669877 0.125263
H11   H     H_    0.043907 0.777472 0.116955 0.150784
H12   H     H_    0.524186 0.404436 0.413125 0.124391
H13   H     H_    0.162330 0.263966 0.049967 0.124503
H14   H     H_    0.735540 0.962609 0.117718 0.141546
H15   H     H_    0.773583 0.038750 0.881548 0.138728
H16   H     H_    0.253853 0.241309 0.880466 0.122499
H17   H     H_    0.961913 0.736541 0.881637 0.133898
H18   H     H_    0.573281 0.977723 0.444616 0.116037
H19   H     H_    0.606795 0.050868 0.550891 0.129456
H20   H     H_    0.456162 0.373473 0.548088 0.161372
H21   H     H_    0.970981 0.548297 0.543526 0.110546
H22   H     H_    0.948342 0.402626 0.054986 0.141202
H23   H     H_    0.599588 0.551897 0.054571 0.160215
H24   H     H_    0.456710 0.053969 0.054833 0.172233
O1    O     O_R   0.434100 0.092480 0.829780 -0.478742
O2    O     O_R   0.362730 0.477510 0.175360 -0.466832
O3    O     O_R   0.114780 0.637270 0.175360 -0.520202
O4    O     O_R   0.522490 0.885220 0.175360 -0.528262
O5    O     O_R   0.432250 0.092620 0.670380 -0.534025
O6    O     O_R   0.907380 0.339630 0.670380 -0.510050
O7    O     O_R   0.660370 0.567750 0.670380 -0.499694
O8    O     O_R   0.092620 0.432250 0.329620 -0.456051
O9    O     O_R   0.339630 0.907380 0.329620 -0.456264
O10   O     O_R   0.567750 0.660370 0.329620 -0.518561
O11   O     O_R   0.475790 0.362860 0.676880 -0.455300
O12   O     O_R   0.907520 0.341620 0.829780 -0.492675
O13   O     O_R   0.637140 0.112930 0.676880 -0.487809
O14   O     O_R   0.887070 0.524210 0.676880 -0.533916
O15   O     O_R   0.362860 0.475790 0.323120 -0.444052
O16   O     O_R   0.112930 0.637140 0.323120 -0.489236
O17   O     O_R   0.524210 0.887070 0.323120 -0.520665
O18   O     O_3   0.666667 0.333333 0.749450 -0.281511
O19   O     O_3   0.333333 0.666667 0.250550 -0.314233
O20   O     O_2   0.178718 0.312304 0.418184 -0.457651
O21   O     O_2   0.580139 0.779851 0.527269 -0.492837
O22   O     O_2   0.363449 0.144365 0.374109 -0.471763
O23   O     O_R   0.658380 0.565900 0.829780 -0.484454
O24   O     O_2   0.152970 0.869839 0.533127 -0.508664
O25   O     O_2   0.841586 0.768890 0.499922 -0.425485
O26   O     O_2   0.252621 0.388274 0.594228 -0.510061
O27   O     O_2   0.160750 0.859688 0.031009 -0.468903
O28   O     O_2   0.256021 0.223808 0.128287 -0.440115
O29   O     O_2   0.700955 0.844503 0.032814 -0.480883
O30   O     O_2   0.857436 0.156594 0.966408 -0.532596
O31   O     O_2   0.282159 0.136997 0.957982 -0.450094
O32   O     O_2   0.847168 0.703514 0.968003 -0.475022
O33   O     O_R   0.092480 0.434100 0.170220 -0.498308
O34   O     O_R   0.341620 0.907520 0.170220 -0.463460
O35   O     O_R   0.565900 0.658380 0.170220 -0.499216
O36   O     O_R   0.477510 0.362730 0.824640 -0.507080
O37   O     O_R   0.637270 0.114780 0.824640 -0.520735
O38   O     O_R   0.885220 0.522490 0.824640 -0.523524

loop_
_geom_bond_atom_site_label_1
_geom_bond_atom_site_label_2
_ccdc_geom_bond_type
C39   O28   D    
Cr6   O35   S    
C41   O30   D    
C29   C42   S    
C28   C41   S    
C13   C32   S    
C45   O4    A    
C4    C8    S    
C35   O24   D    
Cr2   O18   S    
Cr3   O7    S    
C14   C33   S    
C45   O34   A    
Cr2   O6    S    
C7    H19   S    
C46   O11   A    
C19   H3    S    
C34   O35   A    
C36   O25   D    
C42   O31   D    
C25   C38   S    
C26   C39   S    
C5    C17   D    
C12   O1    A    
Cr4   O19   S    
C42   H16   S    
Cr5   O3    S    
Cr2   O37   S    
C31   O20   D    
C31   H5    S    
C9    C13   D    
C9    H12   S    
C34   O2    A    
C23   O38   A    
C18   H4    S    
C21   H24   S    
C8    C14   D    
Cr6   O19   S    
C2    O10   A    
C18   C30   D    
C43   O32   D    
C47   O5    A    
C35   H8    S    
C36   H9    S    
C20   H2    S    
Cr3   O18   S    
C12   O37   A    
C7    C15   D    
Cr1   O36   S    
C21   C27   D    
C11   C31   S    
C3    O8    A    
C47   O13   A    
C15   C35   S    
Cr2   O12   S    
C6    H20   S    
C21   C45   S    
C22   C34   S    
C5    C48   S    
C1    C19   S    
C8    H18   S    
C40   H14   S    
C18   C23   S    
C24   C25   D    
C44   O3    A    
C4    O9    A    
C24   H22   S    
C20   C28   D    
Cr4   O33   S    
Cr5   O19   S    
Cr1   O1    S    
C7    C47   S    
C5    H21   S    
Cr3   O14   S    
C4    O17   A    
C38   H11   S    
C27   C40   S    
C12   C20   S    
C23   O12   A    
Cr4   O15   S    
Cr5   O9    S    
C17   C37   S    
C10   H1    S    
Cr6   O17   S    
C40   O29   D    
Cr5   O34   S    
C22   C26   D    
C24   C44   S    
C30   C43   S    
C1    O36   A    
C32   H6    S    
C19   C29   D    
C1    O23   A    
Cr6   O4    S    
C37   H10   S    
C41   H15   S    
C25   C30   S    
C11   C17   S    
C43   H17   S    
C6    C46   S    
Cr5   O16   S    
C39   H13   S    
C2    O15   A    
C22   H23   S    
Cr1   O11   S    
C37   O26   D    
Cr3   O23   S    
Cr3   O38   S    
C32   O21   D    
C33   O22   D    
C46   O7    A    
C38   O27   D    
Cr4   O8    S    
C3    C10   S    
C16   C36   S    
Cr6   O10   S    
Cr1   O5    S    
C3    O16   A    
Cr1   O18   S    
C10   C11   D    
C6    C16   D    
C44   O33   A    
C48   O6    A    
Cr2   O13   S    
C26   C29   S    
C33   H7    S    
C48   O14   A    
C13   C16   S    
C27   C28   S    
C14   C15   S    
Cr4   O2    S    
C2    C9    S    
