data_mof_unit_32934.cif
_audit_creation_date              2012-12-11T14:34:06-0500
_audit_creation_method            fapswitch 2.2
_symmetry_space_group_name_H-M    P1
_symmetry_Int_Tables_number       1
_space_group_crystal_system       triclinic
_cell_length_a                    13.930947
_cell_length_b                    13.953181
_cell_length_c                    27.341744
_cell_angle_alpha                 90.103286
_cell_angle_beta                  90.083711
_cell_angle_gamma                 119.652474
_cell_volume                      4618.68819977

loop_
_atom_site_label
_atom_site_type_symbol
_atom_type_description
_atom_site_fract_x
_atom_site_fract_y
_atom_site_fract_z
_atom_type_partial_charge
C1    C     C_R   0.234483 0.787286 0.568939 0.539247
C2    C     C_1   0.711594 0.863641 0.859474 -0.028476
C3    C     C_3   0.857975 0.393983 0.173956 -0.357430
C4    C     C_3   0.466057 0.421516 0.190316 -0.021118
C5    C     C_3   0.562811 0.434924 0.159607 -0.376437
C6    C     C_1   0.136591 0.848132 0.859467 -0.028309
C7    C     C_1   0.151225 0.287969 0.859494 -0.028729
C8    C     C_1   0.631246 0.816393 0.658484 -0.072156
C9    C     C_1   0.183987 0.814876 0.658512 -0.072061
C10   C     C_1   0.186220 0.369539 0.658566 -0.072062
C11   C     C_1   0.602464 0.797533 0.616370 -0.011416
C12   C     C_1   0.202755 0.804907 0.616399 -0.011117
C13   C     C_1   0.196109 0.398191 0.616460 -0.011564
C14   C     C_R   0.066051 0.151920 0.095993 0.568643
C15   C     C_R   0.213000 0.447153 0.568991 0.541088
C16   C     C_R   0.777710 0.884060 0.088340 0.542942
C17   C     C_R   0.115399 0.894562 0.089069 0.541281
C18   C     C_R   0.106863 0.220046 0.950692 0.573819
C19   C     C_R   0.779937 0.887097 0.950676 0.560061
C20   C     C_R   0.113002 0.893172 0.950636 0.560185
C21   C     C_R   0.615388 0.893924 0.360942 -0.132432
C22   C     C_R   0.098481 0.724844 0.363109 -0.131544
C23   C     C_R   0.272555 0.374890 0.361201 -0.134996
C24   C     C_R   0.640459 0.908711 0.311235 -0.033995
C25   C     C_R   0.079339 0.737415 0.314049 -0.031211
C26   C     C_R   0.553049 0.765647 0.568934 0.540566
C27   C     C_R   0.252529 0.329100 0.314308 -0.034625
C28   C     C_R   0.678184 0.927736 0.209817 0.014963
C29   C     C_R   0.060089 0.757058 0.212570 0.031163
C30   C     C_R   0.214059 0.253070 0.216987 0.017598
C31   C     C_R   0.232084 0.788092 0.432103 0.546078
C32   C     C_R   0.212131 0.444949 0.431534 0.546910
C33   C     C_R   0.555080 0.767006 0.431769 0.546641
C34   C     C_R   0.649790 0.999528 0.234012 0.235981
C35   C     C_R   0.988415 0.656775 0.236140 0.258543
C36   C     C_R   0.321629 0.301788 0.236893 0.245378
C37   C     C_3   0.707549 0.756976 0.785670 -0.006805
C38   C     C_R   0.632008 0.990076 0.284630 -0.120694
C39   C     C_R   0.997638 0.648711 0.287195 -0.128463
C40   C     C_R   0.339474 0.336811 0.285774 -0.119576
C41   C     C_R   0.703801 0.939121 0.159763 -0.149308
C42   C     C_R   0.054049 0.769678 0.161821 -0.119410
C43   C     C_R   0.193415 0.218322 0.168093 -0.123860
C44   C     C_R   0.729174 0.864677 0.136937 -0.017970
C45   C     C_R   0.129741 0.868742 0.139274 -0.019843
C46   C     C_R   0.087700 0.179293 0.147873 -0.018046
C47   C     C_R   0.654960 0.742628 0.363376 -0.129822
C48   C     C_3   0.241615 0.950552 0.785718 -0.007068
C49   C     C_R   0.247542 0.915027 0.366527 -0.129903
C50   C     C_R   0.078841 0.322026 0.369310 -0.131266
C51   C     C_R   0.678318 0.754990 0.313820 0.020854
C52   C     C_R   0.230613 0.928404 0.317664 0.022172
C53   C     C_R   0.057559 0.275987 0.322662 0.020611
C54   C     C_R   0.668543 0.836653 0.287294 0.050598
C55   C     C_R   0.148887 0.838047 0.290739 0.049682
C56   C     C_R   0.145068 0.281324 0.294571 0.049607
C57   C     C_R   0.704584 0.682322 0.289921 -0.132471
C58   C     C_R   0.300457 0.028100 0.294467 -0.132391
C59   C     C_3   0.049497 0.292814 0.785350 -0.007008
C60   C     C_R   0.951554 0.231145 0.302552 -0.137394
C61   C     C_R   0.718498 0.688558 0.239629 -0.137476
C62   C     C_R   0.293528 0.036557 0.244294 -0.143396
C63   C     C_R   0.932951 0.194793 0.254314 -0.138852
C64   C     C_R   0.708093 0.768695 0.213085 0.005580
C65   C     C_R   0.215664 0.946378 0.217115 0.002619
C66   C     C_R   0.019020 0.200644 0.225902 0.012787
C67   C     C_3   0.548815 0.811502 0.739075 -0.217707
C68   C     C_3   0.191547 0.739153 0.739200 -0.217829
C69   C     C_3   0.261985 0.451201 0.739655 -0.217658
C70   C     C_3   0.685669 0.744708 0.729689 -0.189061
C71   C     C_R   0.684695 0.844403 0.236706 0.024033
C72   C     C_R   0.140611 0.847250 0.240193 0.019725
C73   C     C_R   0.125823 0.243401 0.246027 0.023561
C74   C     C_R   0.724902 0.776406 0.163326 -0.126477
C75   C     C_R   0.211800 0.954895 0.167070 -0.135548
C76   C     C_R   0.000751 0.168632 0.177062 -0.134546
C77   C     C_R   0.616161 0.806559 0.386198 0.001349
C78   C     C_R   0.187877 0.811247 0.388112 0.000193
C79   C     C_R   0.186837 0.375747 0.387850 0.000616
C80   C     C_3   0.749453 0.947412 0.723769 -0.226040
C81   C     C_3   0.253991 0.940893 0.729762 -0.189074
C82   C     C_3   0.051920 0.800516 0.723637 -0.225907
C83   C     C_3   0.199230 0.250897 0.723688 -0.225892
C84   C     C_3   0.770472 0.959487 0.779831 -0.241502
C85   C     C_3   0.039795 0.809474 0.779677 -0.241297
C86   C     C_3   0.189693 0.229504 0.779686 -0.241455
C87   C     C_1   0.737131 0.873800 0.902035 0.016007
C88   C     C_1   0.126359 0.863551 0.902015 0.016105
C89   C     C_1   0.135889 0.262489 0.902033 0.014331
C90   C     C_3   0.654031 0.830386 0.711317 0.047440
C91   C     C_3   0.169990 0.823713 0.711338 0.047529
C92   C     C_3   0.059707 0.315120 0.729437 -0.189028
C93   C     C_3   0.176974 0.346490 0.711392 0.047075
C94   C     C_3   0.570149 0.825305 0.794989 -0.206211
C95   C     C_3   0.177771 0.746760 0.795094 -0.206315
C96   C     C_3   0.253848 0.429495 0.795511 -0.205541
C97   C     C_3   0.689425 0.850896 0.806554 0.067941
C98   C     C_3   0.149408 0.838680 0.806555 0.068223
C99   C     C_3   0.161076 0.310432 0.806582 0.067776
C100  C     C_3   0.544218 0.052936 0.191563 -0.020575
C101  C     C_3   0.545720 0.149576 0.165228 -0.372971
C102  C     C_3   0.911027 0.471517 0.217165 -0.018975
Cr1   Cr    Cr6+3 0.164410 0.584450 0.499910 1.019804
Cr2   Cr    Cr6+3 0.415550 0.579960 0.499910 1.021192
Cr3   Cr    Cr6+3 0.420040 0.835590 0.499910 1.019727
Cr4   Cr    Cr6+3 0.155170 0.075460 0.019960 1.036582
Cr5   Cr    Cr6+3 0.924540 0.079710 0.019960 1.035907
Cr6   Cr    Cr6+3 0.920290 0.844830 0.019960 1.035930
H1    H     H_    0.557824 0.893660 0.808567 0.154764
H2    H     H_    0.794913 0.778757 0.792281 0.123984
H3    H     H_    0.217807 0.014809 0.792222 0.123422
H4    H     H_    0.984608 0.205593 0.791551 0.123826
H5    H     H_    0.707243 0.006709 0.138908 0.147897
H6    H     H_    0.990283 0.704217 0.139959 0.161100
H7    H     H_    0.260097 0.225352 0.145268 0.161253
H8    H     H_    0.586706 0.944590 0.378762 0.129393
H9    H     H_    0.050364 0.644899 0.380223 0.129788
H10   H     H_    0.356235 0.416403 0.375444 0.128753
H11   H     H_    0.611688 0.046604 0.303022 0.117908
H12   H     H_    0.110667 0.666176 0.808647 0.154501
H13   H     H_    0.942494 0.572742 0.305884 0.097773
H14   H     H_    0.422324 0.373580 0.300765 0.115590
H15   H     H_    0.743941 0.717925 0.145884 0.137202
H16   H     H_    0.269271 0.032540 0.150118 0.132315
H17   H     H_    0.919249 0.137839 0.161240 0.124818
H18   H     H_    0.738092 0.631234 0.221526 0.148487
H19   H     H_    0.351015 0.112645 0.226517 0.164660
H20   H     H_    0.852293 0.165692 0.238640 0.162909
H21   H     H_    0.711951 0.619267 0.309938 0.110826
H22   H     H_    0.363376 0.097838 0.314740 0.113724
H23   H     H_    0.334237 0.441494 0.809328 0.155200
H24   H     H_    0.883970 0.227685 0.323542 0.109232
H25   H     H_    0.523161 0.871166 0.726212 0.132061
H26   H     H_    0.133109 0.653975 0.726321 0.131644
H27   H     H_    0.347246 0.476644 0.727076 0.132755
H28   H     H_    0.657628 0.676571 0.383084 0.127149
H29   H     H_    0.314396 0.982685 0.386277 0.127347
H30   H     H_    0.012256 0.321493 0.390036 0.126378
H31   H     H_    0.826157 0.962841 0.704545 0.110534
H32   H     H_    0.034557 0.860510 0.704351 0.110533
H33   H     H_    0.138906 0.174518 0.704116 0.110677
H34   H     H_    0.479178 0.727188 0.731246 0.116636
H35   H     H_    0.728495 0.010526 0.710965 0.134774
H36   H     H_    0.989981 0.716518 0.710790 0.134975
H37   H     H_    0.283285 0.271649 0.711153 0.135140
H38   H     H_    0.760302 0.028927 0.793793 0.147611
H39   H     H_    0.971521 0.729927 0.793585 0.148189
H40   H     H_    0.269004 0.239280 0.793871 0.148485
H41   H     H_    0.857384 0.980771 0.787380 0.099524
H42   H     H_    0.016546 0.873820 0.787146 0.099264
H43   H     H_    0.124706 0.142763 0.786839 0.099200
H44   H     H_    0.618255 0.660180 0.720609 0.153753
H45   H     H_    0.276620 0.754957 0.731478 0.116422
H46   H     H_    0.339231 0.959101 0.720822 0.153775
H47   H     H_    0.042146 0.382680 0.720511 0.153643
H48   H     H_    0.761098 0.756466 0.710429 0.103693
H49   H     H_    0.240336 0.003314 0.710421 0.103428
H50   H     H_    0.996940 0.240064 0.709815 0.103839
H51   H     H_    0.483528 0.026933 0.221999 0.144148
H52   H     H_    0.517640 0.983588 0.165045 0.136338
H53   H     H_    0.463872 0.123644 0.148588 0.106977
H54   H     H_    0.565740 0.217689 0.191533 0.175377
H55   H     H_    0.608708 0.179673 0.135773 0.153799
H56   H     H_    0.246834 0.520960 0.731964 0.116468
H57   H     H_    0.863146 0.429702 0.250520 0.137109
H58   H     H_    0.997253 0.486705 0.220990 0.135839
H59   H     H_    0.771241 0.375279 0.169346 0.153750
H60   H     H_    0.904609 0.432801 0.139988 0.158334
H61   H     H_    0.858576 0.315689 0.180254 0.130721
H62   H     H_    0.499082 0.483748 0.220363 0.140583
H63   H     H_    0.410630 0.437722 0.166526 0.140327
H64   H     H_    0.533087 0.371625 0.130173 0.158663
H65   H     H_    0.604861 0.517964 0.142680 0.105611
H66   H     H_    0.622865 0.425692 0.183043 0.158505
H67   H     H_    0.508871 0.749140 0.814071 0.152806
H68   H     H_    0.254818 0.762935 0.814266 0.152459
H69   H     H_    0.238149 0.490698 0.814703 0.153024
I1    I     I_    0.609687 0.600382 0.821804 -0.454306
I2    I     I_    0.399170 0.011502 0.822078 -0.455559
I3    I     I_    0.989348 0.390544 0.821611 -0.453410
O1    O     O_R   0.137150 0.468200 0.553200 -0.508555
O2    O     O_R   0.140110 0.470540 0.446010 -0.521957
O3    O     O_R   0.529460 0.669570 0.446010 -0.523269
O4    O     O_R   0.330430 0.859890 0.446010 -0.521843
O5    O     O_R   0.176710 0.690910 0.450560 -0.505009
O6    O     O_R   0.309090 0.485800 0.450560 -0.503848
O7    O     O_R   0.514200 0.823290 0.450560 -0.504238
O8    O     O_3   0.333333 0.666667 0.499990 -0.266761
O9    O     O_R   0.176750 0.985260 0.074180 -0.531428
O10   O     O_R   0.014740 0.191490 0.074180 -0.503390
O11   O     O_R   0.808510 0.823250 0.074180 -0.517099
O12   O     O_R   0.531800 0.668950 0.553200 -0.508889
O13   O     O_R   0.146100 0.172630 0.068980 -0.497979
O14   O     O_R   0.827370 0.973470 0.068980 -0.520968
O15   O     O_R   0.026530 0.853900 0.068980 -0.497230
O16   O     O_3   0.000000 0.000000 0.020040 -0.251422
O17   O     O_R   0.148270 0.170520 0.969620 -0.490268
O18   O     O_R   0.829480 0.977750 0.969620 -0.497229
O19   O     O_R   0.022250 0.851730 0.969620 -0.494108
O20   O     O_3   0.651108 0.086736 0.209572 -0.594117
O21   O     O_3   0.907704 0.569939 0.208899 -0.587499
O22   O     O_3   0.409500 0.313266 0.209087 -0.598647
O23   O     O_R   0.331050 0.862850 0.553200 -0.508390
O24   O     O_R   0.179100 0.982980 0.967000 -0.493755
O25   O     O_R   0.017020 0.196120 0.967000 -0.488776
O26   O     O_R   0.803880 0.820900 0.967000 -0.492316
O27   O     O_R   0.173970 0.688730 0.549930 -0.498865
O28   O     O_R   0.311270 0.485240 0.549930 -0.498583
O29   O     O_R   0.514760 0.826030 0.549930 -0.498215

loop_
_geom_bond_atom_site_label_1
_geom_bond_atom_site_label_2
_ccdc_geom_bond_type
C58   C62   A    
C22   H9    S    
C100  H51   S    
C4    H63   S    
C49   H29   S    
C31   O4    A    
Cr1   O2    S    
C59   C99   S    
C5    H66   S    
Cr1   O5    S    
C69   H56   S    
C80   C84   S    
C69   C96   S    
C50   C79   A    
C9    C91   S    
C23   H10   S    
C46   C76   A    
C95   C98   S    
C3    H59   S    
C14   C46   S    
C49   C78   A    
C37   I1    S    
C4    H62   S    
C18   O25   A    
C70   H48   S    
C84   C97   S    
C6    C98   S    
Cr3   O8    S    
C57   H21   S    
C101  H54   S    
C67   H25   S    
C102  O21   S    
Cr1   O27   S    
C6    C88   T    
C69   C93   S    
C62   H19   S    
C29   C42   A    
Cr3   O23   S    
C24   C54   A    
C83   C93   S    
C96   C99   S    
C15   O1    A    
C28   C41   A    
C68   C91   S    
Cr3   O29   S    
C48   C81   S    
C92   H50   S    
C64   C71   A    
C85   H42   S    
C100  C101  S    
C82   H32   S    
C85   C98   S    
C43   H7    S    
C83   H37   S    
C42   H6    S    
C54   C71   A    
C2    C97   S    
C22   C25   A    
C33   O3    A    
C19   O26   A    
C24   C38   A    
C52   C58   A    
Cr6   O11   S    
C61   H18   S    
C51   C57   A    
C23   C27   A    
C96   H69   S    
Cr6   O16   S    
C16   C44   S    
C55   C72   A    
C52   C55   A    
C94   H67   S    
C29   C72   A    
C84   H41   S    
C80   H35   S    
C74   H15   S    
C63   C66   A    
C28   C34   A    
C32   O6    A    
C69   H27   S    
C1    O23   A    
C34   C38   A    
C37   C70   S    
C76   H17   S    
C60   H24   S    
C70   C90   S    
C1    C12   S    
C36   O22   S    
C21   H8    S    
C37   C97   S    
Cr5   O16   S    
C9    C12   T    
C53   C60   A    
C10   C93   S    
C3    H60   S    
Cr4   O13   S    
Cr2   O8    S    
C68   C95   S    
C81   H49   S    
C75   H16   S    
C50   C53   A    
C85   H39   S    
C101  H55   S    
C70   H44   S    
C22   C78   A    
C82   H36   S    
C68   H45   S    
C41   H5    S    
C83   H33   S    
C30   C73   A    
C26   O12   A    
C27   C56   A    
C3    H61   S    
Cr4   O16   S    
C94   C97   S    
C17   O9    A    
C66   C73   A    
C67   C90   S    
C82   C91   S    
C82   C85   S    
C42   C45   A    
C81   C91   S    
C61   C64   A    
C35   C39   A    
C95   H68   S    
C20   O19   A    
C16   O11   A    
C67   C94   S    
C100  H52   S    
C4    O22   S    
C36   C40   A    
C27   C40   A    
C49   C52   A    
C66   C76   A    
C31   O5    A    
C18   O17   A    
C59   H4    S    
C2    C87   T    
C33   O7    A    
Cr6   O15   S    
C44   C74   A    
C86   C99   S    
C20   O24   A    
C37   H2    S    
C7    C99   S    
Cr4   O17   S    
C38   H11   S    
C100  O20   S    
C3    C102  S    
Cr6   O26   S    
C14   O13   A    
C102  H57   S    
C13   C15   S    
C41   C44   A    
C60   C63   A    
C30   C43   A    
C17   O15   A    
C28   C71   A    
C8    C90   S    
C47   C77   A    
C65   C72   A    
C40   H14   S    
C31   C78   S    
Cr2   O3    S    
C53   C56   A    
C32   O2    A    
C59   I3    S    
C19   O18   A    
Cr2   O12   S    
C56   C73   A    
C62   C65   A    
Cr1   O1    S    
C18   C89   S    
C5    H65   S    
C35   O21   S    
Cr1   O8    S    
C63   H20   S    
C17   C45   S    
C4    C5    S    
C10   C13   T    
C86   H40   S    
Cr5   O18   S    
C47   C51   A    
C50   H30   S    
C57   C61   A    
C84   H38   S    
C95   H12   S    
C80   H31   S    
C48   C98   S    
C48   H3    S    
C29   C35   A    
C94   H1    S    
C19   C87   S    
Cr2   O6    S    
C11   C26   S    
C30   C36   A    
C45   C75   A    
C51   C54   A    
Cr3   O7    S    
Cr6   O19   S    
C101  H53   S    
C86   H43   S    
C25   C39   A    
C32   C79   S    
C47   H28   S    
C33   C77   S    
C58   H22   S    
C8    C11   T    
C20   C88   S    
Cr5   O10   S    
C68   H26   S    
C92   C93   S    
C5    H64   S    
C25   C55   A    
C26   O29   A    
C59   C92   S    
Cr2   O28   S    
Cr3   O4    S    
C80   C90   S    
C1    O27   A    
C43   C46   A    
Cr5   O25   S    
C16   O14   A    
C81   H46   S    
Cr4   O24   S    
C14   O10   A    
C34   O20   S    
C83   C86   S    
C102  H58   S    
C92   H47   S    
C21   C24   A    
C21   C77   A    
C64   C74   A    
C39   H13   S    
Cr4   O9    S    
C96   H23   S    
C23   C79   A    
C67   H34   S    
C15   O28   A    
C48   I2    S    
C65   C75   A    
Cr5   O14   S    
C7    C89   T    
