data_mof_unit_46294.cif
_audit_creation_date              2012-12-10T18:59:18-0500
_audit_creation_method            fapswitch 2.2
_symmetry_space_group_name_H-M    P1
_symmetry_Int_Tables_number       1
_space_group_crystal_system       triclinic
_cell_length_a                    10.863302
_cell_length_b                    10.893579
_cell_length_c                    9.555291
_cell_angle_alpha                 88.627733
_cell_angle_beta                  87.745879
_cell_angle_gamma                 92.074689
_cell_volume                      1128.79521896

loop_
_atom_site_label
_atom_site_type_symbol
_atom_type_description
_atom_site_fract_x
_atom_site_fract_y
_atom_site_fract_z
_atom_type_partial_charge
C1    C     C_R   0.500616 0.262412 0.501125 0.834188
C2    C     C_R   0.052397 0.447577 0.630519 0.099566
C3    C     C_R   0.125567 0.491525 0.510523 -0.181333
C4    C     C_R   0.068842 0.512476 0.383591 -0.195995
C5    C     C_R   0.943419 0.495129 0.372277 0.391209
C6    C     C_R   0.869107 0.461925 0.492431 -0.213184
C7    C     C_R   0.513004 0.059381 0.623911 0.040184
C8    C     C_R   0.507600 0.129557 0.500348 -0.168156
C9    C     C_R   0.511575 0.069622 0.371675 -0.194067
C10   C     C_R   0.503675 0.941957 0.367121 0.389867
C11   C     C_R   0.501049 0.871292 0.494173 -0.174188
C12   C     C_R   0.261343 0.498834 0.503661 0.815458
C13   C     C_R   0.510098 0.932398 0.620338 -0.041091
C14   C     C_3   0.428697 0.916180 0.749759 -0.516235
C15   C     C_3   0.430982 0.055471 0.754330 0.790445
C16   C     C_R   0.542289 0.601454 0.069307 0.086886
C17   C     C_R   0.442098 0.408629 0.081065 -0.021265
C18   C     C_R   0.438114 0.409865 0.933509 0.471517
C19   C     C_R   0.545827 0.599948 0.921802 0.072169
C20   C     C_3   0.674868 0.655809 0.916540 0.711404
C21   C     C_3   0.665620 0.664491 0.075273 -0.410367
C22   C     C_R   0.497866 0.737596 0.498153 0.823922
C23   C     C_R   0.736395 0.485920 0.497493 0.816423
C24   C     C_R   0.098383 0.429298 0.765917 -0.167447
C25   C     C_R   0.029196 0.364178 0.871025 -0.193253
C26   C     C_R   0.910817 0.317492 0.845330 0.443797
C27   C     C_R   0.859152 0.346911 0.718156 -0.103019
C28   C     C_R   0.925759 0.419416 0.614082 -0.000879
Cu1   Cu    Cu3+1 0.499990 0.499980 0.640670 0.974882
Cu2   Cu    Cu3+1 0.500010 0.500020 0.359330 0.955388
H1    H     H_    0.122521 0.540574 0.289456 0.188848
H2    H     H_    0.475400 0.871829 0.837851 0.230069
H3    H     H_    0.395908 0.334242 0.141799 0.167377
H4    H     H_    0.731956 0.608958 0.130828 0.227826
H5    H     H_    0.184348 0.468811 0.797259 0.178537
H6    H     H_    0.766738 0.311369 0.700978 0.160772
H7    H     H_    0.511468 0.121339 0.273368 0.203372
H8    H     H_    0.336804 0.873913 0.728284 0.191339
N1    N     N_R   0.500790 0.500930 0.147930 -0.223598
N2    N     N_R   0.500790 0.500890 0.852020 -0.264462
O1    O     O_R   0.500000 0.319640 0.618810 -0.564518
O2    O     O_R   0.500010 0.319680 0.381230 -0.607127
O3    O     O_R   0.319640 0.499980 0.618820 -0.625395
O4    O     O_R   0.319650 0.500020 0.381230 -0.585983
O5    O     O_R   0.499990 0.680320 0.618770 -0.577509
O6    O     O_R   0.500000 0.680360 0.381190 -0.563287
O7    O     O_R   0.680350 0.499980 0.618770 -0.551097
O8    O     O_R   0.680360 0.500020 0.381180 -0.574314
O9    O     O_3   0.315469 0.104500 0.732467 -0.708956
H9    H     H_    0.264043 0.084404 0.818675 0.350631
O10   O     O_3   0.487771 0.103675 0.872260 -0.665687
H10   H     H_    0.572234 0.071947 0.875587 0.333497
O11   O     O_3   0.367507 0.318192 0.877631 -0.693495
H11   H     H_    0.346069 0.344716 0.783458 0.379906
O12   O     O_3   0.766885 0.577183 0.869597 -0.691449
H12   H     H_    0.753199 0.497295 0.921001 0.319136
O13   O     O_3   0.684959 0.771644 0.849274 -0.716260
H13   H     H_    0.695224 0.756782 0.747570 0.355643
H14   H     H_    0.659294 0.759966 0.112369 0.240425
H15   H     H_    0.068424 0.349924 0.972375 0.150486
O14   O     O_3   0.841152 0.248382 0.944333 -0.735453
H16   H     H_    0.890171 0.237411 0.028849 0.323462
O15   O     O_3   0.897971 0.507787 0.240849 -0.735487
H17   H     H_    0.840372 0.436549 0.228348 0.330230
O16   O     O_3   0.491135 0.891067 0.237890 -0.718715
H18   H     H_    0.416100 0.836407 0.244859 0.334411

loop_
_geom_bond_atom_site_label_1
_geom_bond_atom_site_label_2
_ccdc_geom_bond_type
O12   H12   S    
O10   H10   S    
C16   C21   S    
Cu1   Cu2   S    
C21   H4    S    
C25   H15   S    
C15   O10   S    
C27   H6    S    
C14   H8    S    
C1    C8    S    
C9    C10   A    
C11   C22   S    
C19   C20   S    
C20   C21   S    
C7    C15   S    
C17   C18   A    
C26   C27   A    
C7    C8    A    
C12   O4    A    
C13   C14   S    
Cu1   O3    S    
C4    C5    A    
C11   C13   A    
Cu2   O4    S    
O13   H13   S    
C5    C6    A    
C17   H3    S    
Cu1   O7    S    
C16   C19   A    
C6    C23   S    
C23   O8    A    
Cu1   N2    S    
C1    O1    A    
C22   O6    A    
C26   O14   S    
Cu2   N1    S    
C21   H14   S    
C12   O3    A    
C2    C3    A    
C19   N2    A    
C15   O9    S    
C2    C24   A    
O14   H16   S    
Cu1   O5    S    
C24   H5    S    
C20   O12   S    
C10   C11   A    
C16   N1    A    
C3    C4    A    
C4    H1    S    
C1    O2    A    
C7    C13   A    
C22   O5    A    
C23   O7    A    
C24   C25   A    
C5    O15   S    
O16   H18   S    
C17   N1    A    
C10   O16   S    
Cu2   O8    S    
C27   C28   A    
O9    H9    S    
C18   N2    A    
C14   C15   S    
Cu2   O2    S    
C2    C28   A    
C3    C12   S    
C18   O11   S    
Cu1   O1    S    
C25   C26   A    
O11   H11   S    
C20   O13   S    
Cu2   O6    S    
C6    C28   A    
O15   H17   S    
C14   H2    S    
C8    C9    A    
C9    H7    S    
