data_mof_unit_62320.cif
_audit_creation_date              2012-12-10T16:44:40-0500
_audit_creation_method            fapswitch 2.2
_symmetry_space_group_name_H-M    P1
_symmetry_Int_Tables_number       1
_space_group_crystal_system       triclinic
_cell_length_a                    18.472254
_cell_length_b                    18.46566
_cell_length_c                    18.454484
_cell_angle_alpha                 119.599274
_cell_angle_beta                  119.843459
_cell_angle_gamma                 90.545296
_cell_volume                      4467.25283923

loop_
_atom_site_label
_atom_site_type_symbol
_atom_type_description
_atom_site_fract_x
_atom_site_fract_y
_atom_site_fract_z
_atom_type_partial_charge
C1    C     C_R   0.138986 0.361813 0.000597 0.501584
C2    C     C_R   0.914992 0.261982 0.232061 -0.112586
C3    C     C_R   0.968836 0.315597 0.232702 -0.111171
C4    C     C_R   0.861139 0.638371 0.999435 0.532416
C5    C     C_R   0.932282 0.329826 0.156202 -0.085049
C6    C     C_2   0.719515 0.777191 0.939188 -0.155793
C7    C     C_2   0.689351 0.801833 0.997486 -0.107747
C8    C     C_2   0.769559 0.715167 0.931639 0.067556
C9    C     C_2   0.808633 0.696933 0.002162 -0.031225
C10   C     C_2   0.722598 0.279840 0.443772 -0.161130
C11   C     C_2   0.684069 0.192031 0.386784 -0.079742
C12   C     C_R   0.560327 0.176562 0.840465 -0.022808
C13   C     C_2   0.770378 0.333043 0.555275 -0.171867
C14   C     C_2   0.820997 0.305972 0.613422 -0.000535
C15   C     C_2   0.336080 0.278842 0.050528 -0.099028
C16   C     C_R   0.138640 0.638770 0.277026 0.510906
C17   C     C_2   0.304600 0.190735 0.987151 -0.095563
C18   C     C_2   0.278117 0.331323 0.035678 0.052331
C19   C     C_2   0.195375 0.308173 0.012751 0.008800
C20   C     C_2   0.220957 0.783767 0.949344 -0.170052
C21   C     C_2   0.305909 0.790090 0.984249 0.002282
C22   C     C_2   0.162835 0.721099 0.939860 -0.158811
C23   C     C_R   0.653914 0.211150 0.919212 -0.010839
C24   C     C_2   0.194556 0.704858 0.010888 -0.075319
C25   C     C_2   0.218941 0.778856 0.555948 -0.151925
C26   C     C_2   0.307706 0.803569 0.612326 -0.089812
C27   C     C_2   0.162858 0.720340 0.443610 -0.154040
C28   C     C_R   0.863201 0.361481 0.722961 0.496702
C29   C     C_2   0.195596 0.696455 0.387724 -0.092039
C30   C     C_R   0.637143 0.138286 0.276866 0.509968
C31   C     C_R   0.361554 0.861179 0.722986 0.530607
C32   C     C_R   0.638118 0.861035 0.999803 0.513839
C33   C     C_R   0.361376 0.138044 0.998292 0.527790
C34   C     C_R   0.710830 0.263862 0.919457 -0.018049
C35   C     C_R   0.360416 0.858153 0.997847 0.502357
C36   C     C_R   0.639189 0.139901 0.999403 0.504314
C37   C     C_R   0.139514 0.641231 0.001643 0.518287
C38   C     C_R   0.860172 0.360081 0.999970 0.480298
C39   C     C_R   0.674713 0.277321 0.840901 -0.073200
C40   C     C_R   0.584125 0.240310 0.763085 0.104647
C41   C     C_R   0.527771 0.191045 0.764005 -0.075249
C42   C     C_1   0.844262 0.227171 0.573985 0.210587
C43   C     C_1   0.162243 0.235698 0.011564 0.180378
C44   C     C_1   0.343629 0.725329 0.997634 0.208318
C45   C     C_R   0.693003 0.196553 0.997794 0.011114
C46   C     C_1   0.493169 0.128838 0.834992 0.200785
C47   C     C_R   0.785220 0.236272 0.076449 0.010092
C48   C     C_R   0.840186 0.290594 0.077161 0.017149
C49   C     C_R   0.802805 0.303687 0.998667 0.018064
C50   C     C_R   0.824329 0.222468 0.155017 -0.090497
H1    H     H_    0.039303 0.346077 0.292520 0.120518
H2    H     H_    0.192920 0.827435 0.928553 0.156270
H3    H     H_    0.093189 0.691132 0.876313 0.163580
H4    H     H_    0.262447 0.739938 0.078608 0.126703
H5    H     H_    0.185114 0.801276 0.593010 0.161313
H6    H     H_    0.343856 0.780966 0.578664 0.107209
H7    H     H_    0.091728 0.697148 0.406097 0.161695
H8    H     H_    0.265659 0.719804 0.421770 0.110262
H9    H     H_    0.457172 0.164410 0.704466 0.135820
H10   H     H_    0.785600 0.181044 0.158001 0.115026
H11   H     H_    0.943579 0.250778 0.291422 0.121741
H12   H     H_    0.698924 0.776624 0.042384 0.113649
H13   H     H_    0.977110 0.371547 0.159629 0.117724
H14   H     H_    0.704792 0.801069 0.891754 0.158309
H15   H     H_    0.712295 0.641420 0.779707 0.229072
H16   H     H_    0.806556 0.726157 0.850192 0.232135
H17   H     H_    0.268519 0.406630 0.981518 0.250949
H18   H     H_    0.326237 0.465137 0.111592 0.267637
H19   H     H_    0.522626 0.192514 0.614842 0.232615
H20   H     H_    0.597516 0.294448 0.694642 0.226983
H21   H     H_    0.805110 0.727512 0.067135 0.076684
H22   H     H_    0.715632 0.314344 0.408325 0.161016
H23   H     H_    0.684726 0.158032 0.421002 0.130568
H24   H     H_    0.763470 0.397587 0.590806 0.152090
H25   H     H_    0.406622 0.313906 0.110090 0.170578
H26   H     H_    0.235423 0.155827 0.922451 0.128237
H27   H     H_    0.716507 0.316918 0.839119 0.115909
N1    N     N_3   0.776502 0.675420 0.847025 -0.575661
N2    N     N_1   0.863129 0.164520 0.542918 -0.281430
N3    N     N_3   0.313814 0.407957 0.045896 -0.601507
N4    N     N_1   0.135642 0.178083 0.010726 -0.286593
N5    N     N_1   0.373831 0.673796 0.008196 -0.279168
N6    N     N_3   0.547691 0.253993 0.683469 -0.618167
N7    N     N_1   0.438738 0.090769 0.829882 -0.290648
O1    O     O_3   0.000000 0.500000 0.000000 -0.452138
O2    O     O_R   0.325040 0.054120 0.939900 -0.527580
O3    O     O_R   0.444330 0.884140 0.060080 -0.531888
O4    O     O_R   0.054210 0.325030 0.939940 -0.523189
O5    O     O_R   0.615830 0.175840 0.060080 -0.534532
O6    O     O_R   0.324160 0.884140 0.939910 -0.550635
O7    O     O_R   0.615850 0.055700 0.939930 -0.531831
O8    O     O_R   0.614980 0.885710 0.939940 -0.545781
O9    O     O_R   0.445830 0.174930 0.060060 -0.533912
O10   O     O_R   0.614300 0.054120 0.229160 -0.533116
O11   O     O_R   0.325070 0.885060 0.770830 -0.533228
O12   O     O_R   0.054160 0.614240 0.229150 -0.539873
O13   O     O_R   0.885070 0.614240 0.060060 -0.548803
O14   O     O_R   0.174980 0.614900 0.229170 -0.540064
O15   O     O_R   0.885740 0.445830 0.770840 -0.544301
O16   O     O_R   0.175880 0.615810 0.060090 -0.536137
O17   O     O_R   0.884210 0.324110 0.939920 -0.538324
O18   O     O_R   0.055710 0.615810 0.939920 -0.541040
O19   O     O_R   0.884190 0.444260 0.060070 -0.540986
O20   O     O_R   0.885120 0.325030 0.770840 -0.531674
O21   O     O_R   0.175010 0.445830 0.060100 -0.554620
O22   O     O_R   0.885710 0.614900 0.939900 -0.495637
O23   O     O_3   0.500040 0.999960 0.000000 -0.448936
O24   O     O_R   0.614930 0.174930 0.229160 -0.546986
O25   O     O_R   0.445880 0.885710 0.770850 -0.531378
O26   O     O_R   0.614330 0.885060 0.060100 -0.532071
Zn1   Zn    Zn3+2 0.956610 0.542450 0.085830 0.937452
Zn2   Zn    Zn3+2 0.129220 0.543380 0.085850 0.938955
Zn3   Zn    Zn3+2 0.957530 0.543380 0.914160 0.952435
Zn4   Zn    Zn3+2 0.956640 0.370790 0.914170 0.957857
Zn5   Zn    Zn3+2 0.543440 0.957510 0.914170 0.959892
Zn6   Zn    Zn3+2 0.542510 0.956570 0.085840 0.959870
Zn7   Zn    Zn3+2 0.370820 0.956570 0.914150 0.965610
Zn8   Zn    Zn3+2 0.543410 0.129170 0.085830 0.958373

loop_
_geom_bond_atom_site_label_1
_geom_bond_atom_site_label_2
_ccdc_geom_bond_type
C36   O5    A    
H18   N3    S    
C15   C18   S    
C15   H25   S    
C23   C45   A    
C27   C29   D    
O1    Zn2   S    
C38   C49   S    
O11   Zn7   S    
C12   C23   A    
C38   O19   A    
C32   O26   A    
C39   H27   S    
O1    Zn4   S    
C38   O17   A    
C44   N5    T    
C37   O18   A    
O13   Zn1   S    
C24   H4    S    
C5    H13   S    
O19   Zn1   S    
C18   C19   D    
C6    H14   S    
C2    C50   A    
C35   O3    A    
C11   C30   S    
C8    C9    D    
C17   H26   S    
H15   N1    S    
C22   H3    S    
O23   Zn8   S    
C2    H11   S    
C14   C42   S    
C1    O4    A    
C42   N2    T    
C13   C14   D    
C8    N1    S    
O17   Zn4   S    
C40   N6    S    
C17   C33   S    
O12   Zn1   S    
C19   C43   S    
C47   C50   A    
C45   C47   A    
H16   N1    S    
C5    C48   A    
C16   O12   A    
C1    C19   S    
O22   Zn3   S    
C34   C39   A    
O6    Zn7   S    
O24   Zn8   S    
O14   Zn2   S    
C41   H9    S    
C12   C46   S    
C27   H7    S    
C39   C40   A    
C3    H1    S    
C6    C8    S    
O1    Zn1   S    
C16   C29   S    
C4    O22   A    
C33   O9    A    
C33   O2    A    
C7    H12   S    
C12   C41   A    
H19   N6    S    
C21   C44   S    
C28   O20   A    
C47   C48   A    
C23   C34   A    
C24   C37   S    
C31   O25   A    
C36   C45   S    
O5    Zn8   S    
H20   N6    S    
O23   Zn5   S    
O3    Zn6   S    
C46   N7    T    
C28   O15   A    
C18   N3    S    
C48   C49   A    
O21   Zn2   S    
C20   C22   S    
O16   Zn2   S    
C11   H23   S    
C43   N4    T    
O20   Zn4   S    
O9    Zn8   S    
O26   Zn6   S    
C29   H8    S    
C36   O7    A    
C15   C17   D    
C40   C41   A    
C34   C49   A    
O10   Zn6   S    
C7    C32   S    
C30   O24   A    
H17   N3    S    
C9    H21   S    
C3    C5    A    
C10   C13   S    
C26   H6    S    
O15   Zn3   S    
C6    C7    D    
C21   C35   S    
C25   C27   S    
C50   H10   S    
O1    Zn3   S    
C2    C3    A    
C25   C26   D    
C30   O10   A    
O18   Zn3   S    
C25   H5    S    
C16   O14   A    
C32   O8    A    
C31   O11   A    
O7    Zn5   S    
O2    Zn7   S    
C22   C24   D    
O4    Zn4   S    
O8    Zn5   S    
O23   Zn6   S    
C10   C11   D    
O25   Zn5   S    
C35   O6    A    
C26   C31   S    
C20   C21   D    
C20   H2    S    
C14   C28   S    
C4    C9    S    
C4    O13   A    
O23   Zn7   S    
C37   O16   A    
C1    O21   A    
C13   H24   S    
C10   H22   S    
