data_mof_unit_8131.cif
_audit_creation_date              2012-12-10T19:11:05-0500
_audit_creation_method            fapswitch 2.2
_symmetry_space_group_name_H-M    P1
_symmetry_Int_Tables_number       1
_space_group_crystal_system       triclinic
_cell_length_a                    11.039265
_cell_length_b                    9.03685
_cell_length_c                    8.051235
_cell_angle_alpha                 89.989073
_cell_angle_beta                  89.446652
_cell_angle_gamma                 89.909611
_cell_volume                      803.154199025

loop_
_atom_site_label
_atom_site_type_symbol
_atom_type_description
_atom_site_fract_x
_atom_site_fract_y
_atom_site_fract_z
_atom_type_partial_charge
C1    C     C_R   0.499773 0.221194 0.499999 0.935546
C2    C     C_R   0.260557 0.497682 0.501218 0.748433
C3    C     C_R   0.739501 0.495238 0.498967 0.849229
C4    C     C_R   0.499908 0.778811 0.499990 0.769266
C5    C     C_1   0.499746 0.065733 0.499997 -0.060155
C6    C     C_3   0.071168 0.400561 0.659684 -0.108439
C7    C     C_3   0.074924 0.414339 0.336215 -0.227172
C8    C     C_3   0.926529 0.423605 0.671773 -0.237201
C9    C     C_3   0.930509 0.389998 0.348137 -0.076130
C10   C     C_1   0.499804 0.934268 0.499979 -0.137362
C11   C     C_3   0.072062 0.665979 0.507454 0.262045
C12   C     C_3   0.926379 0.664059 0.481749 0.233389
C13   C     C_3   0.122217 0.495453 0.503108 -0.067971
C14   C     C_3   0.877902 0.493201 0.497972 -0.059906
Cu1   Cu    Cu3+1 0.500000 0.500010 0.669080 1.084726
Cu2   Cu    Cu3+1 0.500000 0.500010 0.330920 1.053489
N1    N     N_1   0.500000 0.499970 0.076820 -0.030663
N2    N     N_1   0.500000 0.499970 0.923180 -0.027179
O1    O     O_R   0.500000 0.288400 0.642760 -0.530677
O2    O     O_R   0.500000 0.288400 0.357240 -0.581723
O3    O     O_R   0.317700 0.499990 0.642790 -0.516098
O4    O     O_R   0.317700 0.499990 0.357210 -0.645312
O5    O     O_R   0.682300 0.499990 0.642790 -0.600845
O6    O     O_R   0.682300 0.499990 0.357210 -0.533946
O7    O     O_R   0.500000 0.711620 0.642810 -0.575010
O8    O     O_R   0.500000 0.711620 0.357190 -0.574647
C15   C     C_2   0.123549 0.431673 0.829106 0.580040
H1    H     H_    0.108172 0.350520 0.926028 0.041136
O9    O     O_2   0.178883 0.543647 0.862523 -0.501966
C16   C     C_2   0.115015 0.508681 0.189196 0.479237
H2    H     H_    0.202669 0.488371 0.133239 0.139895
O10   O     O_2   0.056492 0.610939 0.134030 -0.411773
C17   C     C_2   0.885601 0.527003 0.811965 0.447710
H3    H     H_    0.796267 0.513992 0.864084 0.165030
O11   O     O_2   0.944522 0.630166 0.863983 -0.405764
C18   C     C_2   0.879071 0.411359 0.175319 0.568374
H4    H     H_    0.897854 0.328742 0.080942 0.016279
O12   O     O_2   0.821296 0.519468 0.136155 -0.529152
C19   C     C_2   0.112364 0.237418 0.642230 0.172193
H5    H     H_    0.050169 0.146698 0.628630 0.086305
O13   O     O_2   0.219426 0.203573 0.652428 -0.560365
C20   C     C_2   0.141339 0.268312 0.294801 0.188122
H6    H     H_    0.226363 0.239898 0.352328 0.165759
O14   O     O_2   0.106918 0.187895 0.182702 -0.573931
C21   C     C_2   0.867563 0.277746 0.731623 0.217210
H7    H     H_    0.912547 0.212898 0.826318 0.094936
O15   O     O_2   0.767699 0.236048 0.688572 -0.488402
C22   C     C_2   0.891414 0.228338 0.377454 0.342835
H8    H     H_    0.954558 0.140809 0.403675 0.097223
O16   O     O_2   0.785326 0.191556 0.363717 -0.533530
N3    N     N_3   0.103778 0.737091 0.665833 -0.429369
H9    H     H_    0.074721 0.847070 0.669372 0.225873
H10   H     H_    0.197992 0.746698 0.673124 0.239858
N4    N     N_3   0.131569 0.758170 0.378036 -0.524994
H11   H     H_    0.225518 0.758497 0.391848 0.204786
H12   H     H_    0.106376 0.869143 0.392256 0.216422
N5    N     N_3   0.866133 0.762029 0.605221 -0.539156
H13   H     H_    0.889872 0.872417 0.583355 0.213855
H14   H     H_    0.772147 0.760228 0.592094 0.200055
N6    N     N_3   0.893786 0.726308 0.318876 -0.429014
H15   H     H_    0.799582 0.735221 0.311049 0.239876
H16   H     H_    0.922173 0.836059 0.307789 0.238720

loop_
_geom_bond_atom_site_label_1
_geom_bond_atom_site_label_2
_ccdc_geom_bond_type
C2    O4    A    
Cu1   N2    S    
C4    O8    A    
C9    C14   S    
C7    C20   S    
C18   O12   D    
C9    C18   S    
C3    O5    A    
C6    C15   S    
Cu1   O3    S    
Cu2   O2    S    
C15   H1    S    
C2    O3    A    
C22   O16   D    
N1    N2    T    
C3    O6    A    
C5    C10   T    
C19   O13   D    
C7    C16   S    
C21   H7    S    
C6    C13   S    
Cu1   O1    S    
C11   C13   S    
N5    H13   S    
C3    C14   S    
C20   O14   D    
N6    H15   S    
C1    C5    S    
C12   N5    S    
Cu1   O5    S    
C18   H4    S    
C17   O11   D    
C12   C14   S    
C17   H3    S    
C8    C17   S    
C21   O15   D    
Cu2   O8    S    
C16   H2    S    
N4    H12   S    
Cu1   O7    S    
N5    H14   S    
C20   H6    S    
C4    C10   S    
N3    H9    S    
C16   O10   D    
C4    O7    A    
C7    C13   S    
C11   N3    S    
C15   O9    D    
C9    C22   S    
Cu2   O6    S    
C11   N4    S    
C19   H5    S    
C7    C9    S    
C2    C13   S    
C6    C19   S    
C22   H8    S    
C1    O2    A    
C6    C8    S    
C8    C14   S    
N4    H11   S    
C1    O1    A    
Cu1   Cu2   S    
N6    H16   S    
C8    C21   S    
C11   C12   S    
Cu2   O4    S    
Cu2   N1    S    
N3    H10   S    
C12   N6    S    
