data_mof_unit_31732.cif
_audit_creation_date              2013-03-05T15:55:22-0500
_audit_creation_method            fapswitch 2.2
_symmetry_space_group_name_H-M    P1
_symmetry_Int_Tables_number       1
_space_group_crystal_system       triclinic
_cell_length_a                    27.618886
_cell_length_b                    10.694179
_cell_length_c                    9.923124
_cell_angle_alpha                 90.75157
_cell_angle_beta                  91.870559
_cell_angle_gamma                 92.888141
_cell_volume                      2925.30433103

loop_
_atom_site_label
_atom_site_type_symbol
_atom_site_description
_atom_site_fract_x
_atom_site_fract_y
_atom_site_fract_z
_atom_type_partial_charge
O1    O     O_R   0.500000 0.316780 0.614690 -0.656329
O2    O     O_R   0.500000 0.316750 0.385360 -0.578956
C1    C     C_R   0.503998 0.260716 0.499999 0.913290
O3    O     O_R   0.428760 0.500030 0.614650 -0.626919
O4    O     O_R   0.428750 0.500010 0.385320 -0.516852
C2    C     C_R   0.406311 0.505188 0.498116 0.924687
Zn1   Zn    Zn3+2 0.500000 0.500020 0.653130 1.074574
Zn2   Zn    Zn3+2 0.500000 0.499980 0.346870 1.105987
O5    O     O_R   0.500000 0.683250 0.614640 -0.541765
O6    O     O_R   0.500000 0.683220 0.385310 -0.514058
O7    O     O_R   0.571250 0.499990 0.614680 -0.538581
O8    O     O_R   0.571240 0.499970 0.385350 -0.630734
C3    C     C_R   0.494869 0.738925 0.501312 0.932501
C4    C     C_R   0.594070 0.499865 0.502332 0.922095
C5    C     C_R   0.177112 0.434967 0.425715 0.561345
O9    O     O_2   0.200745 0.331332 0.395182 -0.527595
N1    N     N_R   0.202663 0.543088 0.463309 -0.356081
C6    C     C_R   0.180310 0.652046 0.486515 0.612924
C7    C     C_R   0.282823 0.594904 0.377532 -0.169723
C8    C     C_R   0.332778 0.585165 0.385257 0.604102
C9    C     C_R   0.325371 0.471352 0.594949 -0.242869
C10   C     C_R   0.275370 0.481093 0.586498 -0.069705
C11   C     C_R   0.254122 0.541605 0.477033 0.183063
C12   C     C_R   0.102473 0.539444 0.454338 -0.153924
C13   C     C_R   0.126509 0.431395 0.419493 -0.063584
C14   C     C_R   0.099613 0.324442 0.373570 -0.210231
C15   C     C_R   0.129479 0.652963 0.480330 -0.247030
C16   C     C_R   0.354199 0.521078 0.493003 -0.207166
H1    H     H_    0.341345 0.422202 0.678795 0.194055
H2    H     H_    0.252972 0.439825 0.663453 0.165006
H3    H     H_    0.117413 0.244921 0.332822 0.225078
C17   C     C_R   0.647123 0.497842 0.508352 -0.277146
C18   C     C_R   0.975073 0.408135 0.466565 -0.032419
C19   C     C_R   0.977676 0.632720 0.527831 -0.085007
C20   C     C_R   0.951104 0.517761 0.501594 -0.047898
C21   C     C_R   0.948679 0.290799 0.474425 0.538942
C22   C     C_R   0.898330 0.286675 0.476513 -0.254231
C23   C     C_R   0.873762 0.396312 0.493244 -0.065196
C24   C     C_R   0.900246 0.511091 0.515352 -0.141120
C25   C     C_R   0.875850 0.618661 0.551733 -0.201986
C26   C     C_R   0.824849 0.610943 0.551039 0.612276
N2    N     N_R   0.799975 0.499913 0.520738 -0.330142
C27   C     C_R   0.823194 0.392856 0.495823 0.634673
C28   C     C_R   0.723579 0.510738 0.635953 -0.260616
C29   C     C_R   0.673306 0.512234 0.632507 0.652122
C30   C     C_R   0.672220 0.480888 0.389177 -0.389742
C31   C     C_R   0.722555 0.480371 0.393183 0.725041
C32   C     C_R   0.748243 0.495710 0.516652 0.064574
O10   O     O_2   0.797297 0.283626 0.473768 -0.529542
C33   C     C_R   0.024921 0.418569 0.436361 -0.044435
C34   C     C_R   0.051488 0.533577 0.463699 -0.055067
C35   C     C_R   0.027619 0.643105 0.498223 -0.114665
C36   C     C_R   0.049195 0.321114 0.371565 0.563130
H4    H     H_    0.743600 0.522631 0.731326 0.207717
H5    H     H_    0.878826 0.196278 0.472208 0.186434
O11   O     O_2   0.207264 0.757849 0.517571 -0.436929
C37   C     C_R   0.104972 0.763878 0.493792 0.590252
H6    H     H_    0.266214 0.641893 0.293167 0.183883
C38   C     C_R   0.953837 0.729518 0.594298 0.441516
C39   C     C_R   0.903078 0.728247 0.592872 0.412889
O12   O     O_2   0.800017 0.713226 0.578398 -0.494029
C40   C     C_R   0.054403 0.760198 0.492105 0.434859
H7    H     H_    0.652999 0.468006 0.292854 0.214257
H8    H     H_    0.487410 0.109010 0.287331 0.238276
C41   C     C_R   0.537583 0.119854 0.739384 -0.315797
H9    H     H_    0.558738 0.207529 0.734497 0.228748
C42   C     C_R   0.533922 0.063033 0.864494 0.455799
C43   C     C_R   0.505781 0.952265 0.875499 0.601011
C44   C     C_R   0.485772 0.891671 0.759603 0.626271
C45   C     C_R   0.495518 0.940217 0.630079 -0.194190
C46   C     C_R   0.514169 0.063618 0.623061 -0.052714
C47   C     C_R   0.507030 0.127090 0.500560 -0.143260
C48   C     C_R   0.492659 0.061838 0.382070 -0.194936
C49   C     C_R   0.484408 0.934665 0.384061 0.720476
C50   C     C_R   0.488137 0.871945 0.506632 -0.224937
C51   C     C_R   0.444140 0.304073 0.122894 0.358103
C52   C     C_R   0.431141 0.197083 0.042814 0.490907
C53   C     C_R   0.428637 0.206961 0.904853 0.468908
C54   C     C_R   0.445274 0.316673 0.846866 -0.302008
H10   H     H_    0.436166 0.325551 0.742756 0.251890
C55   C     C_R   0.472973 0.408531 0.922266 -0.078962
C56   C     C_R   0.472744 0.406103 0.066793 -0.082755
N3    N     N_R   0.499540 0.498800 0.142780 -0.139907
C57   C     C_R   0.526981 0.586734 0.076006 0.492952
C58   C     C_R   0.526301 0.587152 0.931777 0.647766
N4    N     N_R   0.499520 0.498720 0.857170 -0.136903
F1    F     F_    0.129472 0.877330 0.500165 -0.571155
O13   O     O_3   0.979196 0.822351 0.669840 -0.557707
C59   C     C_3   0.992464 0.773072 0.796078 -0.257201
H11   H     H_    0.018018 0.696669 0.785160 0.148340
H12   H     H_    0.959995 0.739200 0.851294 0.164464
H13   H     H_    0.011380 0.848800 0.858059 0.189343
O14   O     O_3   0.880806 0.828034 0.650185 -0.546335
C60   C     C_3   0.880463 0.926272 0.556788 -0.143345
H14   H     H_    0.861806 0.005276 0.601994 0.193572
H15   H     H_    0.860062 0.897064 0.462005 0.164699
H16   H     H_    0.917824 0.960990 0.533535 0.189979
F2    F     F_    0.746443 0.466768 0.276959 -0.629658
O15   O     O_3   0.032147 0.872439 0.477251 -0.527858
C61   C     C_3   0.015906 0.882501 0.341784 -0.203459
H17   H     H_    0.988217 0.806982 0.312637 0.113387
H18   H     H_    0.046759 0.882109 0.272345 0.161019
H19   H     H_    0.998431 0.972948 0.329943 0.249565
F3    F     F_    0.554891 0.119994 0.976179 -0.619507
F4    F     F_    0.497668 0.903523 0.998581 -0.504939
F5    F     F_    0.453058 0.794294 0.775732 -0.569484
F6    F     F_    0.472067 0.873556 0.266123 -0.508335
O16   O     O_3   0.552960 0.678763 0.151219 -0.530124
C62   C     C_3   0.603015 0.674533 0.127719 -0.106010
H20   H     H_    0.613101 0.737559 0.044093 0.231145
H21   H     H_    0.614785 0.578159 0.106707 0.124818
H22   H     H_    0.623530 0.709903 0.219593 0.171515
O17   O     O_3   0.424866 0.309251 0.248741 -0.554094
C63   C     C_3   0.373503 0.310099 0.236696 -0.161197
H23   H     H_    0.356459 0.224608 0.186954 0.206126
H24   H     H_    0.361989 0.394708 0.182606 0.173778
H25   H     H_    0.358743 0.311364 0.339033 0.169090
F7    F     F_    0.413822 0.089701 0.099665 -0.554655
F8    F     F_    0.407386 0.112909 0.827196 -0.596870
F9    F     F_    0.552185 0.677122 0.866367 -0.635154
F10   F     F_    0.650745 0.529345 0.750399 -0.618811
O18   O     O_3   0.971178 0.179113 0.490015 -0.584231
C64   C     C_3   0.986584 0.169110 0.626203 -0.244241
H26   H     H_    0.955238 0.168271 0.694009 0.144570
H27   H     H_    0.013750 0.245420 0.656856 0.147451
H28   H     H_    0.004363 0.079144 0.638770 0.266500
O19   O     O_3   0.024788 0.225044 0.298790 -0.564160
C65   C     C_3   0.009640 0.271223 0.172658 -0.318589
H29   H     H_    0.041086 0.308156 0.115102 0.158340
H30   H     H_    0.982791 0.344469 0.184060 0.162755
H31   H     H_    0.991588 0.192873 0.112665 0.196358
F11   F     F_    0.360041 0.638490 0.287882 -0.603436

loop_
_geom_bond_atom_site_label_1
_geom_bond_atom_site_label_2
_geom_bond_distance
_ccdc_geom_bond_type
C65   H31   1.109262 S    
O14   C60   1.410217 S    
C25   C39   1.408601 A    
Zn2   N3    2.024705 S    
C26   N2    1.366452 A    
C7    C11   1.395862 A    
C7    C8    1.388549 A    
C12   C15   1.408770 A    
C26   O12   1.349252 S    
C65   H29   1.113663 S    
C55   C56   1.434949 A    
C64   H26   1.113439 S    
C58   N4    1.365637 A    
Zn1   O7    2.016697 S    
N1    C11   1.424227 S    
C31   F2    1.357016 S    
N3    C57   1.369334 A    
C21   C22   1.389910 A    
O2    C1    1.296812 A    
C62   H21   1.115307 S    
C23   C24   1.407775 A    
O7    C4    1.298470 A    
C64   H27   1.112796 S    
Zn1   N4    2.025415 S    
C5    O9    1.350244 S    
C18   C21   1.423429 A    
O16   C62   1.412357 S    
C5    N1    1.365053 A    
C19   C20   1.416322 A    
C17   C29   1.410709 A    
O5    C3    1.286427 A    
C38   O13   1.383537 S    
C36   O19   1.382168 S    
C57   O16   1.383859 S    
C49   F6    1.358061 S    
C57   C58   1.430775 A    
C2    C16   1.457080 S    
C31   C32   1.399143 A    
C43   C44   1.396707 A    
C41   C42   1.393749 A    
H8    C48   1.081762 S    
C45   C46   1.395713 A    
C59   H12   1.113623 S    
C55   N4    1.364215 A    
C52   C53   1.374218 A    
C39   O14   1.383361 S    
C12   C34   1.412520 A    
C38   C39   1.400893 A    
C9    C10   1.390007 A    
C44   C45   1.421240 A    
C8    F11   1.358132 S    
O3    Zn1   1.992014 S    
C42   F3    1.356290 S    
C63   H23   1.109376 S    
C7    H6    1.083040 S    
C33   C36   1.424796 A    
C49   C50   1.400013 A    
C42   C43   1.391189 A    
C3    C50   1.444406 S    
C37   C40   1.394788 A    
C51   C52   1.409109 A    
O3    C2    1.297300 A    
C52   F7    1.358318 S    
C15   C37   1.401992 A    
C62   H22   1.109454 S    
C51   C56   1.443040 A    
C24   C25   1.410951 A    
C54   C55   1.406300 A    
C53   C54   1.378203 A    
C27   O10   1.350139 S    
C64   H28   1.108633 S    
C8    C16   1.407718 A    
C60   H16   1.111321 S    
C29   F10   1.357869 S    
C18   C33   1.417769 A    
C41   C46   1.416365 A    
C9    H1    1.083534 S    
C61   H19   1.108458 S    
C37   F1    1.358812 S    
O1    C1    1.289913 A    
C58   F9    1.354780 S    
C21   O18   1.382012 S    
C22   C23   1.394669 A    
O15   C61   1.410350 S    
Zn2   O8    1.992011 S    
C61   H18   1.113336 S    
N1    C6    1.366249 A    
C33   C34   1.418441 A    
N2    C32   1.426472 S    
C12   C13   1.406136 A    
C59   H13   1.109220 S    
C60   H15   1.113390 S    
C25   C26   1.406647 A    
C9    C16   1.401463 A    
O8    C4    1.302844 A    
C41   H9    1.081989 S    
C19   C38   1.420990 A    
C23   C27   1.396329 A    
C54   H10   1.061885 S    
N2    C27   1.363829 A    
O19   C65   1.410081 S    
C14   C36   1.390630 A    
C28   C29   1.388692 A    
O17   C63   1.420237 S    
Zn1   O5    2.001283 S    
C30   C31   1.389773 A    
C48   C49   1.368102 A    
C10   H2    1.082936 S    
O1    Zn1   1.991464 S    
C17   C30   1.404420 A    
O2    Zn2   2.001281 S    
C6    C15   1.403773 A    
C4    C17   1.465802 S    
C47   C48   1.395373 A    
O6    C3    1.304292 A    
C65   H30   1.112615 S    
O4    Zn2   2.016700 S    
C63   H24   1.112880 S    
C44   F5    1.358453 S    
C6    O11   1.349212 S    
C19   C35   1.418865 A    
C30   H7    1.081859 S    
C51   O17   1.374948 S    
C1    C47   1.435754 S    
C13   C14   1.395096 A    
C34   C35   1.416321 A    
C35   C40   1.424963 A    
C62   H20   1.109661 S    
O4    C2    1.298877 A    
C20   C24   1.414017 A    
C61   H17   1.112615 S    
C18   C20   1.419867 A    
C53   F8    1.356696 S    
C60   H14   1.108863 S    
C63   H25   1.106727 S    
C5    C13   1.395537 A    
C40   O15   1.383265 S    
C22   H5    1.082342 S    
C28   H4    1.083147 S    
C14   H3    1.083734 S    
C46   C47   1.413072 A    
O13   C59   1.409983 S    
Zn2   O6    1.991464 S    
C56   N3    1.403217 A    
C43   F4    1.355143 S    
C45   C50   1.421421 A    
O18   C64   1.410548 S    
C10   C11   1.399341 A    
C59   H11   1.112752 S    
C28   C32   1.396421 A    
