data_mof_unit_59077.cif
_audit_creation_date              2013-03-05T15:53:41-0500
_audit_creation_method            fapswitch 2.2
_symmetry_space_group_name_H-M    P1
_symmetry_Int_Tables_number       1
_space_group_crystal_system       triclinic
_cell_length_a                    12.941018
_cell_length_b                    13.332622
_cell_length_c                    27.675236
_cell_angle_alpha                 94.908172
_cell_angle_beta                  90.176744
_cell_angle_gamma                 119.080551
_cell_volume                      4152.2922044

loop_
_atom_site_label
_atom_site_type_symbol
_atom_site_description
_atom_site_fract_x
_atom_site_fract_y
_atom_site_fract_z
_atom_type_partial_charge
O1    O     O_R   0.296680 0.802170 0.437540 -0.510523
O2    O     O_R   0.525380 0.838530 0.443500 -0.507689
C1    C     C_R   0.627289 0.897639 0.426585 0.548309
O3    O     O_R   0.702130 0.995190 0.446810 -0.503513
O4    O     O_R   0.661770 0.181390 0.458760 -0.480457
C2    C     C_R   0.601195 0.222640 0.440839 0.553524
O5    O     O_R   0.499820 0.198480 0.455280 -0.481379
O6    O     O_R   0.311660 0.976250 0.449080 -0.463283
C3    C     C_R   0.273018 0.878004 0.424327 0.556600
O7    O     O_R   0.297580 0.804960 0.544440 -0.491431
O8    O     O_R   0.526220 0.841130 0.542590 -0.496403
C4    C     C_R   0.627236 0.899296 0.565047 0.556320
O9    O     O_R   0.703030 0.997990 0.553710 -0.478489
O10   O     O_R   0.662610 0.183990 0.557860 -0.473250
C5    C     C_R   0.604499 0.229262 0.578337 0.561148
O11   O     O_R   0.500730 0.201280 0.562180 -0.478591
O12   O     O_R   0.312500 0.978850 0.548170 -0.484785
C6    C     C_R   0.272182 0.879793 0.563477 0.557551
Cr1   Cr    Cr6+3 0.416430 0.829200 0.492370 1.064485
Cr2   Cr    Cr6+3 0.674630 0.087020 0.504170 1.104778
Cr3   Cr    Cr6+3 0.408920 0.083740 0.503490 1.111159
O13   O     O_3   0.499990 0.999990 0.500010 -0.287181
C7    C     C_1   0.633656 0.272719 0.395790 0.073444
C8    C     C_R   0.746723 0.436851 0.291113 0.230304
C9    C     C_R   0.746797 0.454394 0.240964 0.199328
C10   C     C_R   0.619066 0.244424 0.220858 0.018906
C11   C     C_R   0.610040 0.232017 0.270502 -0.162889
C12   C     C_R   0.671206 0.325912 0.305254 -0.007404
C13   C     C_R   0.686808 0.356541 0.205876 -0.026485
C14   C     C_1   0.695547 0.372793 0.154685 0.103292
C15   C     C_1   0.653305 0.302531 0.355396 0.077074
C16   C     C_1   0.703867 0.395863 0.113185 0.106400
H1    H     H_    0.554666 0.147447 0.282612 0.162979
C17   C     C_R   0.256242 0.789171 0.341817 -0.117967
C18   C     C_R   0.250734 0.789762 0.292109 0.016691
C19   C     C_R   0.231023 0.780668 0.191035 0.015050
C20   C     C_R   0.269481 0.712291 0.212780 -0.080719
C21   C     C_R   0.276203 0.714999 0.262771 -0.110950
C22   C     C_R   0.204334 0.765611 0.140693 0.060318
H2    H     H_    0.282140 0.731070 0.356268 0.149467
H3    H     H_    0.290027 0.652724 0.191798 0.171905
H4    H     H_    0.299483 0.656935 0.278655 0.147192
C23   C     C_R   0.147075 0.822575 0.122233 0.001645
C24   C     C_R   0.202369 0.940603 0.353140 0.043330
C25   C     C_R   0.204752 0.948095 0.301930 -0.037444
C26   C     C_R   0.223580 0.867619 0.271677 0.078637
C27   C     C_R   0.196768 0.037045 0.280085 -0.052995
C28   C     C_R   0.180454 0.028736 0.228879 -0.014535
C29   C     C_R   0.182187 0.937301 0.199815 -0.006384
C30   C     C_R   0.213510 0.862856 0.220845 0.073332
C31   C     C_R   0.146483 0.914232 0.150523 -0.101242
C32   C     C_R   0.235010 0.865073 0.372871 0.011800
H5    H     H_    0.108020 0.961041 0.134898 0.171236
C33   C     C_R   0.732655 0.960387 0.352183 -0.056085
C34   C     C_R   0.727962 0.954154 0.301732 0.009491
C35   C     C_R   0.717870 0.935261 0.199645 -0.033552
C36   C     C_R   0.783952 0.043167 0.226524 -0.078350
C37   C     C_R   0.795208 0.052940 0.277027 0.223546
C38   C     C_R   0.723785 0.921495 0.148747 0.050611
H6    H     H_    0.794452 0.039759 0.372968 0.222742
H7    H     H_    0.832902 0.120204 0.208509 0.213664
C39   C     C_R   0.670661 0.808630 0.124813 0.007714
C40   C     C_R   0.571351 0.764883 0.350713 -0.094879
C41   C     C_R   0.576147 0.749601 0.300120 -0.014850
C42   C     C_R   0.650321 0.847119 0.275424 0.011225
C43   C     C_R   0.504560 0.641504 0.273302 0.007799
C44   C     C_R   0.506402 0.632444 0.222644 -0.129644
C45   C     C_R   0.578666 0.728585 0.198360 -0.000666
C46   C     C_R   0.648504 0.837175 0.224478 0.039822
C47   C     C_R   0.589780 0.715149 0.148632 -0.099005
C48   C     C_R   0.648474 0.870090 0.376572 -0.003861
H8    H     H_    0.544483 0.629201 0.129582 0.157162
H9    H     H_    0.453914 0.548962 0.202122 0.168532
H10   H     H_    0.504993 0.697713 0.370193 0.170976
C49   C     C_R   0.744638 0.299859 0.652472 0.022446
C50   C     C_R   0.751531 0.311392 0.703760 -0.012773
C51   C     C_R   0.761148 0.331441 0.806258 0.025920
C52   C     C_R   0.851582 0.325655 0.781061 -0.092042
C53   C     C_R   0.847388 0.316346 0.730528 -0.087113
C54   C     C_R   0.771766 0.354954 0.856851 -0.110439
H11   H     H_    0.852121 0.371873 0.876510 0.155137
H12   H     H_    0.927200 0.331049 0.800497 0.138572
H13   H     H_    0.921339 0.315275 0.712990 0.175097
C55   C     C_R   0.683873 0.368365 0.881282 -0.008553
C56   C     C_R   0.566683 0.321237 0.653289 0.029920
C57   C     C_R   0.566637 0.321694 0.704075 -0.019476
C58   C     C_R   0.659245 0.316558 0.729175 0.019791
C59   C     C_R   0.475788 0.326172 0.730543 -0.107547
C60   C     C_R   0.476085 0.325220 0.780541 -0.121037
C61   C     C_R   0.570564 0.327128 0.805621 0.017054
C62   C     C_R   0.662848 0.323201 0.780278 0.066203
C63   C     C_R   0.578871 0.343473 0.855909 -0.113981
C64   C     C_R   0.645140 0.293408 0.627450 -0.030552
H14   H     H_    0.508865 0.350555 0.874664 0.155886
H15   H     H_    0.404913 0.328527 0.799861 0.127398
H16   H     H_    0.402731 0.329329 0.713303 0.181633
C65   C     C_1   0.224414 0.863948 0.610581 0.023684
C66   C     C_R   0.171926 0.748675 0.723467 -0.075412
C67   C     C_R   0.160801 0.740271 0.773517 0.286017
C68   C     C_R   0.161425 0.923844 0.782807 -0.159174
C69   C     C_R   0.172537 0.931312 0.732817 -0.114412
C70   C     C_R   0.176953 0.843304 0.703058 -0.013118
C71   C     C_R   0.155774 0.828920 0.803437 0.021019
C72   C     C_1   0.134006 0.818064 0.854294 0.023697
C73   C     C_1   0.197615 0.854013 0.652246 -0.027861
C74   C     C_1   0.105930 0.799856 0.895443 0.050947
H17   H     H_    0.177886 0.682144 0.700295 0.181236
H18   H     H_    0.156314 0.991711 0.805349 0.120308
H19   H     H_    0.178427 0.005887 0.717454 0.139141
C75   C     C_1   0.642553 0.867399 0.611541 0.027435
C76   C     C_R   0.735559 0.922463 0.735567 -0.104779
C77   C     C_R   0.734836 0.910584 0.785110 -0.135571
C78   C     C_R   0.566438 0.715576 0.770872 0.074307
C79   C     C_R   0.568709 0.729540 0.720890 -0.096696
C80   C     C_R   0.653277 0.831812 0.703350 0.009497
C81   C     C_R   0.651477 0.808254 0.803223 0.014591
C82   C     C_1   0.663300 0.798975 0.854271 0.013244
C83   C     C_1   0.649482 0.848038 0.652797 -0.023392
C84   C     C_1   0.681767 0.790209 0.895990 0.044059
H20   H     H_    0.800011 0.002749 0.722405 0.140996
H21   H     H_    0.800591 0.981376 0.809437 0.117803
H22   H     H_    0.504472 0.660973 0.695309 0.174846
O14   O     O_R   0.820790 0.857990 0.068830 -0.476821
O15   O     O_R   0.016700 0.827330 0.062850 -0.501408
C85   C     C_R   0.069284 0.774696 0.077781 0.575921
O16   O     O_R   0.041970 0.673520 0.060040 -0.465048
O17   O     O_R   0.817980 0.483660 0.048840 -0.486304
C86   C     C_R   0.716713 0.440545 0.067004 0.561667
O18   O     O_R   0.637200 0.461990 0.052510 -0.498456
O19   O     O_R   0.664790 0.681920 0.057970 -0.498277
C87   C     C_R   0.718013 0.783721 0.079895 0.582831
O20   O     O_R   0.815840 0.852920 0.961840 -0.512296
O21   O     O_R   0.012100 0.822630 0.963670 -0.512372
C88   C     C_R   0.057233 0.766431 0.941530 0.554568
O22   O     O_R   0.037010 0.668460 0.953040 -0.467813
O23   O     O_R   0.813390 0.478970 0.949660 -0.500650
C89   C     C_R   0.709282 0.431996 0.929544 0.545243
O24   O     O_R   0.632250 0.456930 0.945520 -0.511233
O25   O     O_R   0.660200 0.677230 0.958780 -0.476160
C90   C     C_R   0.715945 0.776141 0.943126 0.555680
Cr4   Cr    Cr6+3 0.914010 0.832750 0.013970 1.081788
Cr5   Cr    Cr6+3 0.922310 0.578600 0.003000 1.103332
Cr6   Cr    Cr6+3 0.656280 0.574630 0.003870 1.082786
O26   O     O_3   0.830870 0.661990 0.006950 -0.271849
S1    S     S_3+6 0.844111 0.548435 0.336012 0.095067
O27   O     O_2   0.785149 0.615697 0.355329 -0.194234
O28   O     O_2   0.872528 0.499214 0.377711 -0.280136
O29   O     O_3   0.972731 0.638068 0.312622 -0.419572
H23   H     H_    0.006888 0.588452 0.301260 0.358161
C91   C     C_2   0.161037 0.115180 0.205560 0.665462
O30   O     O_2   0.229573 0.172384 0.176008 -0.422800
O31   O     O_R   0.064982 0.131575 0.216843 -0.553385
H24   H     H_    0.012484 0.076421 0.240350 0.319006
C92   C     C_2   0.225033 0.145168 0.310723 0.501816
O32   O     O_2   0.233419 0.233408 0.296276 -0.261959
O33   O     O_R   0.311838 0.253285 0.296461 -0.510900
H25   H     H_    0.399461 0.261443 0.295259 0.295636
C93   C     C_2   0.149557 0.996784 0.385082 0.578012
O34   O     O_2   0.041869 0.953734 0.385204 -0.443244
O35   O     O_R   0.222239 0.099874 0.413740 -0.673664
H26   H     H_    0.175264 0.129943 0.433391 0.348947
C94   C     C_2   0.787135 0.021981 0.120150 0.590932
O36   O     O_2   0.892332 0.089959 0.129038 -0.464020
O37   O     O_R   0.726747 0.034536 0.081210 -0.663996
H27   H     H_    0.778872 0.104805 0.063864 0.346282
S2    S     S_3+6 0.898470 0.189134 0.307456 0.016659
O38   O     O_2   0.996711 0.177876 0.330915 -0.245053
O39   O     O_2   0.949597 0.280031 0.272608 -0.216294
O40   O     O_3   0.832274 0.229797 0.350820 -0.558096
H28   H     H_    0.897632 0.297486 0.369839 0.395255
C95   C     C_2   0.429806 0.535795 0.296996 0.575173
O41   O     O_2   0.328956 0.469775 0.280670 -0.399598
O42   O     O_R   0.475082 0.510990 0.337505 -0.678970
H29   H     H_    0.413595 0.440977 0.352585 0.378887
S3    S     S_3+6 0.819074 0.596664 0.221153 0.041876
O43   O     O_2   0.941043 0.624104 0.206540 -0.236792
O44   O     O_2   0.752533 0.603034 0.177985 -0.332678
O45   O     O_3   0.830658 0.698794 0.264261 -0.409424
H30   H     H_    0.748142 0.681444 0.269176 0.354979
C96   C     C_2   0.840437 0.294271 0.624986 0.597066
O46   O     O_2   0.891698 0.363630 0.595539 -0.479341
O47   O     O_R   0.869141 0.207753 0.631688 -0.705202
H31   H     H_    0.934711 0.212284 0.610475 0.350742
C97   C     C_2   0.488305 0.352979 0.626681 0.604746
O48   O     O_2   0.380587 0.294742 0.627164 -0.513272
O49   O     O_R   0.539141 0.446384 0.598749 -0.671776
H32   H     H_    0.477708 0.458979 0.581551 0.347744
C98   C     C_2   0.554927 0.137825 0.186346 0.594592
O50   O     O_2   0.534564 0.143454 0.143793 -0.486971
O51   O     O_R   0.516463 0.029581 0.202975 -0.720861
H33   H     H_    0.475890 0.963912 0.176282 0.346672
S4    S     S_3+6 0.154260 0.618940 0.797764 0.003818
O52   O     O_2   0.264787 0.657443 0.828965 -0.242768
O53   O     O_2   0.048635 0.566032 0.828416 -0.310389
O54   O     O_3   0.143418 0.520437 0.752882 -0.528433
H34   H     H_    0.132852 0.453417 0.769498 0.355877
C99   C     C_2   0.474506 0.604199 0.787270 0.613539
O55   O     O_2   0.475843 0.582722 0.829261 -0.500679
O56   O     O_R   0.385015 0.522961 0.754199 -0.683135
H35   H     H_    0.326936 0.451502 0.769514 0.332847
C100  C     C_2   0.230693 0.687820 0.107738 0.576789
O57   O     O_2   0.294657 0.726251 0.073983 -0.496063
O58   O     O_R   0.178744 0.570480 0.114069 -0.663264
H36   H     H_    0.202824 0.526720 0.088998 0.348693

loop_
_geom_bond_atom_site_label_1
_geom_bond_atom_site_label_2
_geom_bond_distance
_ccdc_geom_bond_type
C93   O35   1.398225 S    
O58   H36   1.013761 S    
C59   H16   1.078236 S    
C69   C70   1.399450 A    
C58   C62   1.408694 A    
C24   C93   1.482458 S    
C100  O57   1.222626 D    
O25   Cr6   1.912075 S    
C76   C77   1.393191 A    
C50   C53   1.413605 A    
C54   C55   1.401659 A    
C86   O18   1.266693 A    
C23   C85   1.472305 S    
C4    C75   1.431723 S    
C79   C80   1.399489 A    
C61   C62   1.407338 A    
S3    O44   1.502710 D    
O4    Cr2   1.913888 S    
C33   H6    1.077327 S    
C51   C52   1.394791 A    
C11   H1    1.085314 S    
C4    O9    1.268812 A    
C95   O42   1.399013 S    
O8    Cr1   1.925082 S    
C10   C11   1.396316 A    
O51   H33   1.013922 S    
O14   Cr4   2.047479 S    
C17   H2    1.084846 S    
C84   C90   1.432294 S    
C19   C20   1.404982 A    
C20   C21   1.382262 A    
C21   H4    1.080481 S    
C28   C91   1.488523 S    
C8    S1    1.788022 S    
C82   C84   1.205137 T    
C56   C57   1.405018 A    
C67   S4    1.768404 S    
C57   C59   1.410109 A    
C69   H19   1.083524 S    
Cr6   O26   1.972909 S    
C66   C67   1.401442 A    
C97   O48   1.223114 D    
C39   C47   1.400081 A    
C70   C73   1.438403 S    
C98   O51   1.399669 S    
C17   C18   1.378203 A    
O40   H28   0.990386 S    
C99   O56   1.398762 S    
C52   H12   1.083440 S    
O47   H31   1.013730 S    
O23   Cr5   1.939581 S    
O10   C5    1.279199 A    
S1    O28   1.503074 D    
C56   C64   1.416028 A    
O22   Cr5   2.029234 S    
C51   C62   1.411469 A    
C33   C48   1.400148 A    
S3    O43   1.502218 D    
C45   C46   1.407240 A    
C29   C31   1.398307 A    
C44   H9    1.085043 S    
C6    C65   1.432249 S    
C92   O33   1.421831 S    
C78   C81   1.422065 A    
C65   C73   1.204715 T    
C24   C32   1.413080 A    
C43   C44   1.398120 A    
O56   H35   1.013530 S    
C98   O50   1.222460 D    
Cr3   O13   1.976502 S    
S2    O39   1.503677 D    
C100  O58   1.398353 S    
C75   C83   1.204427 T    
S2    O38   1.502463 D    
C3    C32   1.473383 S    
C10   C98   1.495746 S    
O3    Cr2   2.059151 S    
C72   C74   1.204986 T    
C34   C42   1.414213 A    
C96   O47   1.398449 S    
O45   H30   0.989174 S    
S3    O45   1.679989 S    
C94   O37   1.397459 S    
C25   C27   1.422687 A    
C9    C13   1.428902 A    
O1    Cr1   2.045250 S    
C68   H18   1.083582 S    
C5    O11   1.274052 A    
C44   C45   1.398320 A    
S4    O54   1.681665 S    
O10   Cr2   1.942094 S    
C43   C95   1.479501 S    
C18   C21   1.394285 A    
O1    C3    1.270144 A    
C8    C9    1.426983 A    
C67   C71   1.412236 A    
Cr4   O26   1.980028 S    
C57   C58   1.416424 A    
O6    C3    1.281689 A    
C22   C23   1.413506 A    
C7    C15   1.204962 T    
O42   H29   1.012596 S    
O16   Cr5   2.056583 S    
C68   C71   1.402480 A    
O12   Cr3   1.910713 S    
C66   H17   1.083297 S    
O54   H34   0.990216 S    
C76   H20   1.083914 S    
C31   H5    1.082152 S    
O17   Cr5   1.912754 S    
S4    O53   1.502640 D    
C93   O34   1.222441 D    
C60   H15   1.083807 S    
C1    C48   1.462587 S    
C49   C50   1.412391 A    
C12   C15   1.443029 S    
C13   C14   1.447940 S    
C49   C96   1.485614 S    
C66   C70   1.399068 A    
O21   C88   1.275558 A    
C9    S3    1.797201 S    
C61   C63   1.385755 A    
C27   C28   1.419026 A    
C50   C58   1.415131 A    
O7    Cr1   2.038826 S    
O8    C4    1.274212 A    
C80   C83   1.438148 S    
Cr1   O13   1.980340 S    
C63   H14   1.084789 S    
O12   C6    1.274044 A    
O29   H23   0.990650 S    
O19   Cr6   1.944067 S    
C95   O41   1.222230 D    
C92   O32   1.229782 D    
C88   O22   1.271037 A    
C10   C13   1.417519 A    
C28   C29   1.411562 A    
C40   H10   1.080753 S    
C40   C48   1.392391 A    
C55   C89   1.464259 S    
C29   C30   1.405949 A    
C56   C97   1.488667 S    
C22   C100  1.485878 S    
C85   O16   1.267969 A    
C91   O31   1.394742 S    
O15   Cr4   1.923589 S    
O20   C90   1.267311 A    
C35   C36   1.404080 A    
O17   C86   1.273485 A    
S1    O27   1.502631 D    
C77   C81   1.402156 A    
S1    O29   1.680203 S    
C19   C30   1.421465 A    
C96   O46   1.222826 D    
C49   C64   1.421809 A    
C78   C79   1.409946 A    
C51   C54   1.399795 A    
O20   Cr4   2.038352 S    
C33   C34   1.390956 A    
O37   H27   1.013820 S    
C38   C39   1.413074 A    
O9    Cr2   2.030570 S    
O14   C87   1.271789 A    
O2    Cr1   1.924227 S    
C52   C53   1.391925 A    
C17   C32   1.400394 A    
C39   C87   1.470716 S    
C19   C22   1.408007 A    
C24   C25   1.428662 A    
C8    C12   1.411466 A    
Cr2   O13   1.973245 S    
C54   H11   1.084316 S    
O6    Cr3   1.941929 S    
C5    C64   1.488259 S    
C47   H8    1.084630 S    
O25   C90   1.273616 A    
O11   Cr3   2.061139 S    
C36   H7    1.077915 S    
C2    O5    1.264531 A    
O18   Cr6   2.028768 S    
C27   C92   1.485675 S    
C94   O36   1.222961 D    
C89   O24   1.264699 A    
C26   C30   1.405559 A    
O21   Cr4   1.926819 S    
C35   C38   1.412025 A    
O24   Cr6   2.062979 S    
S4    O52   1.502597 D    
C16   C86   1.432242 S    
O19   C87   1.277696 A    
O49   H32   1.013844 S    
C77   H21   1.084067 S    
C38   C94   1.486996 S    
O5    Cr3   2.028253 S    
C41   C42   1.421931 A    
C14   C16   1.205956 T    
C23   C31   1.397059 A    
C36   C37   1.393130 A    
O4    C2    1.275264 A    
O7    C6    1.269223 A    
C42   C46   1.403885 A    
C2    C7    1.431672 S    
C79   H22   1.083930 S    
C68   C69   1.398393 A    
C97   O49   1.397397 S    
C81   C82   1.442767 S    
O2    C1    1.279092 A    
Cr5   O26   1.976670 S    
C20   H3    1.079787 S    
C99   O55   1.222459 D    
C37   S2    1.778989 S    
O35   H26   1.013743 S    
C40   C41   1.403496 A    
C53   H13   1.080093 S    
C25   C26   1.418903 A    
C74   C88   1.432404 S    
O33   H25   1.086133 S    
C59   C60   1.384859 A    
S2    O40   1.677639 S    
C45   C47   1.389554 A    
C35   C46   1.415906 A    
C34   C37   1.415307 A    
C71   C72   1.441867 S    
C78   C99   1.492564 S    
C91   O30   1.221019 D    
O23   C89   1.277803 A    
C76   C80   1.395813 A    
O31   H24   1.012182 S    
C55   C63   1.401971 A    
C60   C61   1.392413 A    
C18   C26   1.405185 A    
C1    O3    1.261150 A    
C41   C43   1.414581 A    
O15   C85   1.279982 A    
C11   C12   1.394544 A    
