data_mof_unit_41598.cif
_audit_creation_date              2013-03-05T15:58:07-0500
_audit_creation_method            fapswitch 2.2
_symmetry_space_group_name_H-M    P1
_symmetry_Int_Tables_number       1
_space_group_crystal_system       triclinic
_cell_length_a                    15.108066
_cell_length_b                    13.829542
_cell_length_c                    10.74554
_cell_angle_alpha                 90.043441
_cell_angle_beta                  87.216835
_cell_angle_gamma                 90.231392
_cell_volume                      2242.480784

loop_
_atom_site_label
_atom_site_type_symbol
_atom_site_description
_atom_site_fract_x
_atom_site_fract_y
_atom_site_fract_z
_atom_type_partial_charge
O1    O     O_R   0.370250 0.582280 0.500040 -0.599229
O2    O     O_R   0.370250 0.417720 0.500040 -0.593888
C1    C     C_R   0.328779 0.499856 0.499124 0.833587
O3    O     O_R   0.499970 0.582270 0.317700 -0.595503
O4    O     O_R   0.499970 0.417730 0.317700 -0.589800
C2    C     C_R   0.499896 0.499966 0.260024 0.809554
Cu1   Cu    Cu3+1 0.499990 0.597420 0.500010 0.965654
Cu2   Cu    Cu3+1 0.499990 0.402580 0.500010 0.934818
O5    O     O_R   0.629730 0.582260 0.499980 -0.520785
O6    O     O_R   0.629730 0.417740 0.499980 -0.607392
O7    O     O_R   0.500000 0.582270 0.682320 -0.594204
O8    O     O_R   0.500000 0.417730 0.682320 -0.599795
C3    C     C_R   0.671402 0.500325 0.498742 0.835831
C4    C     C_R   0.496827 0.500026 0.740136 0.861441
C5    C     C_3   0.452853 0.591798 0.075962 -0.448088
C6    C     C_3   0.446097 0.412195 0.076317 -0.446141
H1    H     H_    0.483630 0.659502 0.109293 0.152267
H2    H     H_    0.471048 0.342287 0.111082 0.153946
H3    H     H_    0.383364 0.592460 0.115687 0.217468
H4    H     H_    0.376512 0.417801 0.114824 0.216766
C7    C     C_3   0.452758 0.593239 0.933027 0.484283
C8    C     C_3   0.447160 0.409918 0.933196 0.488011
H5    H     H_    0.489983 0.658301 0.898518 0.084481
H6    H     H_    0.481111 0.342722 0.900007 0.079948
H7    H     H_    0.630896 0.560179 0.875143 0.191897
H8    H     H_    0.627353 0.432160 0.874166 0.188640
C9    C     C_3   0.599487 0.496045 0.062079 0.362696
C10   C     C_3   0.501203 0.499903 0.121738 -0.006454
C11   C     C_3   0.497018 0.500073 0.878148 -0.083495
C12   C     C_3   0.594466 0.496956 0.916920 -0.591624
C13   C     C_R   0.815714 0.588995 0.493734 0.554694
C14   C     C_R   0.768562 0.501167 0.496309 -0.187828
C15   C     C_R   0.814392 0.413278 0.496291 -0.332259
C16   C     C_R   0.907144 0.411287 0.495183 0.108146
C17   C     C_R   0.954072 0.500323 0.493704 -0.060671
C18   C     C_R   0.908097 0.588938 0.492462 -0.036269
C19   C     C_R   0.954170 0.322781 0.495904 0.194334
C20   C     C_R   0.046763 0.324671 0.496050 -0.199760
C21   C     C_R   0.093053 0.412432 0.495325 0.075880
C22   C     C_R   0.047016 0.500955 0.493756 0.050420
C23   C     C_R   0.094055 0.589906 0.492396 0.111376
C24   C     C_R   0.047373 0.678410 0.490420 0.148490
C25   C     C_R   0.954889 0.676662 0.490418 -0.147215
C26   C     C_R   0.185186 0.412554 0.496447 -0.213183
C27   C     C_R   0.232103 0.499901 0.496516 -0.060821
C28   C     C_R   0.186654 0.587806 0.493335 -0.224411
H9    H     H_    0.776997 0.346399 0.497593 0.194072
H10   H     H_    0.083152 0.257234 0.497015 0.142548
H11   H     H_    0.220259 0.344398 0.497139 0.153747
H12   H     H_    0.224141 0.654505 0.491343 0.169897
H13   H     H_    0.919239 0.744505 0.489165 0.198302
C29   C     C_R   0.437442 0.794884 0.571222 0.272345
C30   C     C_R   0.437630 0.204702 0.571585 0.279078
N1    N     N_R   0.499930 0.743810 0.499950 -0.191636
N2    N     N_R   0.499930 0.256190 0.499950 -0.187870
C31   C     C_R   0.561907 0.792796 0.426729 0.030804
C32   C     C_R   0.561122 0.207717 0.425377 -0.019707
C33   C     C_R   0.565156 0.896313 0.422804 -0.067704
C34   C     C_R   0.563281 0.104261 0.419532 -0.059370
C35   C     C_R   0.499810 0.948366 0.492226 0.012357
C36   C     C_R   0.499824 0.051671 0.492314 0.014903
C37   C     C_R   0.434783 0.897222 0.564687 0.034370
C38   C     C_R   0.435146 0.102312 0.565429 0.034130
C39   C     C_R   0.631373 0.948812 0.351584 0.174682
C40   C     C_R   0.626387 0.052322 0.342807 0.189214
C41   C     C_R   0.368725 0.049260 0.631638 -0.207917
C42   C     C_R   0.368375 0.949772 0.630930 -0.205552
H14   H     H_    0.608451 0.750211 0.370598 0.170589
H15   H     H_    0.609259 0.250660 0.372070 0.149239
H16   H     H_    0.315285 0.083067 0.685851 0.154294
H17   H     H_    0.314659 0.915555 0.684589 0.153830
C43   C     C_3   0.094174 0.775169 0.488863 -0.878860
H18   H     H_    0.132807 0.783052 0.573631 0.233889
H19   H     H_    0.139329 0.780953 0.404501 0.237574
H20   H     H_    0.046848 0.836380 0.487255 0.234305
C44   C     C_3   0.371029 0.746016 0.661408 -0.710365
H21   H     H_    0.377508 0.669005 0.674643 0.307917
H22   H     H_    0.377196 0.776917 0.756067 0.210230
H23   H     H_    0.302852 0.757826 0.630686 0.180540
C45   C     C_3   0.371154 0.253227 0.661585 -0.718395
H24   H     H_    0.377254 0.330428 0.674138 0.306966
H25   H     H_    0.302975 0.240325 0.631082 0.183320
H26   H     H_    0.377536 0.222971 0.756456 0.205066
C46   C     C_3   0.709138 0.894251 0.291260 -0.857179
H27   H     H_    0.767158 0.941043 0.267707 0.241741
H28   H     H_    0.734434 0.840718 0.357594 0.269488
H29   H     H_    0.688274 0.856391 0.206314 0.224980
C47   C     C_3   0.684676 0.107472 0.248076 -0.889215
H30   H     H_    0.712009 0.061220 0.171469 0.246818
H31   H     H_    0.645016 0.162243 0.200108 0.220623
H32   H     H_    0.739468 0.143893 0.295132 0.229334
F1    F     F_    0.366351 0.600918 0.896241 -0.635607
F2    F     F_    0.360903 0.406742 0.894673 -0.634029
C48   C     C_3   0.655913 0.583699 0.102885 -0.811346
H33   H     H_    0.629195 0.653318 0.070450 0.207253
H34   H     H_    0.660033 0.586431 0.205713 0.231208
H35   H     H_    0.724720 0.578194 0.061990 0.236801
C49   C     C_3   0.649097 0.403596 0.101570 -0.826612
H36   H     H_    0.717804 0.403380 0.059565 0.235168
H37   H     H_    0.654014 0.399996 0.204192 0.228932
H38   H     H_    0.616655 0.336705 0.069294 0.207236
F3    F     F_    0.772211 0.674923 0.492869 -0.693530
C50   C     C_3   0.907608 0.225949 0.496623 -0.876866
H39   H     H_    0.862868 0.219367 0.581306 0.235921
H40   H     H_    0.868581 0.218747 0.412167 0.228437
H41   H     H_    0.955133 0.164866 0.496861 0.233796

loop_
_geom_bond_atom_site_label_1
_geom_bond_atom_site_label_2
_geom_bond_distance
_ccdc_geom_bond_type
C26   H11   1.083373 S    
C6    C10   1.559824 S    
C9    C49   1.554332 S    
C8    C11   1.556308 S    
C16   C19   1.417950 A    
C23   C24   1.415785 A    
C3    C14   1.466853 S    
C17   C18   1.411494 A    
C46   H29   1.110222 S    
Cu1   Cu2   2.694547 S    
C41   H16   1.080155 S    
C27   C28   1.399866 A    
Cu1   O7    1.970357 S    
C19   C20   1.399108 A    
C37   C42   1.406137 A    
C46   H28   1.109850 S    
C43   H20   1.110968 S    
O4    C2    1.295631 A    
O7    C4    1.296027 A    
C32   C34   1.432517 A    
C33   C35   1.408112 A    
C35   C37   1.411601 A    
C16   C17   1.418076 A    
C36   C38   1.411638 A    
O5    C3    1.298248 A    
C39   C46   1.517341 S    
C2    C10   1.485135 S    
C23   C28   1.399928 A    
C44   H23   1.109539 S    
C20   H10   1.084821 S    
C6    H4    1.113913 S    
C41   C42   1.375884 A    
C38   C41   1.406047 A    
C9    C12   1.565393 S    
C45   H26   1.110930 S    
Cu2   N2    2.024503 S    
C29   N1    1.382411 A    
C30   N2    1.382227 A    
C33   C39   1.426271 A    
N1    C31   1.370732 A    
C34   C36   1.407896 A    
C13   F3    1.360571 S    
C30   C45   1.518033 S    
C46   H27   1.106929 S    
C45   H25   1.109717 S    
C21   C22   1.410959 A    
C19   C50   1.510005 S    
C43   H18   1.110499 S    
C48   H35   1.111652 S    
O3    Cu1   1.970048 S    
C31   H14   1.080138 S    
C7    C11   1.556439 S    
C1    C27   1.462223 S    
C35   C36   1.428665 A    
O1    C1    1.298774 A    
C5    H3    1.114003 S    
C11   C12   1.550181 S    
C13   C14   1.405242 A    
C47   H32   1.109731 S    
Cu2   O8    1.970041 S    
C24   C43   1.510657 S    
C15   C16   1.401156 A    
C50   H40   1.110194 S    
C44   H21   1.080047 S    
C48   H34   1.110311 S    
C43   H19   1.110479 S    
C22   C23   1.417922 A    
C47   H31   1.110260 S    
H8    C12   1.114323 S    
C49   H37   1.109996 S    
N2    C32   1.370565 A    
C15   H9    1.081610 S    
C8    F2    1.386893 S    
C8    H6    1.113301 S    
O3    C2    1.295628 A    
C24   C25   1.397379 A    
C4    C11   1.483155 S    
C50   H39   1.110457 S    
C26   C27   1.398138 A    
C40   C47   1.517288 S    
H7    C12   1.114297 S    
C5    H1    1.110559 S    
C6    C8    1.537512 S    
O1    Cu1   1.970415 S    
Cu2   O6    1.970445 S    
O2    Cu2   1.972097 S    
C44   H22   1.110917 S    
C45   H24   1.080171 S    
C29   C44   1.517803 S    
O6    C3    1.301685 A    
O4    Cu2   1.970364 S    
C21   C26   1.392583 A    
C49   H38   1.108436 S    
C28   H12   1.080135 S    
C14   C15   1.401283 A    
C7    H5    1.113352 S    
C17   C22   1.404219 A    
O8    C4    1.296163 A    
C29   C37   1.417907 A    
C34   C40   1.425808 A    
C30   C38   1.417922 A    
C25   H13   1.084143 S    
C5    C10   1.560120 S    
C20   C21   1.398162 A    
C39   C40   1.437189 A    
C31   C33   1.432814 A    
O2    C1    1.299727 A    
C50   H41   1.110961 S    
C42   H17   1.080211 S    
C9    C48   1.554225 S    
C48   H33   1.108482 S    
Cu1   O5    1.972129 S    
C5    C7    1.536127 S    
C47   H30   1.107073 S    
C6    H2    1.110635 S    
C49   H36   1.111661 S    
C9    C10   1.589602 S    
C13   C18   1.395132 A    
C18   C25   1.401307 A    
Cu1   N1    2.024511 S    
C32   H15   1.079948 S    
C7    F1    1.386725 S    
