data_mof_unit_46046.cif
_audit_creation_date              2012-12-10T17:18:17-0500
_audit_creation_method            fapswitch 2.2
_symmetry_space_group_name_H-M    P1
_symmetry_Int_Tables_number       1
_space_group_crystal_system       triclinic
_cell_length_a                    10.182472
_cell_length_b                    10.491019
_cell_length_c                    14.959038
_cell_angle_alpha                 90.288269
_cell_angle_beta                  81.628884
_cell_angle_gamma                 93.866784
_cell_volume                      1577.34906912

loop_
_atom_site_label
_atom_site_type_symbol
_atom_type_description
_atom_site_fract_x
_atom_site_fract_y
_atom_site_fract_z
_atom_type_partial_charge
C1    C     C_R   0.553853 0.734496 0.499661 0.880094
C2    C     C_R   0.446140 0.265610 0.509615 0.891023
C3    C     C_R   0.647012 0.703473 0.941285 0.470222
C4    C     C_R   0.289017 0.361005 0.064977 0.355555
C5    C     C_2   0.579539 0.870993 0.514157 -0.140042
C6    C     C_2   0.421190 0.129677 0.528516 -0.076749
C7    C     C_2   0.499053 0.932762 0.578270 0.098061
C8    C     C_2   0.502938 0.071418 0.576425 0.185802
C9    C     C_2   0.927366 0.511457 0.506174 0.123749
C10   C     C_2   0.073748 0.493597 0.490395 0.130806
C11   C     C_R   0.501233 0.501533 0.672766 0.932962
C12   C     C_R   0.498579 0.498254 0.327115 0.939207
C13   C     C_R   0.398298 0.423291 0.195530 0.029613
C14   C     C_R   0.584515 0.595920 0.805779 0.014469
C15   C     C_R   0.494606 0.501368 0.231720 -0.180779
C16   C     C_R   0.502185 0.504380 0.768297 -0.223604
C17   C     C_R   0.582849 0.587444 0.178775 0.377650
C18   C     C_R   0.413734 0.418675 0.821001 0.447519
C19   C     C_R   0.567873 0.605049 0.087908 -0.127938
C20   C     C_R   0.397100 0.429709 0.915309 -0.055129
C21   C     C_R   0.479049 0.519597 0.048669 -0.110951
C22   C     C_R   0.481660 0.519883 0.954773 -0.153166
C23   C     C_R   0.388978 0.432773 0.103266 0.065753
C24   C     C_R   0.572837 0.606551 0.900194 0.035645
C25   C     C_R   0.637891 0.706697 0.035646 0.287408
C26   C     C_R   0.296463 0.355042 0.970415 0.315326
H1    H     H_    0.112829 0.429992 0.437254 0.129856
H2    H     H_    0.889319 0.580860 0.555598 0.131731
N1    N     N_2   0.842700 0.448880 0.462930 0.027068
N2    N     N_2   0.157300 0.551120 0.537070 0.025970
O1    O     O_R   0.431060 0.692470 0.507460 -0.617237
O2    O     O_R   0.568940 0.307530 0.492540 -0.602165
O3    O     O_R   0.651120 0.659650 0.483670 -0.611945
O4    O     O_R   0.348880 0.340350 0.516330 -0.613090
O5    O     O_R   0.389960 0.516440 0.644050 -0.583112
O6    O     O_R   0.610040 0.483560 0.355950 -0.564089
O7    O     O_R   0.610030 0.483620 0.620260 -0.643993
O8    O     O_R   0.389970 0.516380 0.379740 -0.651095
Zn1   Zn    Zn3+2 0.353060 0.521920 0.515880 0.988807
Zn2   Zn    Zn3+2 0.646940 0.478080 0.484120 0.996760
N3    N     N_3   0.318878 0.326119 0.250465 -0.350340
H3    H     H_    0.252290 0.369292 0.299115 0.225421
H4    H     H_    0.380887 0.271470 0.282345 0.153494
N4    N     N_3   0.682121 0.675249 0.748125 -0.345589
H5    H     H_    0.635818 0.723940 0.702010 0.166600
H6    H     H_    0.751763 0.617525 0.713029 0.218497
O9    O     O_3   0.684705 0.649480 0.217387 -0.748158
H7    H     H_    0.765142 0.656901 0.171135 0.372540
O10   O     O_3   0.349305 0.321915 0.777782 -0.695884
H8    H     H_    0.366962 0.240476 0.805788 0.352994
O11   O     O_3   0.691277 0.814075 0.074738 -0.768727
H9    H     H_    0.633168 0.830719 0.132157 0.371360
O12   O     O_3   0.203522 0.280273 0.931262 -0.724260
H10   H     H_    0.177330 0.202685 0.968899 0.348014
O13   O     O_3   0.721856 0.798103 0.888567 -0.726872
H11   H     H_    0.779872 0.849454 0.924762 0.387567
O14   O     O_3   0.182533 0.301434 0.120729 -0.734352
H12   H     H_    0.102028 0.301695 0.090673 0.354219
N5    N     N_3   0.596198 0.143089 0.623928 -0.421239
H13   H     H_    0.575732 0.116442 0.692040 0.191339
H14   H     H_    0.691745 0.116424 0.599169 0.213889
N6    N     N_3   0.397780 0.869095 0.642944 -0.436240
H15   H     H_    0.434290 0.789204 0.669718 0.169207
H16   H     H_    0.316064 0.841340 0.610883 0.234001
N7    N     N_3   0.317521 0.058081 0.490659 -0.453282
H17   H     H_    0.227368 0.096892 0.514986 0.215404
H18   H     H_    0.334993 0.071545 0.420624 0.179045
N8    N     N_3   0.685400 0.940299 0.456603 -0.450824
H19   H     H_    0.774453 0.900272 0.464094 0.212223
H20   H     H_    0.669146 0.926356 0.389728 0.211577
O15   O     O_3   0.106120 0.622726 0.606430 -0.702492
H21   H     H_    0.182805 0.650484 0.637103 0.372086
O16   O     O_3   0.890546 0.362699 0.402294 -0.696150
H22   H     H_    0.811603 0.325800 0.377279 0.378963

loop_
_geom_bond_atom_site_label_1
_geom_bond_atom_site_label_2
_ccdc_geom_bond_type
C4    O14   S    
C10   H1    S    
C4    C26   A    
O13   H11   S    
C25   O11   S    
C7    N6    S    
C15   C17   A    
N6    H15   S    
C6    N7    S    
C12   O6    A    
N3    H3    S    
C10   N2    D    
C14   N4    S    
O5    Zn1   S    
O9    H7    S    
C12   C15   S    
C9    N1    D    
C2    O4    A    
C22   C24   A    
C13   N3    S    
N2    O15   S    
O14   H12   S    
C1    O3    A    
O15   H21   S    
C11   O5    A    
N5    H13   S    
C21   C22   A    
N4    H6    S    
N3    H4    S    
C3    C24   A    
C2    C6    S    
C20   C26   A    
C5    N8    S    
C1    C5    S    
N1    Zn2   S    
C16   C18   A    
C17   C19   A    
O1    Zn1   S    
N2    Zn1   S    
N7    H17   S    
O7    Zn2   S    
C18   C20   A    
O2    Zn2   S    
C13   C15   A    
C8    N5    S    
C12   O8    A    
O8    Zn1   S    
C19   C25   A    
C14   C16   A    
N5    H14   S    
O3    Zn2   S    
C7    C8    S    
N6    H16   S    
O11   H9    S    
O16   H22   S    
C17   O9    S    
C1    O1    A    
C26   O12   S    
N1    O16   S    
N4    H5    S    
C13   C23   A    
C2    O2    A    
O10   H8    S    
C9    C10   S    
C9    H2    S    
C14   C24   A    
C5    C7    D    
N8    H20   S    
O6    Zn2   S    
C6    C8    D    
C3    C25   A    
C19   C21   A    
C4    C23   A    
O12   H10   S    
C3    O13   S    
C21   C23   A    
C11   O7    A    
C11   C16   S    
O4    Zn1   S    
C18   O10   S    
C20   C22   A    
N8    H19   S    
N7    H18   S    
