data_mof_unit_61651.cif
_audit_creation_date              2013-03-05T15:59:34-0500
_audit_creation_method            fapswitch 2.2
_symmetry_space_group_name_H-M    P1
_symmetry_Int_Tables_number       1
_space_group_crystal_system       triclinic
_cell_length_a                    8.290573
_cell_length_b                    12.868533
_cell_length_c                    17.381089
_cell_angle_alpha                 98.587524
_cell_angle_beta                  97.447089
_cell_angle_gamma                 98.666399
_cell_volume                      1790.54038108

loop_
_atom_site_label
_atom_site_type_symbol
_atom_site_description
_atom_site_fract_x
_atom_site_fract_y
_atom_site_fract_z
_atom_type_partial_charge
P1    P     P_3+3 0.996360 0.395990 0.320310 0.487698
O1    O     O_2   0.825360 0.427200 0.308020 -0.411450
O2    O     O_3   0.099050 0.435020 0.406000 -0.333717
O3    O     O_3   0.623690 0.628090 0.355970 -0.411225
O4    O     O_2   0.731473 0.554255 0.225434 -0.326817
O5    O     O_3   0.988412 0.258286 0.295549 -0.600110
O6    O     O_3   0.580526 0.712095 0.213964 -0.489901
H1    H     H_    0.675003 0.811670 0.320754 0.154711
C1    C     C_3   0.560133 0.895463 0.237513 -0.860120
H2    H     H_    0.515007 0.955769 0.277936 0.227366
H3    H     H_    0.685186 0.928053 0.227344 0.299686
P2    P     P_3+3 0.688190 0.753610 0.561600 0.456479
P3    P     P_3+3 0.100797 0.822138 0.392417 0.560456
O7    O     O_2   0.857620 0.767930 0.537920 -0.319410
O8    O     O_3   0.055170 0.686660 0.395490 -0.370201
O9    O     O_2   0.987357 0.874865 0.444139 -0.285533
O10   O     O_3   0.735201 0.793539 0.663861 -0.573155
O11   O     O_3   0.019694 0.839049 0.297525 -0.480712
C2    C     C_3   0.132753 0.818640 0.246076 0.181103
H4    H     H_    0.169664 0.739629 0.249983 0.102060
H5    H     H_    0.242035 0.883006 0.261998 0.083368
C3    C     C_3   0.053886 0.816505 0.160281 -0.570517
H6    H     H_    0.950093 0.747726 0.144200 0.181923
C4    C     C_3   0.370978 0.785668 0.677285 0.369050
H7    H     H_    0.475566 0.766018 0.715537 0.088097
H8    H     H_    0.372260 0.755393 0.614251 0.047103
C5    C     C_3   0.385945 0.906222 0.690100 -0.106234
H9    H     H_    0.484629 0.939790 0.658969 0.081093
H10   H     H_    0.418923 0.939281 0.754067 0.147540
Ba1   Ba    Ba6+2 0.843240 0.548600 0.461650 1.643334
C6    C     C_3   0.841295 0.195878 0.304186 0.889304
H11   H     H_    0.772203 0.238801 0.344953 0.020625
C7    C     C_3   0.733010 0.162324 0.223647 -1.048918
H12   H     H_    0.614404 0.113561 0.228582 0.273662
H13   H     H_    0.794523 0.114691 0.181849 0.268541
H14   H     H_    0.707748 0.234120 0.199184 0.244524
C8    C     C_3   0.788597 0.710920 0.698388 0.336795
H15   H     H_    0.896155 0.687681 0.673094 0.129735
H16   H     H_    0.687000 0.641315 0.689247 0.112013
C9    C     C_3   0.840207 0.750232 0.786539 -0.758431
H17   H     H_    0.948487 0.815738 0.797330 0.312774
H18   H     H_    0.873703 0.684424 0.816394 0.219411
H19   H     H_    0.736974 0.780273 0.812402 0.237553
P4    P     P_3+3 0.193350 0.604100 0.679700 0.502688
O12   O     O_2   0.364350 0.572830 0.692030 -0.387871
O13   O     O_3   0.090660 0.565070 0.594010 -0.406842
O14   O     O_3   0.566030 0.372000 0.644040 -0.279424
O15   O     O_3   0.222503 0.742896 0.698901 -0.517194
P5    P     P_3+3 0.091814 0.174580 0.605599 0.587360
O16   O     O_3   0.601410 0.366560 0.460070 -0.416528
O17   O     O_3   0.134540 0.313430 0.604520 -0.367667
O18   O     O_2   0.222670 0.126476 0.562771 -0.277636
O19   O     O_3   0.142321 0.156080 0.703344 -0.483840
Ba2   Ba    Ba6+2 0.346590 0.451490 0.538360 1.644945
P6    P     P_3+3 0.579543 0.594992 0.253615 0.505831
C10   C     C_3   0.566202 0.795273 0.273213 0.526077
H20   H     H_    0.451735 0.775459 0.298627 -0.037469
H21   H     H_    0.477649 0.878780 0.180343 0.266630
O20   O     O_3   0.588300 0.633530 0.539940 -0.416309
C11   C     C_3   0.409520 0.279427 0.298982 0.450191
H22   H     H_    0.307995 0.309039 0.326510 0.130847
H23   H     H_    0.517205 0.345274 0.308823 0.082152
C12   C     C_3   0.352201 0.245002 0.210268 -0.958096
H24   H     H_    0.347272 0.158190 0.191861 0.320924
H25   H     H_    0.227458 0.263790 0.193420 0.237456
H26   H     H_    0.438755 0.287298 0.176903 0.217338
P7    P     P_3+3 0.503607 0.229989 0.433591 0.463684
O21   O     O_2   0.332090 0.232110 0.462130 -0.304078
O22   O     O_3   0.453678 0.192354 0.331382 -0.582889
C13   C     C_3   0.084030 0.233172 0.753848 0.261562
H27   H     H_    0.146617 0.314561 0.750196 0.090472
H28   H     H_    0.949432 0.229123 0.737209 0.034788
C14   C     C_3   0.121466 0.218109 0.840223 -0.074786
H29   H     H_    0.252839 0.250467 0.864308 0.128323
H30   H     H_    0.049397 0.265756 0.876537 0.058631
P8    P     P_3+3 0.615250 0.393578 0.747142 0.514637
C15   C     C_3   0.532541 0.204808 0.793937 0.371530
O23   O     O_2   0.551566 0.497213 0.773114 -0.366549
O24   O     O_3   0.481033 0.303381 0.786057 -0.528071
H31   H     H_    0.417502 0.147994 0.792180 0.139999
H32   H     H_    0.764874 0.232747 0.874969 0.244377
C16   C     C_3   0.631455 0.209162 0.875376 -0.927989
H33   H     H_    0.612785 0.128946 0.892605 0.285203
H34   H     H_    0.590212 0.265910 0.920297 0.261014
C17   C     C_2   0.263165 0.508203 0.275169 -0.444009
C18   C     C_3   0.386315 0.495626 0.218788 0.141336
C19   C     C_2   0.309942 0.502848 0.136133 -0.124123
C20   C     C_2   0.143024 0.486068 0.114923 0.035731
C21   C     C_2   0.038915 0.458267 0.176683 -0.211815
C22   C     C_1   0.108293 0.461983 0.250861 0.298031
C23   C     C_R   0.907210 0.440340 0.858980 -0.296624
C24   C     C_R   0.836609 0.438519 0.781876 0.230423
C25   C     C_R   0.089242 0.541908 0.756289 0.199992
C26   C     C_R   0.164070 0.544081 0.835827 -0.228775
C27   C     C_R   0.070867 0.491120 0.887243 0.103504
C28   C     C_2   0.065841 0.503569 0.034724 -0.069873
C29   C     C_2   0.141665 0.483864 0.969989 -0.249729
C30   C     C_R   0.925610 0.492730 0.733314 -0.401074
H35   H     H_    0.254966 0.451350 0.975923 0.173771
H36   H     H_    0.909869 0.422837 0.158671 0.182388
H37   H     H_    0.832680 0.406151 0.898313 0.149664
H38   H     H_    0.392444 0.524338 0.095259 0.177108
H39   H     H_    0.302462 0.549665 0.335394 0.156402
H40   H     H_    0.860698 0.506059 0.679499 0.143989
C31   C     C_R   0.777463 0.172435 0.519146 -0.362874
C32   C     C_R   0.418757 0.807704 0.468152 -0.437383
C33   C     C_R   0.387064 0.981790 0.438790 -0.207027
C34   C     C_R   0.321576 0.874467 0.434220 0.205563
C35   C     C_R   0.579167 0.847248 0.509493 0.202624
C36   C     C_R   0.646731 0.957525 0.514475 -0.030038
C37   C     C_R   0.548114 0.025073 0.478374 0.074044
C38   C     C_R   0.614394 0.134435 0.482482 0.211958
C39   C     C_R   0.876187 0.109897 0.555584 0.151590
C40   C     C_R   0.809559 0.002552 0.553834 -0.148796
H41   H     H_    0.309505 0.030805 0.411878 0.207225
H42   H     H_    0.885201 0.956326 0.584614 0.224239
H43   H     H_    0.366031 0.724786 0.465334 0.163487
N1    N     N_R   0.230177 0.934842 0.659354 0.286802
O25   O     O_R   0.187010 0.920948 0.583681 -0.378873
O26   O     O_R   0.116850 0.941435 0.704166 -0.306504
N2    N     N_R   0.884219 0.101879 0.334731 0.219869
O27   O     O_R   0.035789 0.084791 0.341914 -0.332092
O28   O     O_R   0.776044 0.040239 0.362392 -0.502051
C41   C     C_2   0.176561 0.799818 0.104054 0.991352
O29   O     O_2   0.197915 0.857943 0.055204 -0.560697
O30   O     O_R   0.265810 0.716742 0.107561 -0.807648
H44   H     H_    0.343282 0.712999 0.066995 0.353697
N3    N     N_R   0.083535 0.106451 0.849570 0.314714
O31   O     O_R   0.203796 0.053206 0.860201 -0.342848
O32   O     O_R   0.943244 0.071269 0.870600 -0.320549
C42   C     C_2   0.609116 0.152641 0.727665 0.851773
O33   O     O_2   0.559784 0.158959 0.659503 -0.602850
O34   O     O_R   0.722278 0.085916 0.744359 -0.778595
H45   H     H_    0.759870 0.049635 0.696037 0.329336
C43   C     C_2   0.915527 0.554766 0.028961 1.036106
O35   O     O_2   0.804491 0.530184 0.066066 -0.634900
O36   O     O_R   0.901646 0.632075 0.980899 -0.780385
H46   H     H_    0.794579 0.660994 0.981768 0.352374
C44   C     C_2   0.328795 0.609827 0.867677 1.129871
O37   O     O_2   0.429571 0.575978 0.910806 -0.646422
O38   O     O_R   0.367081 0.712457 0.850495 -0.770236
H47   H     H_    0.481656 0.750140 0.876632 0.321191
C45   C     C_2   0.848767 0.280381 0.518376 1.060124
O39   O     O_2   0.938915 0.300466 0.470870 -0.592690
O40   O     O_R   0.823664 0.358701 0.576476 -0.785247
H48   H     H_    0.864385 0.430692 0.564633 0.347519
C46   C     C_2   0.988015 0.917681 0.151529 1.206877
O41   O     O_2   0.847978 0.913189 0.117431 -0.637644
O42   O     O_R   0.092195 0.015962 0.177487 -0.770810
H49   H     H_    0.041570 0.077684 0.161289 0.325532

loop_
_geom_bond_atom_site_label_1
_geom_bond_atom_site_label_2
_geom_bond_distance
_ccdc_geom_bond_type
P5    C39   1.891288 S    
C19   C20   1.360691 D    
C12   H25   1.109847 S    
O30   H44   1.014184 S    
C5    H10   1.112101 S    
C14   H29   1.108137 S    
C2    H4    1.114023 S    
P8    O24   1.755926 S    
O6    P6    1.747511 S    
N3    O31   1.301397 A    
H1    C10   1.112795 S    
C20   C28   1.519615 S    
H32   C16   1.103252 S    
C24   C30   1.387693 A    
C43   O35   1.220848 D    
C17   C18   1.513502 S    
Ba1   Ba2   4.545689 S    
O16   Ba2   2.916530 S    
P3    O11   1.756005 S    
C11   C12   1.530458 S    
C15   C16   1.529965 S    
C31   C39   1.391058 A    
C46   O42   1.395885 S    
C4    H8    1.108621 S    
O14   P8    1.755744 S    
C1    H21   1.103196 S    
C8    C9    1.523116 S    
O2    Ba2   2.837017 S    
P5    O19   1.756360 S    
C15   H31   1.104868 S    
Ba2   O21   2.911914 S    
C45   O39   1.213523 D    
C45   O40   1.375719 S    
C7    H14   1.109411 S    
C10   H20   1.109098 S    
C11   H23   1.110614 S    
P1    O1    1.528230 D    
C15   C42   1.505856 S    
C36   C37   1.435913 A    
P1    Ba1   3.409149 S    
P4    C25   1.888227 S    
C25   C26   1.434486 A    
N1    O25   1.295563 A    
P2    O20   1.604730 S    
C9    H19   1.109757 S    
C46   O41   1.222152 D    
P5    O17   1.771848 S    
P2    O10   1.749979 S    
C33   C34   1.392325 A    
C4    C5    1.517673 S    
C13   H27   1.111234 S    
C1    H2    1.108436 S    
C36   C40   1.425689 A    
C17   H39   1.085808 S    
C9    H18   1.108289 S    
O5    C6    1.394060 S    
Ba1   O16   2.838881 S    
C12   H26   1.109911 S    
C28   C29   1.368075 D    
C26   C44   1.484340 S    
C14   H30   1.106306 S    
O6    C10   1.400410 S    
O7    Ba1   2.911713 S    
P3    C34   1.862633 S    
O19   C13   1.408073 S    
P2    C35   1.879132 S    
C29   H35   1.083630 S    
P4    O13   1.585682 S    
O40   H48   0.997652 S    
C28   C43   1.493945 S    
Ba2   O20   2.838304 S    
C15   O24   1.417795 S    
C21   H36   1.083532 S    
P7    O21   1.568217 D    
C4    O15   1.391688 S    
C2    C3    1.543237 S    
C4    H7    1.106649 S    
C6    N2    1.464319 S    
C23   C24   1.386473 A    
C18   C19   1.515026 S    
O11   C2    1.403050 S    
P1    O5    1.749121 S    
C11   H22   1.108695 S    
P1    O2    1.585681 S    
O2    Ba1   2.934868 S    
C8    H15   1.104809 S    
C19   H38   1.084743 S    
C6    H11   1.104075 S    
C17   C22   1.317219 D    
P5    O18   1.545435 D    
Ba1   O20   2.917364 S    
O13   Ba2   2.935703 S    
C13   C14   1.540129 S    
C6    C7    1.526072 S    
C7    H12   1.104544 S    
C1    C10   1.516650 S    
O10   C8    1.396423 S    
C20   C21   1.512316 S    
C1    H3    1.104811 S    
C33   H41   1.078187 S    
N2    O27   1.301457 A    
P8    C24   1.831819 S    
O14   Ba2   2.825920 S    
C9    H17   1.110281 S    
C31   C38   1.399042 A    
P2    O7    1.506974 D    
O12   Ba2   2.859562 S    
C16   H34   1.110855 S    
P3    O8    1.737728 S    
O3    P6    1.743078 S    
O34   H45   1.007529 S    
C42   O33   1.220927 D    
P1    C22   1.843497 S    
P4    O12   1.528597 D    
O8    Ba1   2.785505 S    
C41   O30   1.392934 S    
C39   C40   1.402623 A    
O16   P7    1.786126 S    
C5    N1    1.453328 S    
C43   O36   1.399498 S    
C37   C38   1.419295 A    
P2    Ba1   3.444203 S    
C33   C37   1.410546 A    
O4    P6    1.543869 D    
P8    O23   1.534693 D    
C42   O34   1.395796 S    
N3    O32   1.300884 A    
C31   C45   1.428078 S    
C40   H42   1.074163 S    
C44   O37   1.222522 D    
C27   C29   1.503171 S    
C3    C41   1.515380 S    
C14   N3    1.461741 S    
O36   H46   1.013899 S    
Ba1   O13   2.836411 S    
O1    Ba1   2.859132 S    
O17   Ba2   2.786088 S    
P6    C18   1.862241 S    
C32   H43   1.081818 S    
O38   H47   1.013588 S    
C44   O38   1.396498 S    
C32   C34   1.404218 A    
C11   O22   1.401896 S    
C30   H40   1.067332 S    
C23   H37   1.077099 S    
C7    H13   1.104926 S    
C26   C27   1.436091 A    
N1    O26   1.300223 A    
N2    O28   1.294574 A    
C23   C27   1.404792 A    
C12   H24   1.108219 S    
P4    Ba2   3.409697 S    
P7    C38   1.878258 S    
C3    C46   1.506135 S    
C8    H16   1.110160 S    
C16   H33   1.111479 S    
P3    O9    1.543494 D    
C35   C36   1.430481 A    
C5    H9    1.107610 S    
C3    H6    1.111846 S    
C13   H28   1.107211 S    
P7    O22   1.747532 S    
C21   C22   1.332836 D    
O42   H49   1.011374 S    
C25   C30   1.387699 A    
O3    Ba1   2.826479 S    
P4    O15   1.740956 S    
C41   O29   1.224928 D    
C2    H5    1.106303 S    
C32   C35   1.408201 A    
