data_mof_unit_35815.cif
_audit_creation_date              2013-03-05T15:48:36-0500
_audit_creation_method            fapswitch 2.2
_symmetry_space_group_name_H-M    P1
_symmetry_Int_Tables_number       1
_space_group_crystal_system       triclinic
_cell_length_a                    8.351313
_cell_length_b                    19.012424
_cell_length_c                    18.913829
_cell_angle_alpha                 98.600273
_cell_angle_beta                  94.594685
_cell_angle_gamma                 92.828242
_cell_volume                      2954.06823871

loop_
_atom_site_label
_atom_site_type_symbol
_atom_site_description
_atom_site_fract_x
_atom_site_fract_y
_atom_site_fract_z
_atom_type_partial_charge
P1    P     P_3+3 0.947550 0.663200 0.567530 0.554329
O1    O     O_2   0.118870 0.674530 0.547560 -0.315881
O2    O     O_3   0.870460 0.585330 0.542110 -0.351025
O3    O     O_3   0.354280 0.631750 0.418430 -0.347303
O4    O     O_2   0.259278 0.753810 0.469714 -0.385288
O5    O     O_3   0.988599 0.696312 0.662456 -0.570987
O6    O     O_3   0.294504 0.747625 0.335000 -0.516222
H1    H     H_    0.472528 0.700578 0.276658 0.047072
C1    C     C_3   0.302170 0.746707 0.205298 0.446997
P2    P     P_3+3 0.354660 0.445020 0.336980 0.450696
P3    P     P_3+3 0.910011 0.598355 0.290070 0.512733
O7    O     O_2   0.180880 0.466650 0.327890 -0.391544
O8    O     O_3   0.939000 0.596010 0.380670 -0.410408
O9    O     O_2   0.040549 0.553704 0.255093 -0.318844
O10   O     O_3   0.370839 0.356854 0.294989 -0.657730
O11   O     O_3   0.956293 0.686774 0.279696 -0.456382
C2    C     C_3   0.909486 0.731530 0.339690 0.453623
H2    H     H_    0.976488 0.721786 0.390025 0.141870
H3    H     H_    0.778541 0.722304 0.343386 -0.015021
C3    C     C_3   0.948676 0.809173 0.333107 -0.814800
H4    H     H_    0.073393 0.826045 0.355666 0.296789
H5    H     H_    0.933345 0.816781 0.276146 0.298479
C4    C     C_3   0.782103 0.382164 0.311157 0.347789
H6    H     H_    0.691127 0.408228 0.343964 0.087526
H7    H     H_    0.886211 0.420938 0.313003 0.115758
C5    C     C_3   0.703646 0.361600 0.233512 -0.469436
H8    H     H_    0.609779 0.318333 0.232529 0.202898
H9    H     H_    0.642814 0.407322 0.217189 0.172077
Ba1   Ba    Ba6+2 0.152460 0.535140 0.468980 1.606051
C6    C     C_3   0.986240 0.655155 0.719610 0.850547
C7    C     C_3   0.843334 0.675229 0.765891 -0.495816
H10   H     H_    0.835218 0.641327 0.808740 0.213972
H11   H     H_    0.735071 0.659715 0.730391 0.214930
C8    C     C_3   0.297120 0.300482 0.322957 0.451571
H12   H     H_    0.270421 0.316267 0.379647 0.082240
C9    C     C_3   0.418750 0.241559 0.316613 -0.127647
H13   H     H_    0.441101 0.226227 0.259308 0.116867
H14   H     H_    0.534242 0.263825 0.345304 0.145668
P4    P     P_3+3 0.862750 0.336790 0.432410 0.462900
O12   O     O_2   0.691430 0.325420 0.452420 -0.360649
O13   O     O_3   0.939830 0.414660 0.457830 -0.377065
O14   O     O_3   0.456020 0.368240 0.581510 -0.388842
O15   O     O_3   0.829867 0.320829 0.338214 -0.606111
P5    P     P_3+3 0.898631 0.387074 0.708167 0.554315
O16   O     O_3   0.374170 0.535780 0.585810 -0.362896
O17   O     O_3   0.871300 0.403980 0.619270 -0.312425
O18   O     O_2   0.769460 0.430564 0.746422 -0.330870
O19   O     O_3   0.826275 0.300144 0.713962 -0.547786
Ba2   Ba    Ba6+2 0.657710 0.464850 0.530960 1.619133
P6    P     P_3+3 0.380034 0.723790 0.417057 0.451545
C10   C     C_3   0.401246 0.748809 0.280057 0.366466
H15   H     H_    0.389908 0.742632 0.164762 -0.027815
O20   O     O_3   0.436130 0.464210 0.414140 -0.384548
C11   C     C_3   0.506667 0.675284 0.633709 0.437314
H16   H     H_    0.597210 0.643931 0.604896 0.072320
H17   H     H_    0.397589 0.674411 0.596403 0.179393
C12   C     C_3   0.578054 0.752051 0.652974 -0.986667
H18   H     H_    0.525043 0.781026 0.699826 0.284670
H19   H     H_    0.709916 0.753452 0.664343 0.240756
H20   H     H_    0.556611 0.781174 0.607001 0.270738
P7    P     P_3+3 0.449580 0.554164 0.675477 0.460506
O21   O     O_2   0.629420 0.533310 0.672080 -0.338807
O22   O     O_3   0.465573 0.647528 0.695789 -0.602595
H21   H     H_    0.869796 0.844607 0.364084 0.190234
C13   C     C_3   0.939424 0.249351 0.697168 0.918356
H22   H     H_    0.031697 0.267932 0.663817 -0.213652
C14   C     C_3   0.846147 0.183705 0.653489 -0.842525
H23   H     H_    0.793179 0.197011 0.601935 0.251275
H24   H     H_    0.926426 0.139468 0.642680 0.203713
H25   H     H_    0.746861 0.165401 0.683422 0.270453
P8    P     P_3+3 0.430617 0.276896 0.578913 0.501524
C15   C     C_3   0.430037 0.305077 0.715883 0.416936
H26   H     H_    0.297154 0.302931 0.705431 0.018805
O23   O     O_2   0.552971 0.243554 0.528615 -0.309129
O24   O     O_3   0.497971 0.258115 0.663714 -0.521963
H27   H     H_    0.480804 0.360325 0.716944 0.132758
H28   H     H_    0.417884 0.229298 0.790551 0.266437
C16   C     C_3   0.470109 0.283937 0.789392 -0.797627
H29   H     H_    0.419428 0.321775 0.831099 0.221706
H30   H     H_    0.602430 0.285293 0.801854 0.271539
C17   C     C_R   0.998887 0.955406 0.530254 0.030925
C18   C     C_R   0.098503 0.906410 0.555794 -0.269850
C19   C     C_R   0.188337 0.058080 0.581692 -0.119057
C20   C     C_R   0.049784 0.028781 0.537432 0.107744
C21   C     C_R   0.242802 0.128516 0.584572 -0.069766
C22   C     C_R   0.161243 0.173647 0.544268 0.040309
C23   C     C_R   0.014265 0.147729 0.503892 0.026796
C24   C     C_R   0.957074 0.075002 0.501516 0.046335
C25   C     C_R   0.221022 0.244375 0.544538 0.201994
C26   C     C_R   0.124886 0.291201 0.512382 -0.456661
C27   C     C_R   0.976232 0.268236 0.474262 0.240337
C28   C     C_R   0.923615 0.194477 0.466958 -0.076944
C29   C     C_R   0.842138 0.930953 0.500618 0.021061
C30   C     C_R   0.787826 0.857754 0.500314 -0.000017
C31   C     C_R   0.890000 0.809109 0.530247 -0.207757
C32   C     C_R   0.040380 0.838747 0.563981 0.468406
H31   H     H_    0.169616 0.345928 0.514505 0.170687
H32   H     H_    0.350671 0.146435 0.618885 0.173507
C33   C     C_R   0.787097 0.164965 0.422285 -0.079342
C34   C     C_R   0.732169 0.093682 0.419820 -0.035619
C35   C     C_R   0.806619 0.049271 0.464529 0.044079
C36   C     C_R   0.739868 0.979491 0.471851 -0.090198
C37   C     C_R   0.574163 0.956831 0.455211 0.302440
C38   C     C_R   0.629485 0.834381 0.472193 -0.026778
C39   C     C_R   0.522630 0.885498 0.455644 -0.310608
C40   C     C_R   0.582238 0.760623 0.460684 0.185086
C41   C     C_R   0.687974 0.712132 0.485168 -0.506546
C42   C     C_R   0.837712 0.734215 0.523547 0.199997
H33   H     H_    0.723219 0.196210 0.387696 0.156699
H34   H     H_    0.396280 0.870322 0.442055 0.210848
H35   H     H_    0.648891 0.656220 0.477589 0.165234
H36   H     H_    0.256449 0.028333 0.616546 0.136880
H37   H     H_    0.221398 0.921281 0.576635 0.168117
H38   H     H_    0.631317 0.073578 0.381652 0.188424
C43   C     C_R   0.604561 0.538156 0.305352 -0.506649
C44   C     C_R   0.457028 0.501451 0.280239 0.369378
C45   C     C_R   0.405076 0.494483 0.206802 -0.152036
C46   C     C_R   0.502538 0.521237 0.157759 0.053276
C47   C     C_R   0.657013 0.551723 0.183653 -0.351695
C48   C     C_R   0.706165 0.561559 0.256952 0.233972
C49   C     C_R   0.465954 0.568597 0.036896 0.229778
C50   C     C_R   0.410851 0.554915 0.963484 -0.188798
C51   C     C_R   0.336198 0.488995 0.931020 0.118801
C52   C     C_R   0.314002 0.435603 0.973471 -0.163712
C53   C     C_R   0.368193 0.447461 0.046379 -0.206624
C54   C     C_R   0.445681 0.513145 0.079463 0.116219
C55   C     C_R   0.145492 0.435845 0.822951 -0.170931
C56   C     C_R   0.105514 0.422642 0.748272 0.263084
C57   C     C_R   0.342917 0.498106 0.732344 0.263483
C58   C     C_R   0.385864 0.507113 0.805844 -0.322340
C59   C     C_R   0.289395 0.475803 0.852144 0.026868
C60   C     C_R   0.211757 0.450266 0.703364 -0.347915
H39   H     H_    0.493888 0.539882 0.826616 0.152511
H40   H     H_    0.425171 0.596192 0.930716 0.135348
H41   H     H_    0.290291 0.466427 0.187701 0.141492
H42   H     H_    0.259006 0.383766 0.949851 0.159346
H43   H     H_    0.352996 0.403971 0.076745 0.128383
H44   H     H_    0.062117 0.417450 0.858197 0.159049
H45   H     H_    0.740941 0.566594 0.147003 0.168247
H46   H     H_    0.183331 0.439997 0.645813 0.172884
H47   H     H_    0.646509 0.542801 0.361562 0.165172
C61   C     C_3   0.814215 0.336340 0.175021 -0.300833
C62   C     C_3   0.935049 0.394576 0.161210 -0.826538
H48   H     H_    0.871749 0.441159 0.147010 0.266574
H49   H     H_    0.021178 0.411767 0.208796 0.269298
H50   H     H_    0.004429 0.373641 0.115775 0.237948
H51   H     H_    0.875610 0.288882 0.186960 0.219154
H52   H     H_    0.736908 0.318842 0.124161 0.207805
C63   C     C_3   0.144192 0.667911 0.771369 -0.418801
C64   C     C_3   0.234719 0.740639 0.780044 -0.660694
H53   H     H_    0.272983 0.749957 0.727944 0.320455
H54   H     H_    0.163155 0.784530 0.802326 0.263507
H55   H     H_    0.344734 0.740970 0.817255 0.211854
H56   H     H_    0.121084 0.655893 0.825511 0.169808
H57   H     H_    0.228697 0.628251 0.753356 0.207982
N1    N     N_R   0.969249 0.579519 0.693290 0.197074
O25   O     O_R   0.056984 0.552875 0.643523 -0.392637
O26   O     O_R   0.931936 0.540172 0.740196 -0.457498
C65   C     C_3   0.834969 0.753656 0.800733 -0.293937
C66   C     C_3   0.889728 0.766829 0.881105 -0.817774
H58   H     H_    0.809375 0.735360 0.910412 0.254441
H59   H     H_    0.014877 0.752153 0.891989 0.265131
H60   H     H_    0.883024 0.824184 0.902395 0.264345
H61   H     H_    0.901254 0.790615 0.772070 0.266281
H62   H     H_    0.707343 0.767446 0.796557 0.215967
C67   C     C_3   0.144047 0.276666 0.272985 -0.419926
C68   C     C_3   0.052096 0.209073 0.286702 -0.767299
H63   H     H_    0.103745 0.161099 0.258779 0.286890
H64   H     H_    0.056164 0.206598 0.344660 0.259816
H65   H     H_    0.924475 0.207591 0.265015 0.247735
H66   H     H_    0.066947 0.321873 0.279370 0.232790
H67   H     H_    0.173344 0.268732 0.216070 0.201949
N2    N     N_R   0.194132 0.682773 0.185903 0.257867
O27   O     O_R   0.057747 0.685022 0.147983 -0.344010
O28   O     O_R   0.253204 0.621254 0.187598 -0.422966
N3    N     N_R   0.368592 0.177824 0.345397 0.243946
O29   O     O_R   0.369179 0.115435 0.306289 -0.357907
O30   O     O_R   0.342460 0.181855 0.412448 -0.367794
C69   C     C_3   0.520392 0.815679 0.295273 -0.457476
C70   C     C_3   0.611266 0.832297 0.231870 -0.887440
H68   H     H_    0.670555 0.784546 0.207735 0.264632
H69   H     H_    0.529710 0.851195 0.190429 0.286963
H70   H     H_    0.703728 0.876439 0.250898 0.282580
H71   H     H_    0.459381 0.863756 0.316084 0.283003
H72   H     H_    0.611590 0.806999 0.336969 0.184388
N4    N     N_R   0.214890 0.811025 0.197407 0.242056
O31   O     O_R   0.159626 0.820895 0.133551 -0.358395
O32   O     O_R   0.206778 0.862153 0.250657 -0.382010
N5    N     N_R   0.018471 0.231260 0.763782 0.214003
O33   O     O_R   0.093613 0.280985 0.811028 -0.477334
O34   O     O_R   0.014830 0.165976 0.777140 -0.394136
N6    N     N_R   0.119417 0.812035 0.622127 0.253843
O35   O     O_R   0.073324 0.834786 0.685080 -0.440526
O36   O     O_R   0.269414 0.799137 0.617844 -0.435950
N7    N     N_R   0.452726 0.006372 0.446037 0.234866
O37   O     O_R   0.459831 0.066961 0.488634 -0.377034
O38   O     O_R   0.322882 0.986990 0.403368 -0.346662
C71   C     C_3   0.552394 0.640714 0.066928 -0.388653
C72   C     C_3   0.489838 0.703809 0.033279 -0.829619
H73   H     H_    0.529556 0.703356 0.978612 0.239410
H74   H     H_    0.356404 0.702967 0.031159 0.282475
H75   H     H_    0.540955 0.754537 0.065929 0.261914
H76   H     H_    0.541235 0.653347 0.125227 0.210642
H77   H     H_    0.682281 0.637833 0.058768 0.213132

loop_
_geom_bond_atom_site_label_1
_geom_bond_atom_site_label_2
_geom_bond_distance
_ccdc_geom_bond_type
C62   H50   1.110350 S    
C39   H34   1.080301 S    
C43   H47   1.081667 S    
C67   H67   1.112976 S    
C29   C30   1.441347 A    
O7    Ba1   2.822381 S    
C45   C46   1.415229 A    
C31   C32   1.412832 A    
C1    C10   1.574140 S    
C15   H27   1.109909 S    
C38   C40   1.417715 A    
C17   C18   1.392805 A    
O2    Ba2   2.800369 S    
C51   C52   1.399467 A    
P4    O13   1.575083 S    
Ba1   Ba2   4.575116 S    
C21   C22   1.396933 A    
O17   Ba2   2.759608 S    
C5    H8    1.104983 S    
C35   C36   1.443742 A    
O1    Ba1   2.876288 S    
O8    Ba1   2.758939 S    
C9    H13   1.112586 S    
C62   H48   1.109308 S    
C8    H12   1.112714 S    
P2    O10   1.760745 S    
C6    C7    1.564803 S    
P3    O9    1.544563 D    
C16   H30   1.109504 S    
C12   H19   1.103216 S    
C40   C41   1.409499 A    
O12   Ba2   2.876843 S    
C33   H33   1.075681 S    
C2    C3    1.521687 S    
C4    O15   1.404470 S    
C44   C45   1.406325 A    
N5    O34   1.302564 A    
P1    O1    1.522039 D    
C4    C5    1.545209 S    
P4    C27   1.879852 S    
P7    O22   1.755215 S    
P2    O20   1.543706 S    
C46   C47   1.407180 A    
C50   H40   1.078133 S    
C15   C16   1.520662 S    
C21   H32   1.076432 S    
N1    O26   1.289801 A    
C61   C62   1.526749 S    
C65   C66   1.531711 S    
C70   H69   1.109138 S    
O11   C2    1.406968 S    
C13   C14   1.529591 S    
C64   H55   1.110869 S    
C72   H75   1.110309 S    
C41   C42   1.406617 A    
C7    H11   1.082815 S    
C1    N2    1.459975 S    
C71   C72   1.534241 S    
C55   H44   1.082408 S    
O19   C13   1.404555 S    
P5    O18   1.550823 D    
C26   H31   1.081906 S    
O3    Ba1   2.758006 S    
C27   C28   1.431868 A    
C70   H70   1.109637 S    
P7    C57   1.867865 S    
C57   C60   1.408523 A    
C51   C59   1.492059 S    
C6    N1    1.445788 S    
C30   C38   1.409835 A    
C72   H73   1.109837 S    
N2    O27   1.302541 A    
C23   C28   1.420722 A    
P7    O21   1.575955 D    
C1    H15   1.099342 S    
C37   N7    1.435529 S    
C15   O24   1.403164 S    
C10   C69   1.552139 S    
P3    C48   1.833146 S    
C56   C60   1.411635 A    
O13   Ba2   2.953647 S    
C38   C39   1.403786 A    
P5    O17   1.757799 S    
C24   C35   1.415507 A    
C68   H65   1.108394 S    
C12   H18   1.107091 S    
N2    O28   1.295402 A    
C11   H17   1.104537 S    
C18   C32   1.387252 A    
C52   H42   1.082881 S    
C14   H23   1.107336 S    
C66   H60   1.110273 S    
C61   H52   1.111959 S    
C34   H38   1.079309 S    
O6    P6    1.785774 S    
C68   H64   1.102120 S    
C1    N4    1.474469 S    
P4    O12   1.522400 D    
C16   H29   1.110291 S    
C6    C63   1.564527 S    
P4    O15   1.758778 S    
O14   Ba2   2.757347 S    
C53   H43   1.083044 S    
H28   C16   1.110630 S    
O5    C6    1.426944 S    
C65   H62   1.109635 S    
Ba1   O16   2.765044 S    
P1    O2    1.575111 S    
C66   H59   1.106383 S    
C3    H21   1.103926 S    
C63   H56   1.111474 S    
C19   H36   1.077585 S    
C17   C29   1.410113 A    
P3    O11   1.749449 S    
C19   C20   1.411273 A    
P8    C25   1.859986 S    
O16   Ba2   2.965166 S    
C4    H6    1.108397 S    
P1    Ba1   3.449000 S    
C2    H2    1.109692 S    
C30   C31   1.435629 A    
C37   C39   1.403881 A    
H1    C10   1.114324 S    
C49   C50   1.408957 A    
P2    O7    1.531337 D    
N4    O31   1.301509 A    
N3    O29   1.301115 A    
C19   C21   1.384658 A    
C13   N5    1.469784 S    
C9    N3    1.457377 S    
C71   H77   1.110684 S    
C67   C68   1.530599 S    
C64   H54   1.102526 S    
O4    P6    1.543505 D    
C58   H39   1.082084 S    
N4    O32   1.299425 A    
C55   C56   1.407002 A    
C45   H41   1.081842 S    
C68   H63   1.108221 S    
C17   C20   1.421559 A    
P2    C44   1.853251 S    
C70   H68   1.111037 S    
P6    C40   1.873531 S    
C69   H71   1.104773 S    
N5    O33   1.298085 A    
C62   H49   1.104247 S    
C11   H16   1.112399 S    
P5    C56   1.881245 S    
Ba2   O21   2.822497 S    
O10   C8    1.401470 S    
Ba1   O13   2.799782 S    
C22   C23   1.417824 A    
C41   H35   1.081568 S    
C61   H51   1.102739 S    
C7    H10   1.112453 S    
C20   C24   1.412292 A    
C18   H37   1.077913 S    
C3    H5    1.106511 S    
C15   H26   1.109171 S    
C12   H20   1.106148 S    
C22   C25   1.410240 A    
C29   C36   1.424993 A    
P8    O23   1.546053 D    
C47   C48   1.396144 A    
P4    Ba2   3.449625 S    
C50   C51   1.402817 A    
C69   H72   1.088273 S    
C69   C70   1.532750 S    
C60   H46   1.081574 S    
P1    O5    1.810913 S    
C5    H9    1.098996 S    
C64   H53   1.096169 S    
C33   C34   1.402008 A    
C14   H25   1.111219 S    
C47   H45   1.081035 S    
N6    O35   1.299546 A    
C32   N6    1.409581 S    
C9    H14   1.100504 S    
C58   C59   1.411343 A    
C57   C58   1.390460 A    
O6    C10   1.424255 S    
C49   C54   1.430554 A    
C13   H22   1.110931 S    
C8    C67   1.534231 S    
C63   C64   1.523012 S    
C66   H58   1.111170 S    
P8    O24   1.750132 S    
P3    O8    1.718852 S    
P2    Ba1   3.420812 S    
O2    Ba1   2.952793 S    
C26   C27   1.400225 A    
C53   C54   1.411221 A    
Ba1   O20   2.966023 S    
Ba2   O20   2.764249 S    
O16   P7    1.739219 S    
O14   P8    1.732024 S    
C2    H3    1.108393 S    
C8    C9    1.546866 S    
C4    H7    1.106688 S    
C63   H57   1.094019 S    
C36   C37   1.424974 A    
C55   C59   1.415792 A    
C49   C71   1.525586 S    
C31   C42   1.452625 A    
P1    C42   1.921529 S    
N7    O37   1.299096 A    
P5    O19   1.753551 S    
C67   H66   1.097248 S    
N1    O25   1.297693 A    
C3    H4    1.106655 S    
C23   C24   1.433464 A    
C43   C48   1.401785 A    
C11   O22   1.416666 S    
O3    P6    1.756825 S    
C71   H76   1.105297 S    
C72   H74   1.111087 S    
C65   H61   1.103496 S    
C52   C53   1.397910 A    
C34   C35   1.412704 A    
C46   C54   1.501381 S    
C14   H24   1.106711 S    
C25   C26   1.400480 A    
C5    C61   1.534838 S    
C7    C65   1.544757 S    
C43   C44   1.397470 A    
C28   C33   1.403330 A    
N6    O36   1.294808 A    
N3    O30   1.295668 A    
N7    O38   1.301682 A    
C11   C12   1.529279 S    
