data_mof_unit_20102.cif
_audit_creation_date              2012-10-26T18:25:40-0400
_audit_creation_method            fapswitch 2.2
_symmetry_space_group_name_H-M    P1
_symmetry_Int_Tables_number       1
_space_group_crystal_system       triclinic
_cell_length_a                    7.441483
_cell_length_b                    8.694289
_cell_length_c                    10.878468
_cell_angle_alpha                 89.276194
_cell_angle_beta                  74.351361
_cell_angle_gamma                 103.116813
_cell_volume                      657.999797694

loop_
_atom_site_label
_atom_site_type_symbol
_atom_type_description
_atom_site_fract_x
_atom_site_fract_y
_atom_site_fract_z
_atom_type_partial_charge
C1    C     C_R   0.451997 0.199581 0.503655 0.551289
C2    C     C_2   0.575092 0.968485 0.493275 -0.110945
C3    C     C_2   0.328102 0.663245 0.141995 0.234454
C4    C     C_2   0.675542 0.746967 0.851864 0.268316
C5    C     C_R   0.548221 0.800474 0.495332 0.587874
C6    C     C_R   0.427698 0.499011 0.742390 0.595305
C7    C     C_R   0.574336 0.515818 0.256658 0.553384
C8    C     C_2   0.397833 0.507329 0.880019 0.090234
C9    C     C_2   0.608310 0.538734 0.117279 0.048829
C10   C     C_2   0.520508 0.613600 0.927920 0.083532
C11   C     C_2   0.492901 0.604615 0.066304 0.032104
C12   C     C_2   0.425223 0.031584 0.505135 -0.135245
Cu1   Cu    Cu3+1 0.688910 0.517800 0.485820 1.013807
Cu2   Cu    Cu3+1 0.311090 0.482200 0.514180 0.990618
H1    H     H_    0.280984 0.959469 0.516061 0.143677
H2    H     H_    0.263458 0.279727 0.942739 0.243513
H3    H     H_    0.719324 0.040578 0.482375 0.143517
H4    H     H_    0.918397 0.367805 0.592804 0.247318
H5    H     H_    0.080140 0.636709 0.412139 0.239257
H6    H     H_    0.210239 0.583696 0.210916 0.139112
H7    H     H_    0.795116 0.798968 0.889204 0.123625
H8    H     H_    0.894538 0.559387 0.053338 0.252978
H9    H     H_    0.758112 0.374007 0.057359 0.245665
H10   H     H_    0.114980 0.400565 0.945115 0.246804
N1    N     N_2   0.027170 0.455360 0.535550 -0.255374
N2    N     N_2   0.972830 0.544640 0.464450 -0.260884
N3    N     N_3   0.770297 0.493670 0.034076 -0.655132
N4    N     N_3   0.242373 0.392180 0.964731 -0.656020
O1    O     O_R   0.622710 0.286400 0.490790 -0.513158
O2    O     O_2   0.666267 0.806301 0.752257 -0.503416
O3    O     O_R   0.377290 0.713600 0.509210 -0.514233
O4    O     O_R   0.303660 0.256330 0.514730 -0.492867
O5    O     O_R   0.696340 0.743670 0.485270 -0.465729
O6    O     O_R   0.600900 0.509520 0.671740 -0.476922
O7    O     O_R   0.399100 0.490480 0.328260 -0.526112
O8    O     O_R   0.281840 0.479450 0.695690 -0.496985
O9    O     O_R   0.718160 0.520550 0.304310 -0.496805
O10   O     O_2   0.317989 0.798787 0.120926 -0.515387

loop_
_geom_bond_atom_site_label_1
_geom_bond_atom_site_label_2
_ccdc_geom_bond_type
H2    N4    S    
Cu1   O5    S    
H9    N3    S    
Cu1   O9    S    
C12   H1    S    
Cu2   O3    S    
C2    C12   D    
C1    O1    A    
C7    O9    A    
Cu1   O6    S    
Cu1   Cu2   S    
C2    H3    S    
C4    H7    S    
C9    C11   D    
H4    N1    S    
Cu1   O1    S    
C6    O8    A    
H8    N3    S    
Cu2   N1    S    
Cu2   O8    S    
C8    N4    S    
C4    O2    D    
Cu1   N2    S    
C2    C5    S    
C3    C11   S    
C10   C11   S    
C4    C10   S    
H10   N4    S    
C3    H6    S    
C9    N3    S    
C8    C10   D    
Cu2   O7    S    
C7    C9    S    
H5    N2    S    
C6    C8    S    
N1    N2    D    
C7    O7    A    
C1    O4    A    
C1    C12   S    
C6    O6    A    
C3    O10   D    
Cu2   O4    S    
C5    O3    A    
C5    O5    A    
