data_mof_unit_66508.cif
_audit_creation_date              2012-12-10T17:58:22-0500
_audit_creation_method            fapswitch 2.2
_symmetry_space_group_name_H-M    P1
_symmetry_Int_Tables_number       1
_space_group_crystal_system       triclinic
_cell_length_a                    38.5217
_cell_length_b                    21.611385
_cell_length_c                    21.589752
_cell_angle_alpha                 90.013292
_cell_angle_beta                  124.123928
_cell_angle_gamma                 89.989764
_cell_volume                      14879.0367078

loop_
_atom_site_label
_atom_site_type_symbol
_atom_type_description
_atom_site_fract_x
_atom_site_fract_y
_atom_site_fract_z
_atom_type_partial_charge
C1    C     C_R   0.999982 0.999967 0.120236 0.858815
C2    C     C_3   0.774348 0.002744 0.841716 -0.395066
C3    C     C_3   0.274281 0.558234 0.740581 -0.392064
C4    C     C_3   0.274274 0.058486 0.307568 -0.394002
C5    C     C_3   0.725722 0.056989 0.689887 -0.393858
C6    C     C_3   0.774274 0.558333 0.307837 -0.393991
C7    C     C_3   0.225721 0.558287 0.692080 -0.393995
C8    C     C_1   0.374363 0.000135 0.374310 -0.186992
C9    C     C_1   0.625637 0.000154 0.625691 -0.187010
C10   C     C_1   0.874363 0.500136 0.374310 -0.186992
C11   C     C_1   0.125637 0.500148 0.625691 -0.186990
C12   C     C_3   0.208888 0.000027 0.208826 0.357715
C13   C     C_3   0.725653 0.500055 0.158252 -0.395018
C14   C     C_3   0.791113 0.000043 0.791176 0.357830
C15   C     C_3   0.708888 0.500027 0.208826 0.357716
C16   C     C_3   0.291113 0.500043 0.791176 0.357744
C17   C     C_3   0.274319 0.941997 0.308151 -0.394261
C18   C     C_3   0.725686 0.940555 0.694430 -0.394332
C19   C     C_3   0.774320 0.441842 0.307883 -0.394272
C20   C     C_3   0.225687 0.441796 0.692204 -0.394276
C21   C     C_3   0.291091 0.000092 0.290976 0.357855
C22   C     C_3   0.708910 0.000115 0.709025 0.357953
C23   C     C_3   0.791091 0.500093 0.290976 0.357856
C24   C     C_3   0.274347 0.500193 0.841750 -0.395089
C25   C     C_3   0.208910 0.500107 0.709025 0.357856
C26   C     C_3   0.968924 0.819228 0.359686 -0.394186
C27   C     C_3   0.957279 0.780945 0.290368 -0.381313
C28   C     C_3   0.943931 0.822887 0.223454 -0.851082
C29   C     C_3   0.031264 0.819162 0.640766 -0.397494
C30   C     C_3   0.044650 0.780838 0.710862 -0.381336
C31   C     C_3   0.058774 0.822725 0.778200 -0.854349
C32   C     C_3   0.468924 0.319228 0.359686 -0.394186
C33   C     C_3   0.457278 0.280945 0.290368 -0.381316
C34   C     C_3   0.443930 0.322887 0.223453 -0.851075
C35   C     C_1   0.336824 0.000119 0.336712 -0.123251
C36   C     C_3   0.531264 0.319162 0.640766 -0.397494
C37   C     C_3   0.544650 0.280838 0.710862 -0.381336
C38   C     C_3   0.558774 0.322725 0.778200 -0.854349
C39   C     C_1   0.663177 0.000143 0.663289 -0.123244
C40   C     C_1   0.836824 0.500120 0.336712 -0.123252
C41   C     C_1   0.163177 0.500134 0.663289 -0.123262
C42   C     C_1   0.163153 0.999999 0.163125 -0.123197
C43   C     C_1   0.836847 0.000012 0.836877 -0.123195
C44   C     C_1   0.663153 0.499999 0.163125 -0.123198
C45   C     C_R   0.000022 0.999953 0.879757 0.859019
C46   C     C_1   0.336847 0.500015 0.836877 -0.123213
C47   C     C_1   0.125615 0.999993 0.125611 -0.186307
C48   C     C_1   0.874386 0.000003 0.874390 -0.186353
C49   C     C_1   0.625615 0.499993 0.125611 -0.186308
C50   C     C_1   0.374386 0.500004 0.874390 -0.186334
C51   C     C_R   0.973193 0.040198 0.191193 -0.187854
C52   C     C_R   0.026306 0.040819 0.808266 -0.187619
C53   C     C_R   0.473194 0.540198 0.191193 -0.187854
C54   C     C_R   0.526306 0.540819 0.808266 -0.187619
C55   C     C_R   0.972687 0.039395 0.254653 -0.186548
C56   C     C_R   0.499982 0.499967 0.120236 0.858815
C57   C     C_R   0.026810 0.040023 0.744809 -0.187021
C58   C     C_R   0.472687 0.539395 0.254653 -0.186548
C59   C     C_R   0.526810 0.540023 0.744809 -0.187022
C60   C     C_R   0.999876 0.999587 0.313423 -0.003177
C61   C     C_R   0.000144 0.999520 0.686562 -0.002446
C62   C     C_R   0.499876 0.499586 0.313423 -0.003175
C63   C     C_R   0.500144 0.499520 0.686562 -0.002446
C64   C     C_R   0.026936 0.959672 0.308893 -0.207329
C65   C     C_R   0.973632 0.958887 0.691621 -0.205950
C66   C     C_R   0.526936 0.459672 0.308893 -0.207330
C67   C     C_R   0.500022 0.499953 0.879757 0.859019
C68   C     C_R   0.473632 0.458888 0.691621 -0.205950
C69   C     C_R   0.026490 0.959083 0.244469 -0.196773
C70   C     C_R   0.974082 0.958329 0.756045 -0.195840
C71   C     C_R   0.526490 0.459083 0.244469 -0.196772
C72   C     C_R   0.474082 0.458329 0.756045 -0.195839
C73   C     C_R   0.081106 0.999998 0.081125 0.908971
C74   C     C_R   0.918894 0.000001 0.918875 0.908974
C75   C     C_R   0.581106 0.499998 0.081125 0.908970
C76   C     C_R   0.418894 0.500001 0.918875 0.908971
C77   C     C_R   0.999912 0.999799 0.186281 -0.001173
C78   C     C_3   0.274215 0.999759 0.206783 -0.391655
C79   C     C_R   0.000112 0.999748 0.813712 -0.002691
C80   C     C_R   0.499912 0.499800 0.186281 -0.001173
C81   C     C_R   0.500112 0.499748 0.813712 -0.002692
C82   C     C_R   0.500054 0.186960 0.500078 -0.096062
C83   C     C_R   0.000054 0.686960 0.500078 -0.096062
C84   C     C_R   0.500004 0.879886 0.499991 0.859209
C85   C     C_R   0.000004 0.379886 0.499991 0.859208
C86   C     C_R   0.418875 0.000161 0.418884 0.911358
C87   C     C_R   0.581125 0.000168 0.581116 0.911270
C88   C     C_R   0.918875 0.500161 0.418884 0.911357
C89   C     C_3   0.725787 0.002763 0.793187 -0.391613
C90   C     C_R   0.081125 0.500166 0.581116 0.911267
C91   C     C_R   0.500015 0.120602 0.500022 0.884808
C92   C     C_R   0.000015 0.620602 0.500022 0.884811
C93   C     C_R   0.999999 0.879758 0.500149 0.854038
C94   C     C_R   0.499999 0.379758 0.500149 0.854038
C95   C     C_R   0.999979 0.999753 0.379598 0.859349
C96   C     C_R   0.000022 0.999711 0.620394 0.859136
C97   C     C_R   0.499979 0.499753 0.379598 0.859348
C98   C     C_R   0.500023 0.499711 0.620394 0.859136
C99   C     C_R   0.999993 0.120379 0.499990 0.867744
C100  C     C_3   0.774215 0.500069 0.206782 -0.391656
C101  C     C_R   0.499993 0.620379 0.499990 0.867744
C102  C     C_R   0.526850 0.782087 0.486699 -0.187108
C103  C     C_R   0.473160 0.782109 0.513231 -0.186368
C104  C     C_R   0.026849 0.282087 0.486698 -0.187109
C105  C     C_R   0.973160 0.282109 0.513232 -0.186367
C106  C     C_R   0.027297 0.218144 0.487882 -0.187939
C107  C     C_R   0.972662 0.218166 0.512065 -0.188803
C108  C     C_R   0.527297 0.718144 0.487883 -0.187938
C109  C     C_R   0.472662 0.718166 0.512064 -0.188803
C110  C     C_3   0.225760 0.941940 0.259594 -0.392667
C111  C     C_3   0.225786 0.500206 0.793219 -0.391633
C112  C     C_3   0.774246 0.940497 0.742988 -0.392477
C113  C     C_3   0.725760 0.441785 0.259326 -0.392655
C114  C     C_3   0.274247 0.441740 0.740761 -0.392618
C115  C     C_R   0.000009 0.186507 0.499968 -0.011893
C116  C     C_R   0.500009 0.686507 0.499968 -0.011894
C117  C     C_R   0.499980 0.813750 0.499980 -0.005616
C118  C     C_R   0.999979 0.313750 0.499980 -0.005616
C119  C     C_R   0.484755 0.218389 0.432962 -0.193889
C120  C     C_R   0.515385 0.218357 0.567251 -0.193248
C121  C     C_R   0.984755 0.718388 0.432962 -0.193890
C122  C     C_3   0.225653 0.999745 0.158253 -0.395017
C123  C     C_R   0.015385 0.718357 0.567251 -0.193247
C124  C     C_R   0.984610 0.782677 0.431723 0.071854
C125  C     C_R   0.015525 0.782650 0.568605 0.071828
C126  C     C_R   0.484610 0.282677 0.431723 0.071854
C127  C     C_R   0.515525 0.282650 0.568604 0.071828
C128  C     C_R   0.000008 0.813859 0.500151 -0.091383
C129  C     C_R   0.500008 0.313859 0.500151 -0.091383
C130  C     C_3   0.225715 0.058432 0.259067 -0.392066
C131  C     C_3   0.774281 0.056929 0.738388 -0.392121
C132  C     C_3   0.725715 0.558277 0.259336 -0.392079
H1    H     H_    0.286012 0.941210 0.368431 0.167248
H2    H     H_    0.714016 0.898956 0.707805 0.166382
H3    H     H_    0.569479 0.293959 0.828544 0.246139
H4    H     H_    0.517882 0.252107 0.700282 0.226719
H5    H     H_    0.571276 0.250195 0.724744 0.221980
H6    H     H_    0.558642 0.347497 0.653712 0.222358
H7    H     H_    0.505883 0.351140 0.630368 0.190375
H8    H     H_    0.785993 0.399293 0.296172 0.166353
H9    H     H_    0.214018 0.399288 0.703977 0.166354
H10   H     H_    0.285844 0.041153 0.193016 0.166616
H11   H     H_    0.714155 0.045255 0.805115 0.166498
H12   H     H_    0.785844 0.541580 0.193207 0.166607
H13   H     H_    0.214153 0.541763 0.806734 0.166592
H14   H     H_    0.952435 0.071398 0.145684 0.140843
H15   H     H_    0.046656 0.072562 0.853359 0.141585
H16   H     H_    0.452436 0.571398 0.145684 0.140842
H17   H     H_    0.713994 0.937619 0.634217 0.167149
H18   H     H_    0.546656 0.572562 0.853359 0.141584
H19   H     H_    0.951821 0.070372 0.258582 0.141607
H20   H     H_    0.047260 0.071530 0.740455 0.141201
H21   H     H_    0.451821 0.570372 0.258583 0.141605
H22   H     H_    0.547260 0.571530 0.740456 0.141202
H23   H     H_    0.047713 0.928523 0.354458 0.141820
H24   H     H_    0.953267 0.927212 0.646443 0.140573
H25   H     H_    0.547712 0.428523 0.354458 0.141819
H26   H     H_    0.453267 0.427212 0.646443 0.140575
H27   H     H_    0.047193 0.927858 0.240406 0.143859
H28   H     H_    0.786012 0.440832 0.368159 0.167240
H29   H     H_    0.953783 0.926576 0.760489 0.144301
H30   H     H_    0.547193 0.427858 0.240406 0.143859
H31   H     H_    0.453783 0.426576 0.760488 0.144303
H32   H     H_    0.547732 0.806824 0.476745 0.141166
H33   H     H_    0.452250 0.806862 0.523202 0.140992
H34   H     H_    0.047731 0.306824 0.476743 0.141167
H35   H     H_    0.952251 0.306862 0.523203 0.140994
H36   H     H_    0.048328 0.193386 0.478214 0.142537
H37   H     H_    0.951663 0.193426 0.521725 0.142696
H38   H     H_    0.548328 0.693386 0.478215 0.142537
H39   H     H_    0.213996 0.440697 0.631930 0.167243
H40   H     H_    0.451663 0.693426 0.521724 0.142696
H41   H     H_    0.472683 0.192099 0.382079 0.152621
H42   H     H_    0.527424 0.192035 0.618080 0.152485
H43   H     H_    0.972683 0.692099 0.382079 0.152621
H44   H     H_    0.027424 0.692035 0.618080 0.152485
H45   H     H_    0.214130 0.941094 0.296557 0.166124
H46   H     H_    0.785876 0.937499 0.706097 0.166142
H47   H     H_    0.714130 0.440715 0.296284 0.166126
H48   H     H_    0.285877 0.440584 0.703805 0.166155
H49   H     H_    0.214009 0.100874 0.223816 0.167730
H50   H     H_    0.214114 0.899279 0.224721 0.167712
H51   H     H_    0.785985 0.100384 0.771755 0.167759
H52   H     H_    0.714008 0.600827 0.224280 0.167735
H53   H     H_    0.285983 0.600826 0.775576 0.167738
H54   H     H_    0.214111 0.059651 0.296062 0.167010
H55   H     H_    0.785884 0.055994 0.701372 0.166932
H56   H     H_    0.714111 0.559273 0.296336 0.167002
H57   H     H_    0.285886 0.559142 0.703581 0.167014
H58   H     H_    0.285992 0.059792 0.367849 0.167790
H59   H     H_    0.714003 0.056145 0.629581 0.167780
H60   H     H_    0.785992 0.559415 0.368123 0.167792
H61   H     H_    0.785895 0.898893 0.779723 0.167683
H62   H     H_    0.214004 0.559281 0.631792 0.167792
H63   H     H_    0.285885 0.100933 0.295562 0.166286
H64   H     H_    0.714108 0.100453 0.700010 0.166282
H65   H     H_    0.785885 0.600888 0.296026 0.166287
H66   H     H_    0.214106 0.600884 0.703828 0.166291
H67   H     H_    0.213972 0.958130 0.121543 0.167041
H68   H     H_    0.786032 0.962265 0.880239 0.166892
H69   H     H_    0.713973 0.458555 0.121351 0.167033
H70   H     H_    0.286032 0.458739 0.878712 0.166990
H71   H     H_    0.213959 0.041143 0.121199 0.166295
H72   H     H_    0.714114 0.399231 0.224257 0.167714
H73   H     H_    0.786040 0.045236 0.876932 0.166300
H74   H     H_    0.713959 0.541569 0.121389 0.166300
H75   H     H_    0.286038 0.541754 0.878552 0.166272
H76   H     H_    0.285858 0.958124 0.193420 0.167512
H77   H     H_    0.714146 0.962266 0.808365 0.167507
H78   H     H_    0.785858 0.458550 0.193228 0.167516
H79   H     H_    0.214146 0.458732 0.806835 0.167502
H80   H     H_    0.916407 0.851509 0.209698 0.260702
H81   H     H_    0.970260 0.853779 0.236003 0.271681
H82   H     H_    0.934993 0.794121 0.173784 0.245758
H83   H     H_    0.285897 0.399228 0.775892 0.167707
H84   H     H_    0.984804 0.753021 0.302745 0.226727
H85   H     H_    0.930655 0.749510 0.274871 0.220988
H86   H     H_    0.940793 0.846276 0.345586 0.220442
H87   H     H_    0.993911 0.852464 0.370840 0.190558
H88   H     H_    0.085247 0.852608 0.789726 0.261029
H89   H     H_    0.032406 0.852380 0.767578 0.271996
H90   H     H_    0.069479 0.793959 0.828544 0.246138
H91   H     H_    0.017882 0.752107 0.700282 0.226718
H92   H     H_    0.071276 0.750195 0.724744 0.221982
H93   H     H_    0.058642 0.847497 0.653712 0.222359
H94   H     H_    0.285993 0.899340 0.296637 0.166345
H95   H     H_    0.005883 0.851140 0.630368 0.190374
H96   H     H_    0.416406 0.351509 0.209698 0.260705
H97   H     H_    0.470260 0.353779 0.236003 0.271680
H98   H     H_    0.434992 0.294121 0.173784 0.245758
H99   H     H_    0.484803 0.253021 0.302744 0.226726
H100  H     H_    0.430655 0.249510 0.274871 0.220990
H101  H     H_    0.440792 0.346276 0.345586 0.220444
H102  H     H_    0.493910 0.352464 0.370840 0.190557
H103  H     H_    0.585247 0.352608 0.789725 0.261028
H104  H     H_    0.532406 0.352380 0.767578 0.271996
O1    O     O_R   0.999990 0.948250 0.091620 -0.624679
O2    O     O_R   0.965310 0.999930 0.556910 -0.622270
O3    O     O_R   0.534690 0.499930 0.443090 -0.622321
O4    O     O_R   0.465310 0.499930 0.556910 -0.622269
O5    O     O_R   0.965300 0.091560 0.465360 -0.622662
O6    O     O_R   0.034700 0.091560 0.534640 -0.622596
O7    O     O_R   0.465300 0.591560 0.465360 -0.622663
O8    O     O_R   0.534700 0.591560 0.534640 -0.622596
O9    O     O_R   0.999990 0.051750 0.091660 -0.623320
O10   O     O_R   0.000010 0.051750 0.908340 -0.623484
O11   O     O_R   0.499990 0.551750 0.091660 -0.623321
O12   O     O_R   0.000010 0.948250 0.908380 -0.624859
O13   O     O_R   0.500010 0.551750 0.908340 -0.623484
O14   O     O_R   0.061430 0.948250 0.061430 -0.618433
O15   O     O_R   0.938570 0.948250 0.938570 -0.618444
O16   O     O_R   0.561430 0.448250 0.061430 -0.618433
O17   O     O_R   0.438570 0.448250 0.938570 -0.618443
O18   O     O_R   0.061430 0.051750 0.061470 -0.618006
O19   O     O_R   0.938570 0.051750 0.938530 -0.617997
O20   O     O_R   0.561430 0.551750 0.061470 -0.618007
O21   O     O_R   0.438570 0.551750 0.938530 -0.617998
O22   O     O_R   0.500000 0.908530 0.551740 -0.623239
O23   O     O_R   0.499990 0.448250 0.091620 -0.624678
O24   O     O_R   0.500000 0.908530 0.448260 -0.623255
O25   O     O_R   0.000000 0.408530 0.551740 -0.623240
O26   O     O_R   0.000000 0.408530 0.448260 -0.623255
O27   O     O_R   0.438570 0.000200 0.490320 -0.618654
O28   O     O_R   0.561430 0.000200 0.509680 -0.618680
O29   O     O_R   0.938570 0.500200 0.490320 -0.618655
O30   O     O_R   0.061430 0.500200 0.509680 -0.618679
O31   O     O_R   0.438570 0.000170 0.386880 -0.618527
O32   O     O_R   0.561430 0.000170 0.613120 -0.618556
O33   O     O_R   0.938570 0.500170 0.386880 -0.618527
O34   O     O_R   0.500010 0.448250 0.908380 -0.624859
O35   O     O_R   0.061430 0.500170 0.613120 -0.618556
O36   O     O_R   0.500000 0.091870 0.551750 -0.629817
O37   O     O_R   0.500000 0.091870 0.448250 -0.629841
O38   O     O_R   1.000000 0.591870 0.551750 -0.629817
O39   O     O_R   0.000000 0.591870 0.448250 -0.629840
O40   O     O_R   0.965340 0.908230 0.465340 -0.629102
O41   O     O_R   0.034660 0.908230 0.534660 -0.629470
O42   O     O_R   0.465340 0.408230 0.465340 -0.629100
O43   O     O_R   0.534660 0.408230 0.534660 -0.629472
O44   O     O_R   0.965330 0.999890 0.373740 -0.625915
O45   O     O_R   0.034670 0.999890 0.626260 -0.625972
O46   O     O_R   0.465330 0.499890 0.373740 -0.625914
O47   O     O_R   0.534670 0.499890 0.626260 -0.625972
O48   O     O_R   0.034690 0.999930 0.443090 -0.622320
Zn1   Zn    Zn3+2 0.000000 0.930890 0.000000 0.947005
Zn2   Zn    Zn3+2 0.046310 0.999890 0.546280 0.938840
Zn3   Zn    Zn3+2 0.453690 0.499890 0.453720 0.938871
Zn4   Zn    Zn3+2 0.546310 0.499890 0.546280 0.938837
Zn5   Zn    Zn3+2 0.500000 0.430890 0.000000 0.947008
Zn6   Zn    Zn3+2 0.000000 0.069110 0.000000 0.950226
Zn7   Zn    Zn3+2 0.500000 0.569110 0.000000 0.950225
Zn8   Zn    Zn3+2 0.499990 0.000210 0.569090 0.944949
Zn9   Zn    Zn3+2 0.500010 0.000210 0.430910 0.944926
Zn10  Zn    Zn3+2 0.999990 0.500210 0.569090 0.944949
Zn11  Zn    Zn3+2 0.000010 0.500210 0.430910 0.944928
Zn12  Zn    Zn3+2 0.953690 0.999890 0.453720 0.938868

loop_
_geom_bond_atom_site_label_1
_geom_bond_atom_site_label_2
_ccdc_geom_bond_type
C44   C49   T    
C58   C62   A    
C4    H63   S    
O3    Zn4   S    
C71   H30   S    
C29   C125  S    
C26   H86   S    
C111  H13   S    
C1    C77   S    
O27   Zn8   S    
C69   C77   A    
C90   O35   A    
C82   C120  A    
C85   O26   A    
O1    Zn1   S    
C17   C110  S    
C132  H56   S    
O5    Zn12  S    
C12   C110  S    
C74   O15   A    
C120  C127  A    
C14   C131  S    
C54   H18   S    
C32   H102  S    
C14   C112  S    
C83   C92   S    
C105  C107  A    
C64   H23   S    
C10   C88   S    
C26   C27   S    
C29   C30   S    
C12   C130  S    
C2    H68   S    
C19   H28   S    
C82   C119  A    
C84   O22   A    
C36   C37   S    
C90   O30   A    
C103  H33   S    
C18   C112  S    
C15   C44   S    
C31   H88   S    
C63   C98   S    
C3    C7    S    
C51   C77   A    
C3    H57   S    
C102  H32   S    
C38   H104  S    
O12   Zn1   S    
O40   Zn12  S    
C88   O29   A    
C123  C125  A    
C98   O4    A    
C20   C25   S    
C19   C113  S    
C28   H81   S    
C65   C70   A    
O13   Zn7   S    
C57   H20   S    
C73   O18   A    
C9    C39   T    
C19   C23   S    
C51   C55   A    
C10   C40   T    
O16   Zn5   S    
C113  H72   S    
C32   C126  S    
O31   Zn9   S    
C101  O8    A    
O6    Zn2   S    
C121  C124  A    
C12   C42   S    
C109  C116  A    
O44   Zn12  S    
C94   O43   A    
C31   H89   S    
C67   O34   A    
C131  H51   S    
C72   H31   S    
C15   C132  S    
C84   C117  S    
C21   C78   S    
C125  C128  A    
C15   C113  S    
C121  H43   S    
C102  C108  A    
C29   H93   S    
C122  H67   S    
O32   Zn8   S    
C18   H17   S    
C43   C48   T    
C93   O41   A    
C74   O19   A    
C109  H40   S    
C4    C130  S    
C87   O32   A    
C124  C128  A    
O36   Zn8   S    
C108  H38   S    
C70   C79   A    
C2    C14   S    
C48   C74   S    
O46   Zn3   S    
C16   C24   S    
C5    C22   S    
C37   H5    S    
C55   C60   A    
O25   Zn10  S    
C34   H98   S    
C24   C111  S    
C26   C124  S    
C86   O31   A    
O34   Zn5   S    
C68   H26   S    
C3    H53   S    
C45   O12   A    
C104  C106  A    
C71   C80   A    
C59   H22   S    
C123  H44   S    
C104  C118  A    
C54   C59   A    
C60   C95   S    
C28   H82   S    
C97   O3    A    
C56   O11   A    
C61   C96   S    
C94   C129  S    
O42   Zn3   S    
C62   C66   A    
C4    H58   S    
C91   O37   A    
C53   C80   A    
C47   C73   S    
C93   O40   A    
C6    C132  S    
C91   O36   A    
C100  H12   S    
C16   C46   S    
C38   H103  S    
C23   C40   S    
C98   O47   A    
C19   H8    S    
C89   H77   S    
C51   H14   S    
C1    O1    A    
C64   C69   A    
C53   H16   S    
C17   C21   S    
C82   C91   S    
C105  H35   S    
C16   C114  S    
O30   Zn11  S    
C92   O39   A    
C8    C35   T    
C106  H36   S    
C122  H71   S    
C99   O5    A    
C2    C89   S    
C34   H96   S    
C65   H24   S    
C127  C129  A    
O35   Zn10  S    
C37   C38   S    
C58   H21   S    
C50   C76   S    
C94   O42   A    
C62   C97   S    
C17   H94   S    
C78   C122  S    
O18   Zn6   S    
C66   C71   A    
C22   C89   S    
C68   C72   A    
C24   H70   S    
C49   C75   S    
C33   C34   S    
C37   H4    S    
C55   H19   S    
C32   H101  S    
C45   C79   S    
C2    H73   S    
O37   Zn9   S    
C38   H3    S    
C83   C121  A    
C7    H62   S    
C57   C61   A    
C76   O17   A    
C5    H59   S    
C102  C117  A    
O39   Zn11  S    
O26   Zn11  S    
C5    H64   S    
C67   O13   A    
C120  H42   S    
C6    C23   S    
C113  H47   S    
C67   C81   S    
C52   H15   S    
C114  H48   S    
O48   Zn2   S    
C13   C15   S    
C7    C25   S    
C17   H1    S    
C27   H84   S    
O43   Zn4   S    
C105  C118  A    
C36   C127  S    
C28   H80   S    
O28   Zn9   S    
C29   H95   S    
C92   O38   A    
C75   O16   A    
C33   H100  S    
C70   H29   S    
C86   O27   A    
O21   Zn7   S    
C112  H46   S    
C73   O14   A    
C76   O21   A    
O4    Zn3   S    
O22   Zn8   S    
O45   Zn2   S    
C101  C116  S    
C63   C68   A    
O10   Zn6   S    
C20   H9    S    
C95   O44   A    
C26   H87   S    
C126  C129  A    
C96   O2    A    
C114  H83   S    
C84   O24   A    
O17   Zn5   S    
C72   C81   A    
C85   O25   A    
C130  H49   S    
C56   C80   S    
C45   O10   A    
C6    H65   S    
C30   H92   S    
C53   C58   A    
C130  H54   S    
O8    Zn4   S    
C30   H91   S    
C21   C35   S    
C18   C22   S    
O9    Zn6   S    
O19   Zn6   S    
O20   Zn7   S    
O41   Zn2   S    
C46   C50   T    
C24   H75   S    
C59   C63   A    
C96   O45   A    
C110  H45   S    
C60   C64   A    
C106  C115  A    
C103  C109  A    
C23   C100  S    
C32   C33   S    
C108  C116  A    
C13   C100  S    
C78   H10   S    
O38   Zn10  S    
C93   C128  S    
C85   C118  S    
C89   H11   S    
C97   O46   A    
C119  H41   S    
C20   C114  S    
C4    C21   S    
C34   H97   S    
C11   C90   S    
C107  H37   S    
C30   C31   S    
C7    H66   S    
C22   C39   S    
C99   C115  S    
C100  H78   S    
O29   Zn10  S    
C69   H27   S    
O14   Zn1   S    
C13   H69   S    
C18   H2    S    
O2    Zn12  S    
C42   C47   T    
C66   H25   S    
C107  C115  A    
C101  O7    A    
C36   H7    S    
C78   H76   S    
C112  H61   S    
O33   Zn11  S    
C27   H85   S    
C52   C57   A    
C25   C111  S    
C31   H90   S    
C104  H34   S    
C9    C87   S    
C56   O23   A    
C119  C126  A    
C61   C65   A    
C88   O33   A    
C5    C131  S    
C20   H39   S    
C12   C122  S    
O24   Zn9   S    
C110  H50   S    
O47   Zn4   S    
C8    C86   S    
C95   O48   A    
C11   C41   T    
C6    H60   S    
C27   C28   S    
C99   O6    A    
O23   Zn5   S    
C13   H74   S    
C25   C41   S    
C103  C117  A    
C1    O9    A    
O15   Zn1   S    
C83   C123  A    
C33   H99   S    
C36   H6    S    
C87   O28   A    
C54   C81   A    
C132  H52   S    
C3    C16   S    
O11   Zn7   S    
C111  H79   S    
O7    Zn3   S    
C14   C43   S    
C75   O20   A    
C52   C79   A    
C131  H55   S    
