data_mof_unit_14363.cif
_audit_creation_date              2012-12-10T20:01:34-0500
_audit_creation_method            fapswitch 2.2
_symmetry_space_group_name_H-M    P1
_symmetry_Int_Tables_number       1
_space_group_crystal_system       triclinic
_cell_length_a                    14.105821
_cell_length_b                    14.960731
_cell_length_c                    16.57682
_cell_angle_alpha                 89.525961
_cell_angle_beta                  92.108436
_cell_angle_gamma                 89.043438
_cell_volume                      3495.26874052

loop_
_atom_site_label
_atom_site_type_symbol
_atom_type_description
_atom_site_fract_x
_atom_site_fract_y
_atom_site_fract_z
_atom_type_partial_charge
C1    C     C_R   0.500781 0.327792 0.498569 0.849187
C2    C     C_R   0.558375 0.903438 0.551663 -0.188891
C3    C     C_R   0.505212 0.047953 0.500870 0.057301
C4    C     C_R   0.495703 0.952322 0.501082 0.080835
C5    C     C_R   0.107057 0.440138 0.546054 -0.301695
C6    C     C_R   0.896345 0.569207 0.532293 -0.303794
C7    C     C_R   0.206459 0.440455 0.546336 0.033423
C8    C     C_R   0.796969 0.568971 0.532767 0.009142
C9    C     C_R   0.202860 0.561162 0.453291 -0.022197
C10   C     C_R   0.793911 0.429373 0.467166 0.005640
C11   C     C_R   0.102559 0.564277 0.450766 0.016427
C12   C     C_R   0.499037 0.672303 0.498071 0.926749
C13   C     C_R   0.894044 0.425468 0.465685 0.002618
C14   C     C_R   0.053199 0.500975 0.497315 0.111219
C15   C     C_R   0.946715 0.498235 0.497646 0.101787
C16   C     C_R   0.509923 0.503575 0.653693 0.857844
C17   C     C_R   0.489970 0.502346 0.345324 0.934391
C18   C     C_R   0.508540 0.519656 0.740054 -0.165554
C19   C     C_R   0.488051 0.524849 0.258665 -0.086297
C20   C     C_R   0.440090 0.579553 0.770734 -0.098357
C21   C     C_R   0.572876 0.532558 0.215381 -0.119507
C22   C     C_R   0.425819 0.580395 0.854355 -0.054690
C23   C     C_R   0.561034 0.185389 0.442187 -0.068924
C24   C     C_R   0.569167 0.575039 0.139234 -0.092306
C25   C     C_R   0.484588 0.525896 0.906201 0.184467
C26   C     C_R   0.480122 0.600527 0.103631 0.294406
C27   C     C_R   0.553685 0.468054 0.874603 0.132256
C28   C     C_R   0.397072 0.596397 0.147749 0.061725
C29   C     C_R   0.565422 0.466013 0.791621 -0.249695
C30   C     C_R   0.401628 0.555864 0.223647 -0.185850
C31   C     C_R   0.562459 0.091037 0.444442 0.081264
C32   C     C_R   0.428926 0.910683 0.448619 0.033084
C33   C     C_2   0.665268 0.495263 0.247292 0.405622
C34   C     C_R   0.430585 0.816675 0.444984 -0.004513
C35   C     C_2   0.384302 0.640155 0.714314 0.539117
C36   C     C_3   0.052105 0.636433 0.399716 -0.432220
C37   C     C_3   0.003473 0.598664 0.323432 -0.351482
C38   C     C_3   0.957576 0.673088 0.271164 -0.866557
C39   C     C_3   0.940833 0.342543 0.431772 -0.418766
C40   C     C_3   0.983233 0.360216 0.349463 -0.333679
C41   C     C_3   0.023092 0.274220 0.314003 -0.851482
C42   C     C_2   0.657316 0.587616 0.093422 0.381575
C43   C     C_2   0.347342 0.633807 0.887804 0.519469
C44   C     C_3   0.616563 0.408761 0.929207 -0.392820
C45   C     C_R   0.503088 0.231833 0.496343 -0.126001
C46   C     C_3   0.561537 0.329619 0.962124 -0.365722
C47   C     C_3   0.623742 0.272973 0.020657 -0.834287
C48   C     C_3   0.302498 0.632211 0.114146 -0.435286
C49   C     C_3   0.262689 0.706703 0.167198 -0.304353
C50   C     C_3   0.171210 0.747132 0.129604 -0.884367
C51   C     C_3   0.618718 0.036340 0.384716 -0.382352
C52   C     C_3   0.718450 0.012708 0.419425 -0.289972
C53   C     C_3   0.775890 0.960627 0.358719 -0.862765
C54   C     C_3   0.360142 0.966380 0.394743 -0.451384
C55   C     C_3   0.265132 0.980292 0.435369 -0.328048
C56   C     C_R   0.496569 0.768393 0.495878 -0.072831
C57   C     C_3   0.195613 0.035342 0.381665 -0.878726
C58   C     C_2   0.613176 0.236702 0.381027 0.387396
C59   C     C_2   0.367622 0.770274 0.385383 0.333925
C60   C     C_R   0.448805 0.187115 0.551841 -0.197427
C61   C     C_R   0.559206 0.811773 0.548772 -0.252731
C62   C     C_R   0.450534 0.095419 0.554553 -0.195957
H1    H     H_    0.247042 0.393031 0.583827 0.127647
H2    H     H_    0.608193 0.936728 0.592176 0.147349
H3    H     H_    0.072210 0.392724 0.584242 0.145267
H4    H     H_    0.933941 0.624528 0.559491 0.153861
H5    H     H_    0.728322 0.535875 0.247652 0.045472
H6    H     H_    0.419091 0.671670 0.664474 0.026433
H7    H     H_    0.902290 0.709004 0.304988 0.264480
H8    H     H_    0.011797 0.721327 0.252581 0.264317
H9    H     H_    0.923682 0.643900 0.216122 0.249465
H10   H     H_    0.056595 0.562165 0.287626 0.217487
H11   H     H_    0.947198 0.551777 0.339928 0.231155
H12   H     H_    0.759295 0.624092 0.559630 0.135695
H13   H     H_    0.999706 0.672826 0.435987 0.211112
H14   H     H_    0.103898 0.687202 0.380970 0.191920
H15   H     H_    0.079721 0.245000 0.355006 0.257448
H16   H     H_    0.965936 0.224743 0.304730 0.276767
H17   H     H_    0.053932 0.289093 0.254801 0.245608
H18   H     H_    0.927526 0.388560 0.306981 0.235940
H19   H     H_    0.041736 0.408534 0.355728 0.221941
H20   H     H_    0.996294 0.315886 0.475027 0.200125
H21   H     H_    0.887800 0.288693 0.424538 0.229724
H22   H     H_    0.720716 0.547610 0.107167 0.038683
H23   H     H_    0.241907 0.607915 0.417697 0.144197
H24   H     H_    0.297922 0.601566 0.926752 0.020474
H25   H     H_    0.686693 0.246221 0.989872 0.259677
H26   H     H_    0.647668 0.313655 0.073130 0.274811
H27   H     H_    0.582441 0.215933 0.043069 0.252867
H28   H     H_    0.498479 0.353735 0.994326 0.237036
H29   H     H_    0.536598 0.287163 0.911128 0.224094
H30   H     H_    0.677840 0.382272 0.895821 0.193406
H31   H     H_    0.646689 0.448899 0.979693 0.219710
H32   H     H_    0.184521 0.777067 0.069612 0.280937
H33   H     H_    0.116437 0.694983 0.122569 0.266871
H34   H     H_    0.752488 0.375471 0.442052 0.179745
H35   H     H_    0.144059 0.800398 0.169361 0.244755
H36   H     H_    0.247072 0.679902 0.227892 0.229921
H37   H     H_    0.315830 0.760367 0.174700 0.244693
H38   H     H_    0.310041 0.660628 0.052925 0.224460
H39   H     H_    0.251452 0.576495 0.109635 0.195454
H40   H     H_    0.740042 0.897288 0.342704 0.262651
H41   H     H_    0.784269 0.001303 0.303149 0.275304
H42   H     H_    0.847408 0.944190 0.385568 0.243051
H43   H     H_    0.756931 0.074413 0.436066 0.256677
H44   H     H_    0.713311 0.971332 0.474894 0.210089
H45   H     H_    0.616313 0.419714 0.766674 0.155493
H46   H     H_    0.581628 0.973803 0.368602 0.192918
H47   H     H_    0.623058 0.072336 0.326224 0.228548
H48   H     H_    0.225009 0.102278 0.369172 0.263247
H49   H     H_    0.181130 0.000501 0.323700 0.261352
H50   H     H_    0.127705 0.044454 0.412656 0.249383
H51   H     H_    0.233076 0.914720 0.448659 0.211014
H52   H     H_    0.276782 0.015748 0.493406 0.230060
H53   H     H_    0.389833 0.032574 0.380346 0.214369
H54   H     H_    0.348813 0.934387 0.335033 0.195222
H55   H     H_    0.580391 0.296085 0.353458 0.108935
H56   H     H_    0.337018 0.550941 0.256645 0.173150
H57   H     H_    0.295222 0.793460 0.373399 0.056534
H58   H     H_    0.405555 0.223516 0.593665 0.149526
H59   H     H_    0.608528 0.774377 0.588394 0.153228
H60   H     H_    0.407365 0.061008 0.597354 0.147989
N1    N     N_2   0.479043 0.528993 0.990942 -0.210637
N2    N     N_2   0.472291 0.605788 0.018978 -0.141056
N3    N     N_R   0.252470 0.499980 0.500000 -0.098721
N4    N     N_R   0.747530 0.500020 0.500000 -0.107773
O1    O     O_R   0.579480 0.369070 0.499990 -0.623681
O2    O     O_2   0.299028 0.651899 0.720505 -0.549225
O3    O     O_2   0.660479 0.644066 0.039987 -0.536124
O4    O     O_2   0.339190 0.713925 0.874051 -0.536257
O5    O     O_2   0.693743 0.215855 0.363342 -0.581718
O6    O     O_2   0.397465 0.707494 0.346707 -0.604699
O7    O     O_R   0.420520 0.630930 0.500010 -0.607892
O8    O     O_R   0.420520 0.369060 0.499990 -0.621211
O9    O     O_R   0.579480 0.630940 0.500010 -0.636021
O10   O     O_R   0.588340 0.499180 0.616130 -0.608066
O11   O     O_R   0.411660 0.500820 0.383870 -0.617066
O12   O     O_R   0.429390 0.499170 0.616130 -0.620023
O13   O     O_R   0.570610 0.500830 0.383870 -0.590410
O14   O     O_2   0.672079 0.417784 0.270683 -0.576564
Zn1   Zn    Zn3+2 0.606140 0.500010 0.500000 0.964622
Zn2   Zn    Zn3+2 0.393860 0.499990 0.500000 0.963395

loop_
_geom_bond_atom_site_label_1
_geom_bond_atom_site_label_2
_ccdc_geom_bond_type
C23   C58   S    
O11   Zn2   S    
C38   H8    S    
C45   C60   A    
C34   C56   A    
C23   C45   A    
C27   C29   A    
C24   C42   S    
N1    N2    D    
O7    Zn2   S    
C37   C38   S    
C6    H4    S    
C60   C62   A    
C11   C36   S    
C19   C21   A    
C24   C26   A    
C41   H15   S    
C11   C14   A    
C50   H33   S    
C57   H50   S    
C21   C33   S    
C53   H42   S    
C58   O5    D    
C61   H59   S    
O1    Zn1   S    
C44   H31   S    
C36   H14   S    
C9    H23   S    
C49   H36   S    
C38   H9    S    
C20   C35   S    
C27   C44   S    
C28   C48   S    
C22   C43   S    
C2    H2    S    
C51   H46   S    
C12   O9    A    
C54   H54   S    
C40   H18   S    
C53   H40   S    
C44   H30   S    
C2    C61   A    
C6    C15   A    
C38   H7    S    
C52   H44   S    
C51   H47   S    
C47   H27   S    
C26   N2    S    
C32   C54   S    
C44   C46   S    
C48   H38   S    
C59   O6    D    
C51   C52   S    
C49   H37   S    
C42   H22   S    
C5    H3    S    
O12   Zn2   S    
C41   H16   S    
C5    C7    A    
C40   C41   S    
C50   H32   S    
C6    C8    A    
C46   H29   S    
C30   H56   S    
C22   C25   A    
C58   H55   S    
C9    N3    A    
C32   C34   A    
C2    C4    A    
O10   Zn1   S    
C36   H13   S    
O8    Zn2   S    
C25   N1    S    
C57   H48   S    
C10   H34   S    
N3    Zn2   S    
C54   H53   S    
C8    H12   S    
C17   O13   A    
C18   C29   A    
C4    C32   A    
C7    N3    A    
C3    C31   A    
C9    C11   A    
C7    H1    S    
C5    C14   A    
C12   C56   S    
C8    N4    A    
C48   C49   S    
C20   C22   A    
C52   H43   S    
C12   O7    A    
C55   C57   S    
C34   C59   S    
C37   H10   S    
C1    O8    A    
C16   O10   A    
C62   H60   S    
C52   C53   S    
C33   H5    S    
C3    C62   A    
C37   H11   S    
C54   C55   S    
C36   C37   S    
C50   H35   S    
C59   H57   S    
C56   C61   A    
C43   H24   S    
C40   H19   S    
C43   O4    D    
C16   O12   A    
C1    O1    A    
C39   H20   S    
C31   C51   S    
C10   C13   A    
C41   H17   S    
C46   H28   S    
C55   H52   S    
C25   C27   A    
C55   H51   S    
N4    Zn1   S    
C26   C28   A    
C47   H26   S    
C13   C15   A    
C39   H21   S    
O13   Zn1   S    
C1    C45   S    
C57   H49   S    
C35   H6    S    
C53   H41   S    
C48   H39   S    
C28   C30   A    
C17   C19   S    
C60   H58   S    
C42   O3    D    
C18   C20   A    
C35   O2    D    
C13   C39   S    
C46   C47   S    
C39   C40   S    
O9    Zn1   S    
C16   C18   S    
C49   C50   S    
C21   C24   A    
C14   C15   S    
C29   H45   S    
C17   O11   A    
C33   O14   D    
C10   N4    A    
C19   C30   A    
C3    C4    S    
C23   C31   A    
C47   H25   S    
