data_mof_unit_37626.cif
_audit_creation_date              2012-12-11T14:29:26-0500
_audit_creation_method            fapswitch 2.2
_symmetry_space_group_name_H-M    P1
_symmetry_Int_Tables_number       1
_space_group_crystal_system       triclinic
_cell_length_a                    6.939481
_cell_length_b                    14.723096
_cell_length_c                    16.232644
_cell_angle_alpha                 90.503534
_cell_angle_beta                  90.212906
_cell_angle_gamma                 89.847165
_cell_volume                      1658.41845339

loop_
_atom_site_label
_atom_site_type_symbol
_atom_type_description
_atom_site_fract_x
_atom_site_fract_y
_atom_site_fract_z
_atom_type_partial_charge
O1    O     O_R   0.494400 0.416610 0.413880 -0.546354
O2    O     O_R   0.823920 0.406790 0.585520 -0.522367
O3    O     O_R   0.994250 0.583390 0.586120 -0.538666
C1    C     C_R   0.655488 0.382950 0.611942 0.783864
O4    O     O_R   0.824110 0.405730 0.414490 -0.534152
O5    O     O_R   0.994440 0.582310 0.413870 -0.542722
C2    C     C_R   0.654814 0.383620 0.386380 0.754053
O6    O     O_R   0.494210 0.417690 0.586130 -0.539435
O7    O     O_3   0.660810 0.557940 0.500000 -0.379012
V1    V     V_3+5 0.935650 0.489250 0.500000 1.481474
O8    O     O_R   0.324160 0.593210 0.414480 -0.548899
C3    C     C_R   0.155165 0.614944 0.386332 0.726205
O9    O     O_R   0.323970 0.594270 0.585510 -0.540063
C4    C     C_R   0.155215 0.616120 0.613896 0.691266
V2    V     V_3+5 0.435660 0.510750 0.500000 1.437958
O10   O     O_3   0.160630 0.442060 0.500000 -0.361391
H1    H     H_    0.179982 0.925489 0.504705 0.120836
C5    C     C_R   0.126677 0.560352 0.784002 -0.202641
C6    C     C_R   0.111466 0.530204 0.865433 0.026476
C7    C     C_R   0.096907 0.594436 0.929212 -0.158136
C8    C     C_R   0.098932 0.687039 0.912370 -0.161603
C9    C     C_R   0.115087 0.718666 0.830819 0.077643
C10   C     C_R   0.128512 0.654060 0.765242 0.047452
C11   C     C_R   0.119484 0.813034 0.814142 -0.173256
C12   C     C_R   0.136655 0.842666 0.731597 0.062127
C13   C     C_R   0.149377 0.778042 0.665882 0.068683
C14   C     C_R   0.145177 0.683717 0.682609 -0.168630
C15   C     C_R   0.140014 0.936334 0.712817 -0.140763
C16   C     C_R   0.155621 0.965460 0.631667 -0.107986
C17   C     C_R   0.168100 0.902439 0.567623 -0.115507
C18   C     C_R   0.164957 0.809737 0.584167 -0.135408
H2    H     H_    0.137932 0.509922 0.735348 0.143967
H3    H     H_    0.129959 0.988008 0.760463 0.104855
H4    H     H_    0.157694 0.037331 0.618365 0.137687
H5    H     H_    0.174532 0.763356 0.532246 0.093924
C19   C     C_2   0.985127 0.709373 0.282297 -0.126539
C20   C     C_2   0.149778 0.682733 0.319529 -0.308151
H6    H     H_    0.849213 0.680979 0.302588 0.136491
H7    H     H_    0.287238 0.710554 0.301290 0.128547
C21   C     C_2   0.973305 0.776915 0.214329 -0.132935
C22   C     C_2   0.126738 0.814422 0.177085 -0.309241
H8    H     H_    0.829401 0.795737 0.194094 0.136069
H9    H     H_    0.271841 0.796192 0.195366 0.130581
C23   C     C_2   0.775020 0.195818 0.772740 -0.175924
C24   C     C_2   0.611660 0.175224 0.812968 -0.323278
H10   H     H_    0.908531 0.163963 0.792636 0.161177
H11   H     H_    0.473840 0.201239 0.792014 0.162739
C25   C     C_2   0.784093 0.253466 0.697489 0.033578
C26   C     C_2   0.645496 0.316146 0.679711 -0.369486
H12   H     H_    0.520297 0.322731 0.719038 0.164553
C27   C     C_2   0.779458 0.208879 0.214111 -0.119080
C28   C     C_2   0.614267 0.181968 0.177332 -0.297833
H13   H     H_    0.476768 0.210216 0.195813 0.130574
C29   C     C_2   0.791817 0.277430 0.282052 -0.115067
C30   C     C_2   0.638288 0.315241 0.319671 -0.293893
H14   H     H_    0.493196 0.296565 0.301806 0.128581
O11   O     O_R   0.770210 0.079270 0.910680 -0.538917
O12   O     O_R   0.440150 0.091160 0.082270 -0.543745
O13   O     O_R   0.269970 0.914530 0.082860 -0.543750
C31   C     C_R   0.608886 0.113287 0.110472 0.749861
O14   O     O_R   0.440480 0.090100 0.911240 -0.543919
O15   O     O_R   0.270310 0.913460 0.910610 -0.536736
C32   C     C_R   0.608450 0.111066 0.882536 0.767408
O16   O     O_R   0.769870 0.080340 0.082930 -0.538566
O17   O     O_3   0.603660 0.938980 0.996790 -0.372908
V3    V     V_3+5 0.328750 0.007610 0.996740 1.430987
O18   O     O_R   0.940600 0.902510 0.911180 -0.539713
C33   C     C_R   0.109376 0.880741 0.882768 0.693330
O19   O     O_R   0.940270 0.903570 0.082200 -0.542859
C34   C     C_R   0.109821 0.881862 0.110339 0.732107
V4    V     V_3+5 0.828770 0.986010 0.996670 1.431906
O20   O     O_3   0.103730 0.054750 0.996710 -0.369861
C35   C     C_2   0.952699 0.237125 0.642950 0.777555
O21   O     O_2   0.931518 0.233118 0.568159 -0.565415
O22   O     O_R   0.134648 0.222166 0.677637 -0.681076
H15   H     H_    0.237872 0.211503 0.634556 0.283730
H16   H     H_    0.915290 0.180003 0.193424 0.140017
H17   H     H_    0.935753 0.296707 0.301920 0.139771
C36   C     C_2   0.112324 0.431512 0.883616 0.748179
O23   O     O_2   0.092683 0.405284 0.954390 -0.561925
O24   O     O_R   0.136533 0.368013 0.819874 -0.665409
H18   H     H_    0.136586 0.303122 0.840273 0.305806
H19   H     H_    0.084987 0.573131 0.992682 0.155534
H20   H     H_    0.088364 0.733521 0.964188 0.105668

loop_
_geom_bond_atom_site_label_1
_geom_bond_atom_site_label_2
_ccdc_geom_bond_type
C30   H14   S    
C21   C22   D    
C22   H9    S    
C35   O21   D    
C6    C7    A    
C2    C30   S    
C1    O6    A    
O24   H18   S    
C23   C24   D    
C12   C15   A    
C13   C14   A    
C19   C20   D    
O13   V3    S    
O5    C3    A    
C17   C18   A    
O12   C31   A    
V2    O10   S    
C27   C28   D    
O14   C32   A    
C5    C6    A    
O16   V4    S    
C3    C20   S    
O19   V4    S    
C28   C31   S    
O8    V2    S    
O14   V3    S    
O12   V3    S    
V3    O20   S    
O1    V2    S    
C10   C14   A    
C4    C14   S    
O7    V1    S    
O18   V4    S    
C21   H8    S    
C13   C18   A    
O9    C4    A    
H1    C17   S    
C35   O22   S    
C23   H10   S    
O11   C32   A    
C24   H11   S    
O15   V3    S    
C5    C10   A    
C19   C21   S    
C11   C12   A    
C36   O24   S    
C12   C13   A    
O17   V4    S    
C16   H4    S    
C24   C32   S    
O18   C33   A    
O2    C1    A    
O22   H15   S    
C27   H16   S    
C16   C17   A    
C8    H20   S    
O11   V4    S    
C6    C36   S    
O3    C4    A    
C25   C26   D    
C15   H3    S    
C26   H12   S    
O6    V2    S    
O9    V2    S    
C18   H5    S    
C5    H2    S    
O2    V1    S    
C28   H13   S    
O4    C2    A    
C29   C30   D    
C15   C16   A    
O1    C2    A    
C25   C35   S    
O5    V1    S    
O8    C3    A    
O15   C33   A    
C1    C26   S    
C31   O16   A    
C27   C29   S    
C19   H6    S    
O7    V2    S    
O4    V1    S    
C20   H7    S    
O3    V1    S    
V1    O10   S    
C9    C11   A    
O19   C34   A    
C11   C33   S    
O13   C34   A    
C36   O23   D    
V4    O20   S    
C7    C8    A    
O17   V3    S    
C7    H19   S    
C9    C10   A    
C8    C9    A    
C23   C25   S    
C22   C34   S    
C29   H17   S    
