data_mof_unit_39313.cif
_audit_creation_date              2012-12-11T14:34:12-0500
_audit_creation_method            fapswitch 2.2
_symmetry_space_group_name_H-M    P1
_symmetry_Int_Tables_number       1
_space_group_crystal_system       triclinic
_cell_length_a                    13.857792
_cell_length_b                    13.989881
_cell_length_c                    27.363299
_cell_angle_alpha                 89.95643
_cell_angle_beta                  90.091351
_cell_angle_gamma                 119.645213
_cell_volume                      4610.50133218

loop_
_atom_site_label
_atom_site_type_symbol
_atom_type_description
_atom_site_fract_x
_atom_site_fract_y
_atom_site_fract_z
_atom_type_partial_charge
C1    C     C_R   0.235285 0.785885 0.569370 0.538795
C2    C     C_1   0.699466 0.858261 0.861738 -0.085063
C3    C     C_3   0.918333 0.757972 0.644204 -0.455653
C4    C     C_3   0.138084 0.150020 0.682225 -0.297189
C5    C     C_3   0.214353 0.157319 0.640179 -0.453063
C6    C     C_3   0.633325 0.639939 0.811848 -0.283439
C7    C     C_3   0.683550 0.566341 0.801137 -0.463390
C8    C     C_3   0.348307 0.001862 0.808115 -0.284235
C9    C     C_3   0.434245 0.120451 0.795250 -0.464459
C10   C     C_3   0.990430 0.344408 0.809856 -0.284355
C11   C     C_3   0.871890 0.313947 0.795449 -0.463460
C12   C     C_1   0.119113 0.876376 0.854068 -0.084925
C13   C     C_1   0.121381 0.244799 0.854284 -0.084611
C14   C     C_1   0.611796 0.806711 0.661407 -0.070986
C15   C     C_1   0.184302 0.807893 0.659204 -0.072750
C16   C     C_1   0.189345 0.377703 0.659533 -0.070425
C17   C     C_1   0.589734 0.790389 0.618653 -0.023007
C18   C     C_1   0.204680 0.799728 0.617332 -0.022633
C19   C     C_1   0.199336 0.406056 0.617609 -0.024640
C20   C     C_R   0.065018 0.150653 0.096007 0.578505
C21   C     C_R   0.213950 0.449506 0.569512 0.540972
C22   C     C_R   0.777858 0.884213 0.088504 0.546788
C23   C     C_R   0.116364 0.893817 0.088252 0.559846
C24   C     C_R   0.070964 0.163055 0.943039 0.538482
C25   C     C_R   0.779314 0.886932 0.951014 0.543077
C26   C     C_R   0.091434 0.928599 0.943236 0.536518
C27   C     C_R   0.617616 0.895073 0.361330 -0.133351
C28   C     C_R   0.097757 0.731986 0.362644 -0.134934
C29   C     C_R   0.264751 0.358837 0.363515 -0.135717
C30   C     C_R   0.644439 0.910939 0.311809 0.014140
C31   C     C_R   0.081120 0.743570 0.313055 0.014333
C32   C     C_R   0.550036 0.763798 0.569662 0.538091
C33   C     C_R   0.241961 0.308365 0.317400 0.013956
C34   C     C_R   0.681883 0.929378 0.210508 0.017094
C35   C     C_R   0.060819 0.760066 0.211582 0.017060
C36   C     C_R   0.201443 0.227632 0.220792 0.016977
C37   C     C_R   0.232613 0.788204 0.431745 0.548040
C38   C     C_R   0.211767 0.444698 0.431320 0.550132
C39   C     C_R   0.555336 0.767082 0.431833 0.549024
C40   C     C_R   0.653779 0.000677 0.234525 -0.137947
C41   C     C_R   0.978046 0.670612 0.237551 -0.128102
C42   C     C_R   0.303816 0.258701 0.243352 -0.124236
C43   C     C_3   0.700454 0.754952 0.787555 -0.062233
C44   C     C_R   0.634865 0.991361 0.284906 -0.130930
C45   C     C_R   0.988741 0.661741 0.287942 -0.129034
C46   C     C_R   0.324063 0.299086 0.291261 -0.128889
C47   C     C_R   0.704902 0.939775 0.160313 -0.150463
C48   C     C_R   0.050777 0.771378 0.161289 -0.135801
C49   C     C_R   0.183547 0.196595 0.171416 -0.128846
C50   C     C_R   0.730093 0.865346 0.137358 -0.003167
C51   C     C_R   0.135141 0.861834 0.136423 -0.005201
C52   C     C_R   0.083286 0.173515 0.148579 -0.008667
C53   C     C_R   0.658601 0.744915 0.364084 -0.131839
C54   C     C_3   0.236659 0.962609 0.780639 -0.064145
C55   C     C_R   0.266236 0.910440 0.361815 -0.128933
C56   C     C_R   0.076623 0.328978 0.367732 -0.130695
C57   C     C_R   0.683318 0.758057 0.314654 0.013410
C58   C     C_R   0.254318 0.920315 0.312195 0.013783
C59   C     C_R   0.053296 0.280323 0.321661 0.011748
C60   C     C_R   0.673793 0.839689 0.288085 0.063955
C61   C     C_R   0.162527 0.835778 0.287395 0.063370
C62   C     C_R   0.136839 0.271973 0.295855 0.062618
C63   C     C_R   0.709280 0.685333 0.290771 -0.126977
C64   C     C_R   0.337204 0.009850 0.286542 -0.127317
C65   C     C_3   0.032516 0.276503 0.781061 -0.064332
C66   C     C_R   0.949821 0.246276 0.299789 -0.129398
C67   C     C_R   0.721974 0.690818 0.240401 -0.127087
C68   C     C_R   0.331115 0.014023 0.236043 -0.129393
C69   C     C_R   0.930860 0.208991 0.251683 -0.122726
C70   C     C_R   0.711920 0.771016 0.213818 0.010872
C71   C     C_R   0.240225 0.930649 0.211089 0.014237
C72   C     C_R   0.014048 0.202954 0.225219 0.016535
C73   C     C_3   0.525412 0.786092 0.743060 -0.236240
C74   C     C_3   0.187286 0.746163 0.744322 -0.237554
C75   C     C_3   0.254292 0.440270 0.744349 -0.239060
C76   C     C_3   0.682349 0.747977 0.731164 -0.194730
C77   C     C_R   0.689697 0.847152 0.237490 0.065224
C78   C     C_R   0.154288 0.842144 0.236688 0.063850
C79   C     C_R   0.116877 0.232436 0.247530 0.062006
C80   C     C_R   0.726854 0.777748 0.163905 -0.123178
C81   C     C_R   0.232181 0.936931 0.161005 -0.132652
C82   C     C_R   0.997774 0.172849 0.176116 -0.129339
C83   C     C_R   0.618088 0.807635 0.386599 -0.003673
C84   C     C_R   0.193794 0.812710 0.386246 -0.004057
C85   C     C_R   0.183556 0.373305 0.387921 -0.005293
C86   C     C_3   0.716426 0.945288 0.727339 -0.066784
C87   C     C_3   0.247427 0.942863 0.725468 -0.193454
C88   C     C_3   0.042122 0.794946 0.719656 -0.066319
C89   C     C_3   0.196511 0.246131 0.719419 -0.066024
C90   C     C_3   0.748513 0.953304 0.782464 -0.217809
C91   C     C_3   0.031806 0.828711 0.772889 -0.219502
C92   C     C_3   0.167371 0.206010 0.773297 -0.220968
C93   C     C_1   0.730451 0.871282 0.903548 -0.034331
C94   C     C_1   0.105589 0.898263 0.895065 -0.026784
C95   C     C_1   0.100948 0.208537 0.895112 -0.029016
C96   C     C_3   0.634719 0.822199 0.714151 0.066951
C97   C     C_3   0.164690 0.822515 0.710592 0.066059
C98   C     C_3   0.053867 0.311938 0.726388 -0.191715
C99   C     C_3   0.173661 0.343687 0.710872 0.068366
C100  C     C_3   0.550298 0.807967 0.798617 -0.224080
C101  C     C_3   0.160826 0.759111 0.798358 -0.220440
C102  C     C_3   0.238763 0.402297 0.798593 -0.220248
C103  C     C_3   0.673484 0.842714 0.809169 0.064006
C104  C     C_3   0.137663 0.856696 0.803070 0.062480
C105  C     C_3   0.139752 0.283167 0.803375 0.063830
C106  C     C_3   0.819807 0.002519 0.693408 -0.297825
C107  C     C_3   0.807639 0.075258 0.654878 -0.457209
C108  C     C_3   0.996437 0.844046 0.680925 -0.297151
Cr1   Cr    Cr6+3 0.164410 0.584450 0.499910 1.013915
Cr2   Cr    Cr6+3 0.415550 0.579960 0.499910 1.014527
Cr3   Cr    Cr6+3 0.420040 0.835590 0.499910 1.011263
Cr4   Cr    Cr6+3 0.155170 0.075460 0.019960 1.014334
Cr5   Cr    Cr6+3 0.924540 0.079710 0.019960 1.004672
Cr6   Cr    Cr6+3 0.920290 0.844830 0.019960 1.006819
H1    H     H_    0.533632 0.874526 0.810455 0.109217
H2    H     H_    0.790080 0.784530 0.794610 0.125445
H3    H     H_    0.215539 0.029285 0.783531 0.124368
H4    H     H_    0.965641 0.188815 0.782620 0.124222
H5    H     H_    0.706563 0.006715 0.139647 0.104345
H6    H     H_    0.975896 0.713422 0.142126 0.113512
H7    H     H_    0.248782 0.194520 0.150435 0.121534
H8    H     H_    0.587525 0.944748 0.378895 0.127285
H9    H     H_    0.040495 0.657240 0.381723 0.122798
H10   H     H_    0.347164 0.391965 0.379057 0.124320
H11   H     H_    0.646314 0.063416 0.214372 0.098190
H12   H     H_    0.086691 0.681837 0.810637 0.113374
H13   H     H_    0.906071 0.606825 0.218791 0.098157
H14   H     H_    0.369457 0.255166 0.223419 0.100333
H15   H     H_    0.611503 0.046078 0.302709 0.099597
H16   H     H_    0.925430 0.590582 0.307163 0.100465
H17   H     H_    0.404964 0.325943 0.307357 0.101725
H18   H     H_    0.744735 0.718700 0.146368 0.129282
H19   H     H_    0.297976 0.006433 0.141759 0.123195
H20   H     H_    0.919495 0.152363 0.158722 0.117842
H21   H     H_    0.739665 0.632458 0.222209 0.098481
H22   H     H_    0.396891 0.082819 0.216547 0.094371
H23   H     H_    0.316183 0.405421 0.811956 0.112387
H24   H     H_    0.852680 0.188788 0.234574 0.110404
H25   H     H_    0.716281 0.622157 0.310805 0.101008
H26   H     H_    0.408374 0.074747 0.305345 0.096884
H27   H     H_    0.885114 0.252647 0.319195 0.102784
H28   H     H_    0.483659 0.831732 0.729788 0.102704
H29   H     H_    0.135637 0.658772 0.732888 0.103897
H30   H     H_    0.341892 0.470510 0.733167 0.103356
H31   H     H_    0.660969 0.678818 0.383816 0.127388
H32   H     H_    0.339062 0.974570 0.380074 0.130580
H33   H     H_    0.012849 0.338104 0.386555 0.129499
H34   H     H_    0.466677 0.697028 0.736986 0.111894
H35   H     H_    0.669280 0.990437 0.723536 0.139350
H36   H     H_    0.989367 0.703628 0.718132 0.139336
H37   H     H_    0.287786 0.279618 0.715672 0.137643
H38   H     H_    0.740064 0.020755 0.799795 0.100550
H39   H     H_    0.957528 0.759832 0.790443 0.099418
H40   H     H_    0.239585 0.204256 0.790142 0.097797
H41   H     H_    0.836780 0.974663 0.787111 0.097420
H42   H     H_    0.018976 0.901220 0.773364 0.094215
H43   H     H_    0.095561 0.120871 0.775401 0.092527
H44   H     H_    0.624903 0.661931 0.719333 0.119596
H45   H     H_    0.275665 0.767087 0.741263 0.110305
H46   H     H_    0.333245 0.961222 0.716460 0.119269
H47   H     H_    0.041270 0.383458 0.719455 0.119333
H48   H     H_    0.762269 0.772789 0.712736 0.103448
H49   H     H_    0.232390 0.000476 0.703404 0.104666
H50   H     H_    0.992353 0.244758 0.703136 0.104454
H51   H     H_    0.733432 0.026359 0.631708 0.167335
H52   H     H_    0.799711 0.142260 0.672802 0.138660
H53   H     H_    0.882018 0.112686 0.630964 0.139154
H54   H     H_    0.895885 0.054865 0.714842 0.126954
H55   H     H_    0.834282 0.941312 0.674037 0.153473
H56   H     H_    0.238526 0.510646 0.740644 0.109603
H57   H     H_    0.962721 0.723422 0.623411 0.164800
H58   H     H_    0.846444 0.690028 0.663301 0.138045
H59   H     H_    0.886681 0.796753 0.618032 0.145264
H60   H     H_    0.950231 0.880043 0.698747 0.124765
H61   H     H_    0.064781 0.911113 0.660055 0.157745
H62   H     H_    0.240472 0.232515 0.618124 0.166390
H63   H     H_    0.289736 0.158033 0.654443 0.137493
H64   H     H_    0.169645 0.085119 0.615734 0.139476
H65   H     H_    0.110588 0.070577 0.700850 0.128817
H66   H     H_    0.062832 0.146678 0.666508 0.154866
H67   H     H_    0.493475 0.733178 0.819792 0.112313
H68   H     H_    0.686360 0.553722 0.761245 0.141551
H69   H     H_    0.768969 0.603639 0.816290 0.144963
H70   H     H_    0.632087 0.484822 0.818596 0.141004
H71   H     H_    0.631971 0.648116 0.852156 0.162409
H72   H     H_    0.545750 0.597950 0.798959 0.141704
H73   H     H_    0.452581 0.129401 0.755522 0.142502
H74   H     H_    0.403647 0.177274 0.806022 0.142520
H75   H     H_    0.512623 0.144312 0.815344 0.140677
H76   H     H_    0.335342 0.998451 0.848243 0.164722
H77   H     H_    0.383291 0.947482 0.799445 0.141088
H78   H     H_    0.231044 0.771709 0.822311 0.114861
H79   H     H_    0.866781 0.330118 0.756090 0.142870
H80   H     H_    0.813962 0.225705 0.803154 0.142090
H81   H     H_    0.845274 0.364009 0.817060 0.141344
H82   H     H_    0.990217 0.329313 0.849698 0.166101
H83   H     H_    0.045955 0.433891 0.803614 0.142837
H84   H     H_    0.225289 0.459962 0.821695 0.115361
O1    O     O_R   0.137150 0.468200 0.553200 -0.513022
O2    O     O_R   0.140110 0.470540 0.446010 -0.521541
O3    O     O_R   0.529460 0.669570 0.446010 -0.521452
O4    O     O_R   0.330430 0.859890 0.446010 -0.523946
O5    O     O_R   0.176710 0.690910 0.450560 -0.501990
O6    O     O_R   0.309090 0.485800 0.450560 -0.500960
O7    O     O_R   0.514200 0.823290 0.450560 -0.503740
O8    O     O_3   0.333333 0.666667 0.499990 -0.263624
O9    O     O_R   0.176750 0.985260 0.074180 -0.529946
O10   O     O_R   0.014740 0.191490 0.074180 -0.495080
O11   O     O_R   0.808510 0.823250 0.074180 -0.517834
O12   O     O_R   0.531800 0.668950 0.553200 -0.513112
O13   O     O_R   0.146100 0.172630 0.068980 -0.479622
O14   O     O_R   0.827370 0.973470 0.068980 -0.517807
O15   O     O_R   0.026530 0.853900 0.068980 -0.489075
O16   O     O_3   0.000000 0.000000 0.020040 -0.282877
O17   O     O_R   0.148270 0.170520 0.969620 -0.490259
O18   O     O_R   0.829480 0.977750 0.969620 -0.518424
O19   O     O_R   0.022250 0.851730 0.969620 -0.482137
O20   O     O_R   0.331050 0.862850 0.553200 -0.511919
O21   O     O_R   0.179100 0.982980 0.967000 -0.507378
O22   O     O_R   0.017020 0.196120 0.967000 -0.487418
O23   O     O_R   0.803880 0.820900 0.967000 -0.513199
O24   O     O_R   0.173970 0.688730 0.549930 -0.503661
O25   O     O_R   0.311270 0.485240 0.549930 -0.502751
O26   O     O_R   0.514760 0.826030 0.549930 -0.501735

loop_
_geom_bond_atom_site_label_1
_geom_bond_atom_site_label_2
_ccdc_geom_bond_type
C26   C94   S    
C15   C18   T    
C87   H49   S    
C74   H29   S    
C107  H51   S    
C25   C93   S    
C80   H18   S    
C28   C84   A    
C31   C61   A    
C76   H48   S    
C14   C17   T    
C11   H80   S    
C91   C104  S    
C101  H78   S    
C12   C94   T    
C28   H9    S    
C48   H6    S    
C66   H27   S    
Cr2   O12   S    
C6    H71   S    
C76   H44   S    
C1    C18   S    
C74   H45   S    
C89   C99   S    
Cr2   O3    S    
C34   C40   A    
C64   C68   A    
Cr6   O11   S    
C54   C104  S    
C19   C21   S    
C15   C97   S    
C65   C98   S    
C12   C104  S    
C72   C79   A    
C102  H84   S    
C34   C77   A    
C64   H26   S    
C54   C87   S    
C88   C108  S    
C24   O17   A    
C3    H58   S    
Cr4   O17   S    
C66   C69   A    
C106  C107  S    
Cr2   O25   S    
C8    H77   S    
C108  H61   S    
C29   C33   A    
C43   C76   S    
C87   H46   S    
C102  C105  S    
Cr2   O6    S    
C42   C46   A    
C20   O13   A    
C65   C105  S    
C91   H39   S    
Cr6   O16   S    
C36   C42   A    
C3    H59   S    
C48   C51   A    
C8    H76   S    
C8    C9    S    
C22   O14   A    
C75   C102  S    
C37   O4    A    
C37   C84   S    
C25   O23   A    
C1    O20   A    
Cr3   O20   S    
Cr4   O16   S    
C74   C97   S    
C51   C81   A    
Cr5   O22   S    
C29   C85   A    
C88   C97   S    
C42   H14   S    
C22   C50   S    
C9    H74   S    
C58   C61   A    
C47   H5    S    
C107  H52   S    
C45   H16   S    
C38   O6    A    
C26   O19   A    
C33   C46   A    
Cr6   O15   S    
C30   C44   A    
C86   C106  S    
C100  H1    S    
C88   H36   S    
Cr5   O16   S    
C21   O1    A    
C9    H75   S    
C35   C48   A    
Cr3   O4    S    
C14   C96   S    
C32   O26   A    
C27   H8    S    
C57   C63   A    
C47   C50   A    
C63   C67   A    
C73   H28   S    
C25   O18   A    
C58   C64   A    
C5    H64   S    
C107  H53   S    
C60   C77   A    
C28   C31   A    
C90   H41   S    
C38   C85   S    
C70   C80   A    
Cr5   O10   S    
C62   C79   A    
Cr1   O5    S    
Cr5   O14   S    
C90   H38   S    
C86   C90   S    
C24   C95   S    
C8    C54   S    
C46   H17   S    
C53   C57   A    
C33   C62   A    
C57   C60   A    
C87   C97   S    
C73   H34   S    
C9    H73   S    
C44   H15   S    
C100  C103  S    
C30   C60   A    
C1    O24   A    
C102  H23   S    
C106  H54   S    
C82   H20   S    
C69   C72   A    
C67   H21   S    
Cr4   O13   S    
C10   H82   S    
C43   H2    S    
C32   O12   A    
C53   H31   S    
C23   C51   S    
C88   C91   S    
C68   H22   S    
C61   C78   A    
C65   H4    S    
C49   C52   A    
C49   H7    S    
C75   H56   S    
C75   C99   S    
C101  H12   S    
C37   O5    A    
Cr2   O8    S    
C89   C92   S    
C52   C82   A    
C100  H67   S    
Cr3   O8    S    
C5    H63   S    
C86   C96   S    
C70   C77   A    
C74   C101  S    
C7    H70   S    
C13   C105  S    
C13   C95   T    
C73   C100  S    
C101  C104  S    
C6    C43   S    
C39   O3    A    
C5    H62   S    
C38   O2    A    
C22   O11   A    
C86   H35   S    
C20   O10   A    
Cr6   O19   S    
C40   C44   A    
C41   H13   S    
C10   H83   S    
C24   O22   A    
C98   H47   S    
C4    C89   S    
C23   O15   A    
C10   C65   S    
C69   H24   S    
Cr3   O7    S    
C59   C62   A    
C21   O25   A    
C7    H68   S    
C23   O9    A    
C26   O21   A    
C63   H25   S    
C2    C93   T    
C11   H79   S    
Cr4   O9    S    
C11   H81   S    
C4    C5    S    
C55   H32   S    
C36   C79   A    
C50   C80   A    
C98   H50   S    
C16   C99   S    
C81   H19   S    
C6    C7    S    
C3    C108  S    
C20   C52   S    
C6    H72   S    
C35   C78   A    
Cr5   O18   S    
C56   C59   A    
C7    H69   S    
C53   C83   A    
C67   C70   A    
C56   H33   S    
C27   C83   A    
C4    H66   S    
C39   C83   S    
C91   H42   S    
C59   C66   A    
C76   C96   S    
C3    H57   S    
C56   C85   A    
C2    C103  S    
C68   C71   A    
C40   H11   S    
C39   O7    A    
C106  H55   S    
Cr4   O21   S    
Cr3   O26   S    
Cr6   O23   S    
C108  H60   S    
Cr1   O8    S    
C35   C41   A    
C43   C103  S    
C90   C103  S    
Cr1   O1    S    
C10   C11   S    
Cr1   O24   S    
C29   H10   S    
C92   C105  S    
C89   H37   S    
C75   H30   S    
C98   C99   S    
C31   C45   A    
C55   C58   A    
C17   C32   S    
C41   C45   A    
C92   H43   S    
Cr1   O2    S    
C92   H40   S    
C34   C47   A    
C4    H65   S    
C73   C96   S    
C71   C81   A    
C54   H3    S    
C55   C84   A    
C71   C78   A    
C72   C82   A    
C36   C49   A    
C27   C30   A    
C16   C19   T    
