data_mof_unit_51384.cif
_audit_creation_date              2012-12-10T17:07:51-0500
_audit_creation_method            fapswitch 2.2
_symmetry_space_group_name_H-M    P1
_symmetry_Int_Tables_number       1
_space_group_crystal_system       triclinic
_cell_length_a                    10.660564
_cell_length_b                    10.704551
_cell_length_c                    10.102683
_cell_angle_alpha                 91.440076
_cell_angle_beta                  89.828077
_cell_angle_gamma                 90.644063
_cell_volume                      1152.44213255

loop_
_atom_site_label
_atom_site_type_symbol
_atom_type_description
_atom_site_fract_x
_atom_site_fract_y
_atom_site_fract_z
_atom_type_partial_charge
C1    C     C_R   0.505200 0.263192 0.498262 0.972008
C2    C     C_2   0.576748 0.565506 0.074439 0.219662
C3    C     C_R   0.258436 0.491392 0.500426 0.911968
C4    C     C_R   0.492893 0.737261 0.501522 0.854716
C5    C     C_R   0.741803 0.496764 0.500135 0.854094
C6    C     C_3   0.069974 0.463729 0.647174 -0.222937
C7    C     C_3   0.925197 0.459147 0.644294 0.007667
C8    C     C_3   0.077149 0.615487 0.459049 -0.462241
C9    C     C_3   0.068684 0.384571 0.401800 -0.139535
C10   C     C_3   0.121602 0.485177 0.502971 -0.020479
C11   C     C_3   0.281922 0.944537 0.621885 -0.749281
C12   C     C_3   0.878496 0.493215 0.502549 0.034863
C13   C     C_2   0.596504 0.705975 0.876696 0.454984
C14   C     C_3   0.802447 0.569691 0.082425 -0.807067
C15   C     C_2   0.128052 0.354972 0.718449 0.474419
C16   C     C_3   0.344400 0.348319 0.109167 -0.648625
C17   C     C_3   0.836560 0.326146 0.820784 -0.779300
C18   C     C_3   0.911396 0.850230 0.499060 -0.814796
C19   C     C_2   0.111358 0.252772 0.425903 0.308477
C20   C     C_3   0.932984 0.623114 0.461743 -0.002257
C21   C     C_3   0.924124 0.392431 0.400134 -0.544520
C22   C     C_2   0.481615 0.931235 0.391595 -0.228747
C23   C     C_2   0.465572 0.868267 0.504100 0.069760
C24   C     C_2   0.476713 0.065402 0.389994 -0.109128
C25   C     C_2   0.519950 0.131942 0.493462 -0.276787
C26   C     C_2   0.552539 0.586396 0.929330 -0.047747
H1    H     H_    0.095945 0.549070 0.707312 0.173978
H2    H     H_    0.119526 0.688749 0.525334 0.184698
H3    H     H_    0.102689 0.407924 0.300846 0.169538
H4    H     H_    0.877510 0.300957 0.418201 0.161326
H5    H     H_    0.446530 0.887572 0.709312 0.234326
H6    H     H_    0.254930 0.002241 0.710057 0.239728
H7    H     H_    0.231957 0.853275 0.625850 0.216561
H8    H     H_    0.252910 0.994220 0.531979 0.279803
H9    H     H_    0.562680 0.792936 0.920300 -0.000788
H10   H     H_    0.685404 0.715987 0.135813 0.198794
H11   H     H_    0.882766 0.611154 0.137944 0.226050
H12   H     H_    0.894666 0.417678 0.298999 0.198395
H13   H     H_    0.815055 0.592796 0.976720 0.255660
H14   H     H_    0.803594 0.466645 0.092503 0.240907
H15   H     H_    0.119161 0.259811 0.680940 0.059493
H16   H     H_    0.317959 0.538956 0.130945 0.236788
H17   H     H_    0.252329 0.333033 0.060410 0.250997
H18   H     H_    0.333578 0.325630 0.214498 0.288053
H19   H     H_    0.413926 0.284315 0.062612 0.207007
H20   H     H_    0.906949 0.259151 0.638010 0.205116
H21   H     H_    0.796229 0.231473 0.835881 0.230458
H22   H     H_    0.763850 0.395606 0.847978 0.262434
H23   H     H_    0.110906 0.634687 0.356991 0.167066
H24   H     H_    0.919413 0.339749 0.886048 0.247247
H25   H     H_    0.803352 0.715988 0.586300 0.277704
H26   H     H_    0.887768 0.920644 0.577523 0.247290
H27   H     H_    0.849244 0.864191 0.412665 0.231702
H28   H     H_    0.010421 0.866006 0.469130 0.249499
H29   H     H_    0.046484 0.182174 0.461286 0.070328
H30   H     H_    0.899586 0.641778 0.360089 0.167431
H31   H     H_    0.505689 0.884521 0.298368 0.146654
H32   H     H_    0.439157 0.108930 0.302751 0.185303
H33   H     H_    0.565303 0.089744 0.577146 0.158823
H34   H     H_    0.489175 0.414372 0.891375 0.203093
H35   H     H_    0.892090 0.533226 0.715495 0.187725
N1    N     N_2   0.501360 0.501330 0.852150 -0.187734
N2    N     N_2   0.501390 0.501360 0.147810 -0.054467
N3    N     N_2   0.416019 0.925507 0.622488 -0.300228
N4    N     N_2   0.685960 0.619655 0.133919 -0.262254
N5    N     N_2   0.384056 0.476859 0.095598 -0.267883
N6    N     N_2   0.871988 0.338700 0.683357 -0.295697
N7    N     N_2   0.892767 0.725762 0.549537 -0.289614
O1    O     O_R   0.499980 0.319060 0.613040 -0.610815
O2    O     O_2   0.185697 0.373860 0.821294 -0.596016
O3    O     O_2   0.220396 0.223903 0.407520 -0.623066
O4    O     O_R   0.500020 0.319100 0.386900 -0.615639
O5    O     O_R   0.314770 0.499960 0.613070 -0.596072
O6    O     O_R   0.314820 0.500000 0.386930 -0.632440
O7    O     O_R   0.499980 0.680900 0.613100 -0.588464
O8    O     O_R   0.500020 0.680940 0.386960 -0.633901
O9    O     O_R   0.685180 0.500000 0.613070 -0.578162
O10   O     O_R   0.685230 0.500040 0.386930 -0.602417
O11   O     O_2   0.678362 0.708656 0.792494 -0.591778
Zn1   Zn    Zn3+2 0.499970 0.499970 0.650990 1.005477
Zn2   Zn    Zn3+2 0.500030 0.500030 0.349010 0.952812

loop_
_geom_bond_atom_site_label_1
_geom_bond_atom_site_label_2
_ccdc_geom_bond_type
C13   O11   D    
C19   O3    D    
C17   H22   S    
C20   H30   S    
C2    N4    S    
C22   H31   S    
C18   H26   S    
C8    C20   S    
N2    Zn2   S    
N1    Zn1   S    
C13   H9    S    
O8    Zn2   S    
C18   N7    S    
H34   N1    S    
C3    O6    A    
C7    H35   S    
C4    O7    A    
C18   H27   S    
C14   H13   S    
C14   N4    S    
C21   H12   S    
O7    Zn1   S    
C16   H18   S    
O4    Zn2   S    
C9    H3    S    
C6    C15   S    
N2    N5    S    
C1    C25   S    
C9    C19   S    
C7    C12   S    
C17   N6    S    
C1    O4    A    
C11   H7    S    
C24   C25   D    
C15   H15   S    
C5    C12   S    
C11   N3    S    
C4    C23   S    
H10   N4    S    
C7    N6    S    
C12   C21   S    
C1    O1    A    
C17   H24   S    
C6    H1    S    
C12   C20   S    
C2    C26   S    
C16   H17   S    
C8    C10   S    
C23   N3    S    
C11   H6    S    
C8    H2    S    
C22   C24   S    
C13   C26   S    
C16   N5    S    
O6    Zn2   S    
C5    O9    A    
C2    N2    D    
C9    C10   S    
O9    Zn1   S    
C19   H29   S    
C15   O2    D    
H5    N3    S    
C20   N7    S    
C11   H8    S    
C17   H21   S    
C16   H19   S    
C6    C10   S    
C6    C7    S    
C21   H4    S    
C26   N1    D    
H20   N6    S    
C3    C10   S    
C14   H11   S    
O10   Zn2   S    
C9    C21   S    
O5    Zn1   S    
H25   N7    S    
C3    O5    A    
C4    O8    A    
C18   H28   S    
C14   H14   S    
C24   H32   S    
H16   N5    S    
C22   C23   D    
O1    Zn1   S    
C25   H33   S    
C5    O10   A    
C8    H23   S    
