data_mof_unit_30511.cif
_audit_creation_date              2012-12-11T15:14:53-0500
_audit_creation_method            fapswitch 2.2
_symmetry_space_group_name_H-M    P1
_symmetry_Int_Tables_number       1
_space_group_crystal_system       triclinic
_cell_length_a                    11.188447
_cell_length_b                    11.20942
_cell_length_c                    18.423084
_cell_angle_alpha                 89.89217
_cell_angle_beta                  89.923283
_cell_angle_gamma                 120.148266
_cell_volume                      1997.98784711

loop_
_atom_site_label
_atom_site_type_symbol
_atom_type_description
_atom_site_fract_x
_atom_site_fract_y
_atom_site_fract_z
_atom_type_partial_charge
C1    C     C_R   0.522363 0.455741 0.644277 0.565889
C2    C     C_R   0.429052 0.537968 0.362448 0.538010
C3    C     C_R   0.457601 0.886807 0.137617 0.543757
C4    C     C_R   0.073276 0.549848 0.357396 0.569261
C5    C     C_3   0.474424 0.072796 0.462260 0.103904
C6    C     C_3   0.607759 0.610088 0.018142 0.088465
C7    C     C_3   0.904312 0.389724 0.460949 0.081776
C8    C     C_3   0.373111 0.973422 0.018801 0.098625
C9    C     C_3   0.589656 0.511746 0.459939 0.101296
C10   C     C_3   0.970357 0.371124 0.028025 0.094174
C11   C     C_3   0.059133 0.459329 0.963741 0.111447
C12   C     C_R   0.887669 0.459299 0.862866 0.534131
C13   C     C_3   0.608841 0.613380 0.520944 0.092823
C14   C     C_3   0.381442 0.889348 0.954939 0.084811
C15   C     C_3   0.997538 0.384883 0.521101 0.095305
C16   C     C_3   0.501181 0.577457 0.957488 0.102602
C17   C     C_3   0.378279 0.984703 0.524312 0.095047
C18   C     C_3   0.602099 0.110260 0.510682 -0.111161
C19   C     C_3   0.625754 0.489918 0.993300 -0.176919
C20   C     C_3   0.871806 0.483469 0.509774 -0.118371
C21   C     C_3   0.503653 0.101939 0.991353 -0.163715
C22   C     C_3   0.493686 0.388772 0.510285 -0.111999
C23   C     C_R   0.543164 0.065459 0.644995 0.559853
C24   C     C_3   0.847833 0.383732 0.000315 -0.181468
C25   C     C_3   0.107691 0.591700 0.009468 -0.111138
C26   C     C_3   0.482097 0.618769 0.494175 -0.177750
C27   C     C_3   0.473488 0.851219 0.001627 -0.132354
C28   C     C_3   0.121867 0.514180 0.489745 -0.168449
C29   C     C_3   0.383772 0.478023 0.010012 -0.111506
C30   C     C_3   0.383373 0.858682 0.496383 -0.179735
C31   C     C_3   0.505552 0.018950 0.571332 0.025436
C32   C     C_3   0.517558 0.455998 0.935628 0.035829
C33   C     C_3   0.967947 0.480908 0.568414 0.023312
C34   C     C_R   0.540745 0.424912 0.862357 0.530867
C35   C     C_3   0.513344 0.016257 0.929905 0.040431
C36   C     C_3   0.510678 0.491408 0.570174 0.023414
C37   C     C_3   0.937777 0.474720 0.937771 0.029767
C38   C     C_3   0.015760 0.503486 0.072160 0.027031
C39   C     C_3   0.461853 0.515610 0.435569 0.036644
C40   C     C_3   0.467214 0.937256 0.063939 0.020503
C41   C     C_3   0.027570 0.520481 0.432060 0.041888
C42   C     C_3   0.491813 0.508604 0.069565 0.022336
C43   C     C_3   0.481873 0.947610 0.436432 0.033288
C44   C     C_3   0.510249 0.894504 0.544623 -0.154152
C45   C     C_R   0.930557 0.476180 0.643730 0.565352
C46   C     C_3   0.401027 0.356027 0.986078 -0.094044
C47   C     C_3   0.090886 0.608287 0.538143 -0.154263
C48   C     C_3   0.605759 0.980370 0.975131 -0.080978
C49   C     C_3   0.385185 0.496979 0.544185 -0.153750
C50   C     C_3   0.985124 0.606015 0.982788 -0.091427
C51   C     C_3   0.895268 0.515780 0.046009 -0.151589
C52   C     C_3   0.365475 0.393611 0.484144 -0.088656
C53   C     C_3   0.596450 0.065640 0.037562 -0.129345
C54   C     C_3   0.997155 0.614479 0.479293 -0.082312
C55   C     C_3   0.509949 0.389155 0.045471 -0.154965
C56   C     C_R   0.547708 0.070045 0.856705 0.565188
C57   C     C_3   0.608321 0.983495 0.483612 -0.088216
C58   C     C_R   0.455446 0.522493 0.143791 0.559625
C59   C     C_R   0.462594 0.894146 0.362597 0.541990
C60   C     C_R   0.064882 0.542898 0.145260 0.556803
Cr1   Cr    Cr6+3 0.769930 0.543130 0.750000 1.101241
Cr2   Cr    Cr6+3 0.773200 0.230070 0.750000 1.101045
Cr3   Cr    Cr6+3 0.456870 0.226800 0.750000 1.097070
Cr4   Cr    Cr6+3 0.543130 0.769930 0.250000 1.101535
Cr5   Cr    Cr6+3 0.230070 0.773200 0.250000 1.101357
Cr6   Cr    Cr6+3 0.226800 0.456870 0.250000 1.095189
H1    H     H_    0.522726 0.824855 0.582825 0.167836
H2    H     H_    0.999082 0.709489 0.460409 0.203223
H3    H     H_    0.516538 0.316475 0.084067 0.158766
H4    H     H_    0.701849 0.981286 0.465600 0.202207
H5    H     H_    0.686585 0.213507 0.525117 0.127893
H6    H     H_    0.718787 0.503397 0.967620 0.117211
H7    H     H_    0.769491 0.467112 0.525447 0.126240
H8    H     H_    0.514880 0.201371 0.976240 0.102524
H9    H     H_    0.502157 0.297414 0.524054 0.134900
H10   H     H_    0.742649 0.305262 0.987833 0.099764
H11   H     H_    0.214052 0.671007 0.021813 0.115809
H12   H     H_    0.316096 0.252693 0.969907 0.193941
H13   H     H_    0.478902 0.705364 0.470262 0.105851
H14   H     H_    0.454383 0.748204 0.015983 0.115255
H15   H     H_    0.219546 0.527594 0.469227 0.104696
H16   H     H_    0.287172 0.476991 0.023994 0.141135
H17   H     H_    0.302599 0.761382 0.475015 0.103980
H18   H     H_    0.162301 0.691102 0.575387 0.166248
H19   H     H_    0.701511 0.984994 0.955017 0.203845
H20   H     H_    0.306408 0.493748 0.582096 0.162205
H21   H     H_    0.987892 0.701411 0.963919 0.202071
H22   H     H_    0.831486 0.537701 0.083907 0.172741
H23   H     H_    0.266362 0.303897 0.466375 0.199625
H24   H     H_    0.678523 0.135327 0.075587 0.177767
I1    I     I_    0.423661 0.173294 0.377633 -0.215884
I2    I     I_    0.997332 0.205078 0.559097 -0.255138
I3    I     I_    0.514176 0.702953 0.864432 -0.239152
I4    I     I_    0.200453 0.989496 0.561555 -0.248826
I5    I     I_    0.781300 0.801485 0.048321 -0.271099
I6    I     I_    0.806841 0.245083 0.372890 -0.237049
I7    I     I_    0.194334 0.976197 0.056812 -0.251705
I8    I     I_    0.727648 0.540839 0.370808 -0.242513
I9    I     I_    0.973579 0.194900 0.069365 -0.240536
I10   I     I_    0.153279 0.390899 0.884015 -0.216696
I11   I     I_    0.796213 0.789535 0.554354 -0.261115
I12   I     I_    0.238373 0.796637 0.866075 -0.239114
O1    O     O_R   0.913270 0.574260 0.668550 -0.474646
O2    O     O_R   0.574260 0.913270 0.331450 -0.477023
O3    O     O_R   0.086730 0.660990 0.168550 -0.483762
O4    O     O_R   0.339010 0.425740 0.331450 -0.474659
O5    O     O_R   0.640160 0.530400 0.673300 -0.481771
O6    O     O_R   0.890240 0.359840 0.826700 -0.464337
O7    O     O_R   0.469600 0.109760 0.673300 -0.486745
O8    O     O_R   0.640160 0.530400 0.826700 -0.477599
O9    O     O_R   0.890240 0.359840 0.673300 -0.481222
O10   O     O_R   0.469600 0.109760 0.826700 -0.499883
O11   O     O_R   0.530400 0.640160 0.173300 -0.489163
O12   O     O_R   0.660990 0.086730 0.831450 -0.499398
O13   O     O_R   0.359840 0.890240 0.326700 -0.465590
O14   O     O_R   0.109760 0.469600 0.173300 -0.488117
O15   O     O_R   0.530400 0.640160 0.326700 -0.477481
O16   O     O_R   0.359840 0.890240 0.173300 -0.467217
O17   O     O_R   0.109760 0.469600 0.326700 -0.494193
O18   O     O_3   0.666667 0.333333 0.750000 -0.360761
O19   O     O_3   0.333333 0.666667 0.250000 -0.370140
O20   O     O_R   0.425740 0.339010 0.668550 -0.476089
O21   O     O_R   0.913270 0.574260 0.831450 -0.479521
O22   O     O_R   0.660990 0.086730 0.668550 -0.479578
O23   O     O_R   0.425740 0.339010 0.831450 -0.470140
O24   O     O_R   0.574260 0.913270 0.168550 -0.464275
O25   O     O_R   0.086730 0.660990 0.331450 -0.497457
O26   O     O_R   0.339010 0.425740 0.168550 -0.476192

loop_
_geom_bond_atom_site_label_1
_geom_bond_atom_site_label_2
_ccdc_geom_bond_type
C27   C48   S    
C28   C47   S    
C58   O26   A    
C9    I8    S    
C37   C50   S    
C29   C42   S    
C33   C45   S    
C60   O3    A    
C42   C58   S    
Cr2   O22   S    
C52   H23   S    
C3    O24   A    
C6    C19   S    
C16   I3    S    
Cr6   O14   S    
C25   H11   S    
C59   O2    A    
Cr5   O25   S    
C22   C52   S    
Cr1   O1    S    
Cr2   O12   S    
C42   C55   S    
C9    C22   S    
C14   I12   S    
Cr2   O6    S    
C4    C41   S    
Cr1   O8    S    
Cr4   O19   S    
C28   C41   S    
C9    C39   S    
C30   H17   S    
C11   C37   S    
C9    C13   S    
C1    O20   A    
C45   O1    A    
C15   I2    S    
C25   C50   S    
C2    C39   S    
Cr2   O9    S    
C35   C48   S    
C46   C55   S    
C58   O11   A    
Cr5   O16   S    
C4    O17   A    
Cr5   O19   S    
C14   C27   S    
C44   C57   S    
Cr2   O18   S    
C43   C59   S    
C24   C51   S    
C7    C15   S    
C39   C52   S    
C5    C43   S    
Cr1   O18   S    
C17   C30   S    
Cr5   O13   S    
C30   C44   S    
C19   H6    S    
C22   H9    S    
Cr6   O4    S    
C13   C26   S    
C19   C32   S    
Cr5   O3    S    
C18   C31   S    
C2    O15   A    
C50   C51   S    
C48   C53   S    
C23   O7    A    
C31   C44   S    
C13   C36   S    
C20   C54   S    
C27   H14   S    
C26   C49   S    
C14   C35   S    
C12   O6    A    
C24   H10   S    
C5    C18   S    
C10   C24   S    
C16   C29   S    
C21   H8    S    
C2    O4    A    
Cr4   O15   S    
C11   I10   S    
C32   C34   S    
Cr3   O7    S    
C8    I7    S    
C7    I6    S    
C3    O16   A    
C25   C38   S    
C26   C39   S    
C18   C57   S    
C27   C40   S    
C49   C52   S    
C24   C37   S    
Cr6   O19   S    
Cr3   O23   S    
C47   H18   S    
C5    C17   S    
C7    C20   S    
C55   H3    S    
C50   H21   S    
C1    O5    A    
C47   C54   S    
C38   C60   S    
C20   C33   S    
C3    C40   S    
C40   C53   S    
Cr4   O24   S    
Cr6   O17   S    
C6    C42   S    
C33   C47   S    
C30   C43   S    
C60   O14   A    
C13   I11   S    
Cr3   O20   S    
C46   H12   S    
C19   C55   S    
C18   H5    S    
Cr4   O2    S    
C8    C14   S    
Cr4   O11   S    
C4    O25   A    
C35   C56   S    
Cr3   O10   S    
C32   C46   S    
C49   H20   S    
C15   C33   S    
C8    C21   S    
C51   H22   S    
C45   O9    A    
C23   O22   A    
C38   C51   S    
C16   C32   S    
C22   C36   S    
C26   H13   S    
Cr1   O21   S    
C29   C46   S    
C10   C38   S    
C21   C35   S    
C28   H15   S    
C29   H16   S    
C21   C53   S    
Cr3   O18   S    
C15   C28   S    
C12   O21   A    
C34   O23   A    
C17   C31   S    
Cr6   O26   S    
C20   H7    S    
C7    C41   S    
C10   I9    S    
Cr1   O5    S    
C41   C54   S    
C10   C11   S    
C43   C57   S    
C57   H4    S    
C6    C16   S    
C56   O12   A    
C54   H2    S    
C5    I1    S    
C59   O13   A    
C6    I5    S    
C12   C37   S    
C53   H24   S    
C11   C25   S    
C48   H19   S    
C44   H1    S    
C17   I4    S    
C8    C40   S    
C34   O8    A    
C56   O10   A    
C36   C49   S    
C1    C36   S    
C23   C31   S    
