data_mof_unit_57103.cif
_audit_creation_date              2012-12-10T17:38:17-0500
_audit_creation_method            fapswitch 2.2
_symmetry_space_group_name_H-M    P1
_symmetry_Int_Tables_number       1
_space_group_crystal_system       triclinic
_cell_length_a                    12.299689
_cell_length_b                    13.182926
_cell_length_c                    19.359409
_cell_angle_alpha                 78.00733
_cell_angle_beta                  100.851644
_cell_angle_gamma                 116.468291
_cell_volume                      2732.2363615

loop_
_atom_site_label
_atom_site_type_symbol
_atom_type_description
_atom_site_fract_x
_atom_site_fract_y
_atom_site_fract_z
_atom_type_partial_charge
C1    C     C_R   0.854805 0.286672 0.505407 0.779949
C2    C     C_R   0.994175 0.495642 0.708190 -0.031655
C3    C     C_R   0.978982 0.480080 0.069797 0.437896
C4    C     C_R   0.980295 0.482170 0.929559 0.408562
C5    C     C_R   0.060986 0.446519 0.195836 -0.252170
C6    C     C_R   0.073070 0.456086 0.267922 0.444941
C7    C     C_R   0.998088 0.495073 0.291489 -0.128811
C8    C     C_R   0.917956 0.529612 0.241188 -0.260284
C9    C     C_R   0.911077 0.524576 0.169237 -0.160020
C10   C     C_R   0.982658 0.482990 0.145920 -0.004496
C11   C     C_R   0.269807 0.023740 0.409475 0.175130
C12   C     C_R   0.998605 0.499085 0.632342 0.782006
C13   C     C_R   0.227790 0.834504 0.474938 -0.095627
C14   C     C_R   0.815767 0.084061 0.545321 -0.184260
C15   C     C_R   0.737586 0.968691 0.556006 -0.143723
C16   C     C_R   0.613971 0.931738 0.532140 -0.180710
C17   C     C_R   0.566029 0.010023 0.494437 0.091885
C18   C     C_R   0.649014 0.125249 0.475870 0.084094
C19   C     C_R   0.438712 0.977339 0.473906 0.036114
C20   C     C_R   0.396909 0.056269 0.429201 0.149282
C21   C     C_R   0.483115 0.164756 0.404153 -0.236548
C22   C     C_R   0.606544 0.197686 0.425974 -0.200962
C23   C     C_R   0.145143 0.713379 0.489641 0.809757
C24   C     C_R   0.351600 0.868613 0.497883 -0.263042
C25   C     C_R   0.186722 0.912398 0.432189 -0.190282
C26   C     C_R   0.772617 0.163919 0.506874 -0.101963
C27   C     C_R   0.343461 0.324839 0.610682 -0.298221
C28   C     C_R   0.761964 0.648294 0.406068 0.073304
C29   C     C_R   0.669203 0.685258 0.388696 -0.261964
C30   C     C_R   0.566593 0.631868 0.425704 -0.202761
C31   C     C_R   0.554709 0.539162 0.480159 -0.005243
C32   C     C_R   0.653702 0.506336 0.497329 0.289182
C33   C     C_R   0.449088 0.478119 0.518285 -0.051387
C34   C     C_R   0.000109 0.499047 0.367548 0.803893
C35   C     C_R   0.445868 0.387340 0.573240 0.173745
C36   C     C_R   0.544948 0.359526 0.590780 -0.280367
C37   C     C_R   0.646724 0.418144 0.554024 -0.190471
C38   C     C_R   0.344834 0.501565 0.503803 0.038776
C39   C     C_R   0.243816 0.351713 0.593430 0.072058
C40   C     C_R   0.077640 0.468249 0.759480 -0.187555
C41   C     C_R   0.072502 0.463313 0.831374 -0.157432
C42   C     C_R   0.983994 0.485973 0.853418 0.058367
C43   C     C_R   0.900437 0.513384 0.802085 -0.159402
C44   C     C_R   0.905335 0.517973 0.730096 -0.191693
Cu1   Cu    Cu3+1 0.098280 0.475420 0.516260 0.953725
Cu2   Cu    Cu3+1 0.901720 0.524580 0.483740 0.919375
H1    H     H_    0.146887 0.450273 0.744195 0.151875
H2    H     H_    0.456434 0.225731 0.367356 0.161914
H3    H     H_    0.377499 0.807774 0.534739 0.157912
H4    H     H_    0.910027 0.110956 0.568367 0.153793
H5    H     H_    0.559296 0.840878 0.542568 0.129280
H6    H     H_    0.772359 0.907649 0.584865 0.145122
H7    H     H_    0.667951 0.279855 0.401191 0.180465
H8    H     H_    0.164071 0.303617 0.621837 0.120080
H9    H     H_    0.543926 0.291379 0.633504 0.156123
H10   H     H_    0.340369 0.255401 0.652804 0.139727
H11   H     H_    0.138421 0.442171 0.869594 0.153452
H12   H     H_    0.339272 0.568997 0.463181 0.117626
H13   H     H_    0.841921 0.690898 0.377582 0.123470
H14   H     H_    0.498256 0.664810 0.410571 0.131346
H15   H     H_    0.677109 0.755845 0.346670 0.147908
H16   H     H_    0.718195 0.391422 0.572557 0.208795
H17   H     H_    0.831071 0.531104 0.817418 0.152291
H18   H     H_    0.839431 0.538919 0.691697 0.156651
H19   H     H_    0.114694 0.411243 0.179163 0.166887
H20   H     H_    0.860355 0.561203 0.257312 0.170771
H21   H     H_    0.849519 0.553235 0.131974 0.162870
H22   H     H_    0.090073 0.885337 0.414817 0.151732
N1    N     N_R   0.903039 0.514035 0.951599 -0.243936
N2    N     N_R   0.902482 0.513140 0.020411 -0.241667
N3    N     N_R   0.055458 0.447528 0.047667 -0.245009
N4    N     N_R   0.056115 0.448540 0.978998 -0.244577
N5    N     N_R   0.246290 0.438200 0.540910 -0.176533
N6    N     N_R   0.754310 0.561190 0.459520 -0.206297
O1    O     O_R   0.972510 0.318130 0.520450 -0.575451
O2    O     O_R   0.806530 0.359650 0.492990 -0.607105
O3    O     O_R   0.083010 0.479220 0.613590 -0.584059
O4    O     O_R   0.917030 0.520740 0.586130 -0.600054
O5    O     O_R   0.193470 0.640350 0.507010 -0.592358
O6    O     O_R   0.027490 0.681870 0.479550 -0.586787
O7    O     O_R   0.082970 0.479260 0.413870 -0.534088
O8    O     O_R   0.916990 0.520780 0.386410 -0.602324
C45   C     C_3   0.220597 0.105028 0.364058 -0.872826
H23   H     H_    0.247596 0.180033 0.391487 0.248545
H24   H     H_    0.256782 0.133280 0.311628 0.227756
H25   H     H_    0.119260 0.064670 0.354377 0.239299
O9    O     O_3   0.150133 0.417384 0.315573 -0.562323
C46   C     C_3   0.273389 0.491570 0.305153 0.082041
H26   H     H_    0.306384 0.561669 0.337828 0.138494
H27   H     H_    0.288246 0.531530 0.249002 0.124093
C47   C     C_3   0.350716 0.424516 0.328143 -0.797085
H28   H     H_    0.318852 0.354866 0.295195 0.243034
H29   H     H_    0.447804 0.481775 0.320833 0.213228
H30   H     H_    0.343554 0.386981 0.384862 0.254908

loop_
_geom_bond_atom_site_label_1
_geom_bond_atom_site_label_2
_ccdc_geom_bond_type
C40   H1    S    
O9    C46   S    
C8    H20   S    
C41   C42   A    
C19   C20   A    
C18   C26   A    
C16   H5    S    
Cu2   N6    S    
C28   N6    A    
Cu2   O2    S    
C37   H16   S    
C43   H17   S    
C7    C8    A    
C14   H4    S    
Cu1   Cu2   S    
C44   H18   S    
C36   C37   A    
C32   N6    A    
C30   C31   A    
C39   H8    S    
C11   C25   A    
C15   C16   A    
C13   C23   S    
Cu1   N5    S    
C33   C35   A    
Cu2   O8    S    
C31   C32   A    
C2    C44   A    
C16   C17   A    
C12   O4    A    
C31   C33   A    
C34   O7    A    
C23   O6    A    
C9    C10   A    
C21   H2    S    
C46   H26   S    
C2    C12   S    
C38   H12   S    
C21   C22   A    
C13   C25   A    
C25   H22   S    
C4    N1    A    
C22   H7    S    
C29   H15   S    
C11   C20   A    
C1    O1    A    
C3    N2    A    
C5    H19   S    
C27   C39   A    
C47   H28   S    
Cu2   O4    S    
C27   H10   S    
C8    C9    A    
C27   C35   A    
C15   H6    S    
C6    O9    S    
C13   C24   A    
C30   H14   S    
C35   C36   A    
C3    N3    A    
C43   C44   A    
C9    H21   S    
C29   C30   A    
C47   H29   S    
C45   H23   S    
C46   C47   S    
C12   O3    A    
C17   C18   A    
Cu1   O5    S    
C32   C37   A    
C14   C26   A    
C40   C41   A    
C45   H24   S    
C46   H27   S    
C1    C26   S    
C7    C34   S    
C42   C43   A    
C4    N4    A    
C28   H13   S    
C24   H3    S    
C28   C29   A    
C18   C22   A    
C1    O2    A    
Cu1   O7    S    
C6    C7    A    
C33   C38   A    
Cu1   O1    S    
C11   C45   S    
C19   C24   A    
C41   H11   S    
C5    C10   A    
C36   H9    S    
C47   H30   S    
Cu2   O6    S    
C5    C6    A    
C4    C42   S    
C17   C19   A    
C39   N5    A    
N1    N2    A    
C2    C40   A    
N3    N4    A    
C45   H25   S    
C20   C21   A    
C3    C10   S    
C14   C15   A    
Cu1   O3    S    
C34   O8    A    
C23   O5    A    
C38   N5    A    
