data_mof_unit_10906.cif
_audit_creation_date              2012-12-10T19:44:59-0500
_audit_creation_method            fapswitch 2.2
_symmetry_space_group_name_H-M    P1
_symmetry_Int_Tables_number       1
_space_group_crystal_system       triclinic
_cell_length_a                    15.034396
_cell_length_b                    10.854872
_cell_length_c                    13.753123
_cell_angle_alpha                 89.978443
_cell_angle_beta                  91.316108
_cell_angle_gamma                 88.774665
_cell_volume                      2243.35470174

loop_
_atom_site_label
_atom_site_type_symbol
_atom_type_description
_atom_site_fract_x
_atom_site_fract_y
_atom_site_fract_z
_atom_type_partial_charge
C1    C     C_R   0.495536 0.262379 0.499480 0.768939
C2    C     C_R   0.502323 0.737679 0.500439 0.789794
C3    C     C_R   0.044694 0.373032 0.351777 -0.233323
C4    C     C_R   0.955645 0.600085 0.657861 -0.213571
C5    C     C_R   0.333724 0.240923 0.224140 -0.150385
C6    C     C_R   0.669158 0.765107 0.771153 -0.115930
C7    C     C_R   0.362261 0.188953 0.312923 -0.092080
C8    C     C_R   0.636156 0.814299 0.683125 -0.098831
C9    C     C_R   0.441844 0.118769 0.319015 0.136891
C10   C     C_R   0.555473 0.882394 0.680106 0.138220
C11   C     C_R   0.491135 0.099027 0.234590 -0.164808
C12   C     C_R   0.509796 0.902850 0.766903 -0.179904
C13   C     C_R   0.461977 0.150367 0.145910 -0.136785
C14   C     C_R   0.543617 0.854642 0.854804 -0.145900
C15   C     C_R   0.383634 0.221884 0.140810 -0.114413
C16   C     C_R   0.622837 0.785015 0.856820 -0.110290
C17   C     C_R   0.478025 0.933451 0.415511 -0.239391
C18   C     C_R   0.511482 0.065865 0.585252 -0.254927
C19   C     C_R   0.502853 0.871563 0.501553 -0.092455
C20   C     C_R   0.490883 0.128358 0.498431 -0.078941
C21   C     C_R   0.521513 0.938775 0.587563 0.006819
C22   C     C_R   0.471724 0.061164 0.412431 -0.003844
C23   C     C_R   0.328656 0.498370 0.499426 0.797474
C24   C     C_R   0.671328 0.497931 0.500942 0.802158
C25   C     C_R   0.566029 0.434716 0.795251 0.566311
C26   C     C_R   0.440513 0.575845 0.204980 0.568961
C27   C     C_R   0.439040 0.570526 0.791888 -0.056179
C28   C     C_R   0.559691 0.427382 0.208255 -0.054629
C29   C     C_R   0.440703 0.576446 0.894367 0.009565
C30   C     C_R   0.561788 0.427329 0.105816 0.005842
C31   C     C_R   0.501088 0.500926 0.948203 0.046966
C32   C     C_R   0.501065 0.502186 0.051838 0.050790
C33   C     C_R   0.564705 0.429514 0.898836 -0.085179
C34   C     C_R   0.442891 0.582020 0.101272 -0.099231
C35   C     C_R   0.386802 0.661083 0.943948 -0.210768
C36   C     C_R   0.625119 0.356773 0.056412 -0.214739
C37   C     C_R   0.391199 0.667979 0.045673 -0.210692
C38   C     C_R   0.627976 0.360215 0.954798 -0.189816
C39   C     C_R   0.815220 0.544417 0.581237 -0.247951
C40   C     C_R   0.185081 0.433117 0.426456 -0.265980
C41   C     C_R   0.768038 0.492839 0.502957 -0.069627
C42   C     C_R   0.231941 0.494853 0.499981 -0.069927
C43   C     C_R   0.813237 0.436532 0.426249 -0.250443
C44   C     C_R   0.186567 0.550155 0.577065 -0.244455
C45   C     C_R   0.905957 0.432403 0.426936 0.111013
C46   C     C_R   0.094119 0.546901 0.579754 0.111140
C47   C     C_R   0.953508 0.487827 0.504378 0.059443
C48   C     C_R   0.046709 0.488167 0.503867 0.067531
C49   C     C_R   0.907892 0.544005 0.581850 0.100233
C50   C     C_R   0.092423 0.430537 0.427147 0.112651
C51   C     C_R   0.951888 0.374758 0.351297 -0.209034
C52   C     C_R   0.048315 0.602086 0.656561 -0.216483
Cu1   Cu    Cu3+1 0.500010 0.499980 0.597420 0.965180
Cu2   Cu    Cu3+1 0.499990 0.500020 0.402580 0.973143
H1    H     H_    0.779717 0.587401 0.640306 0.159506
H2    H     H_    0.220604 0.386649 0.369217 0.125622
H3    H     H_    0.461281 0.882071 0.350214 0.188437
H4    H     H_    0.523200 0.116151 0.651914 0.142656
H5    H     H_    0.391671 0.626845 0.750195 0.143547
H6    H     H_    0.606074 0.369607 0.250025 0.143633
H7    H     H_    0.343547 0.725176 0.903908 0.132560
H8    H     H_    0.673673 0.300300 0.096473 0.131922
H9    H     H_    0.353482 0.741169 0.080076 0.164932
H10   H     H_    0.679832 0.306637 0.921515 0.159060
H11   H     H_    0.776180 0.395111 0.366541 0.142540
H12   H     H_    0.223279 0.596744 0.634519 0.141131
H13   H     H_    0.916035 0.331428 0.291706 0.140249
H14   H     H_    0.084146 0.647018 0.715398 0.139807
H15   H     H_    0.079124 0.328590 0.292488 0.140318
H16   H     H_    0.921282 0.643509 0.717651 0.140030
H17   H     H_    0.361566 0.262409 0.072254 0.124644
H18   H     H_    0.648495 0.746909 0.924848 0.133057
H19   H     H_    0.272669 0.295373 0.219591 0.100938
H20   H     H_    0.731054 0.712460 0.773331 0.121064
H21   H     H_    0.322678 0.203236 0.376894 0.101420
H22   H     H_    0.673349 0.799604 0.617459 0.101494
H23   H     H_    0.552199 0.044242 0.237611 0.124231
H24   H     H_    0.448104 0.956246 0.766440 0.123142
H25   H     H_    0.500383 0.135272 0.081213 0.133552
H26   H     H_    0.508246 0.870987 0.921385 0.140480
N1    N     N_R   0.499960 0.499900 0.743810 -0.214317
N2    N     N_R   0.500040 0.500100 0.256190 -0.211635
O1    O     O_R   0.500000 0.319630 0.582270 -0.602742
O2    O     O_R   0.500000 0.680370 0.417730 -0.542807
O3    O     O_R   0.499990 0.319660 0.417730 -0.577569
O4    O     O_R   0.500010 0.680340 0.582270 -0.579407
O5    O     O_R   0.370260 0.499960 0.582280 -0.591934
O6    O     O_R   0.629740 0.500040 0.417720 -0.596033
O7    O     O_R   0.370250 0.499990 0.417740 -0.565799
O8    O     O_R   0.629750 0.500010 0.582260 -0.532521
O9    O     O_3   0.644506 0.402473 0.749412 -0.594867
C53   C     C_3   0.652982 0.274085 0.733637 0.048517
H27   H     H_    0.631620 0.254271 0.658363 0.186575
H28   H     H_    0.613776 0.217588 0.784422 0.106159
C54   C     C_3   0.751419 0.234873 0.739576 -0.356092
H29   H     H_    0.787879 0.283187 0.681876 0.234386
H30   H     H_    0.781706 0.260988 0.810701 0.213266
C55   C     C_3   0.762983 0.095962 0.725575 -0.922358
H31   H     H_    0.728917 0.045709 0.783924 0.265722
H32   H     H_    0.834856 0.070215 0.728779 0.257134
H33   H     H_    0.734858 0.067922 0.653715 0.257377
O10   O     O_3   0.385005 0.654875 0.255956 -0.597326
C56   C     C_3   0.294675 0.622194 0.242376 0.043887
H34   H     H_    0.283269 0.528685 0.270745 0.151756
H35   H     H_    0.272673 0.619886 0.165106 0.122523
C57   C     C_3   0.236138 0.716505 0.295148 -0.307814
H36   H     H_    0.246501 0.706050 0.374947 0.220138
H37   H     H_    0.255822 0.811093 0.274816 0.220076
C58   C     C_3   0.137734 0.701928 0.268898 -0.919725
H38   H     H_    0.125004 0.725526 0.191155 0.249231
H39   H     H_    0.096973 0.764801 0.314387 0.259573
H40   H     H_    0.117143 0.605976 0.281520 0.268506

loop_
_geom_bond_atom_site_label_1
_geom_bond_atom_site_label_2
_ccdc_geom_bond_type
Cu2   O6    S    
C13   H25   S    
C27   C29   A    
C18   C21   A    
C2    O2    A    
C54   H29   S    
C16   H18   S    
Cu2   O2    S    
C54   C55   S    
C39   C41   A    
Cu1   Cu2   S    
C23   C42   S    
C4    C52   A    
C35   C37   A    
C58   H39   S    
C9    C22   S    
C57   H36   S    
C45   C51   A    
C34   C37   A    
C46   C52   A    
C8    H22   S    
Cu1   N1    S    
C11   H23   S    
C44   H12   S    
C26   C34   A    
C39   H1    S    
C47   C48   A    
C40   H2    S    
C12   H24   S    
C23   O7    A    
Cu1   O4    S    
C14   H26   S    
C56   H34   S    
C52   H14   S    
C45   C47   A    
C26   N2    A    
C23   O5    A    
C25   N1    A    
C24   C41   S    
C41   C43   A    
C42   C44   A    
Cu1   O5    S    
C36   H8    S    
C4    H16   S    
C37   H9    S    
C3    C50   A    
C44   C46   A    
C6    H20   S    
C38   H10   S    
C28   H6    S    
C10   C21   S    
C1    O3    A    
C46   C48   A    
C25   O9    S    
C31   C33   A    
C28   N2    A    
C27   N1    A    
Cu2   O7    S    
C47   C49   A    
C58   H40   S    
O9    C53   S    
C5    C7    A    
C3    C51   A    
C6    C8    A    
C53   C54   S    
C32   C34   A    
C24   O6    A    
C31   C32   A    
C43   H11   S    
C53   H28   S    
C56   H35   S    
C51   H13   S    
C48   C50   A    
C9    C11   A    
C10   C12   A    
C8    C10   A    
C39   C49   A    
C12   C14   A    
C55   H32   S    
C13   C15   A    
C14   C16   A    
Cu2   N2    S    
C7    C9    A    
C1    C20   S    
C3    H15   S    
C2    C19   S    
C33   C38   A    
C20   C22   A    
C24   O8    A    
Cu2   O3    S    
C7    H21   S    
C54   H30   S    
C1    O1    A    
C55   H33   S    
C15   H17   S    
C29   C35   A    
C17   C22   A    
C30   C36   A    
C4    C49   A    
Cu1   O1    S    
C36   C38   A    
C28   C30   A    
C43   C45   A    
C27   H5    S    
C58   H38   S    
C26   O10   S    
C30   C32   A    
C11   C13   A    
C57   H37   S    
C35   H7    S    
C40   C50   A    
C40   C42   A    
C53   H27   S    
C17   C19   A    
C18   H4    S    
C2    O4    A    
C56   C57   S    
C18   C20   A    
C5    H19   S    
O10   C56   S    
C5    C15   A    
C6    C16   A    
C29   C31   A    
C55   H31   S    
C17   H3    S    
Cu1   O8    S    
C25   C33   A    
C19   C21   A    
C57   C58   S    
