data_mof_unit_65961.cif
_audit_creation_date              2012-12-10T18:18:11-0500
_audit_creation_method            fapswitch 2.2
_symmetry_space_group_name_H-M    P1
_symmetry_Int_Tables_number       1
_space_group_crystal_system       triclinic
_cell_length_a                    19.389342
_cell_length_b                    14.687578
_cell_length_c                    15.916959
_cell_angle_alpha                 89.954306
_cell_angle_beta                  89.971188
_cell_angle_gamma                 89.954323
_cell_volume                      4532.86749295

loop_
_atom_site_label
_atom_site_type_symbol
_atom_type_description
_atom_site_fract_x
_atom_site_fract_y
_atom_site_fract_z
_atom_type_partial_charge
C1    C     C_R   0.500016 0.500045 0.339937 0.848236
C2    C     C_R   0.930292 0.499970 0.499290 0.453909
C3    C     C_R   0.182305 0.565974 0.546258 0.335148
C4    C     C_R   0.182504 0.434359 0.452634 0.335710
C5    C     C_R   0.254595 0.564671 0.547978 0.310910
C6    C     C_R   0.254804 0.435503 0.451289 0.309054
C7    C     C_R   0.291261 0.500069 0.499715 -0.344307
C8    C     C_R   0.145911 0.500201 0.499360 -0.277195
C9    C     C_3   0.457575 0.585205 0.050128 0.545390
C10   C     C_3   0.467363 0.408128 0.049667 0.545142
C11   C     C_3   0.459721 0.414480 0.951154 -0.298777
C12   C     C_3   0.466865 0.592921 0.952382 -0.292151
C13   C     C_1   0.499676 0.500086 0.749189 -0.036562
C14   C     C_3   0.501994 0.500245 0.083254 -0.166241
C15   C     C_3   0.497448 0.501448 0.916701 -0.072349
C16   C     C_R   0.632709 0.499970 0.499951 0.847755
C17   C     C_3   0.573656 0.495108 0.947554 -0.455928
C18   C     C_3   0.579510 0.508036 0.046234 -0.200632
C19   C     C_1   0.498844 0.500662 0.824450 0.041638
C20   C     C_1   0.501504 0.500273 0.175482 0.210773
C21   C     C_1   0.500664 0.500201 0.250741 0.062823
C22   C     C_3   0.490512 0.054135 0.590816 -0.242833
C23   C     C_3   0.481111 0.947590 0.589318 -0.233518
C24   C     C_3   0.568070 0.052411 0.458701 -0.279907
C25   C     C_3   0.571620 0.945098 0.470109 -0.295124
C26   C     C_3   0.499491 0.092521 0.498516 -0.149798
C27   C     C_3   0.499012 0.907439 0.499823 -0.177872
C28   C     C_3   0.441715 0.944397 0.435971 0.156786
C29   C     C_3   0.436399 0.054942 0.443097 0.125805
C30   C     C_1   0.498583 0.804472 0.501015 0.324545
C31   C     C_1   0.498773 0.195522 0.500443 0.346026
C32   C     C_R   0.500107 0.499986 0.659948 0.857985
C33   C     C_R   0.367267 0.500026 0.499872 0.921502
C34   C     C_R   0.744858 0.555000 0.441502 -0.102825
C35   C     C_R   0.745067 0.444798 0.557862 -0.086997
C36   C     C_R   0.817655 0.556358 0.442438 -0.070754
C37   C     C_R   0.817826 0.443189 0.556308 -0.074467
C38   C     C_R   0.854079 0.499830 0.499318 -0.089173
C39   C     C_R   0.708732 0.499923 0.499791 -0.176026
C40   C     C_R   0.069926 0.500180 0.499309 0.558698
Cu1   Cu    Cu3+1 0.500090 0.589920 0.499910 1.121777
Cu2   Cu    Cu3+1 0.500090 0.410080 0.499910 1.114648
H1    H     H_    0.606363 0.544122 0.912301 0.239855
H2    H     H_    0.593788 0.427668 0.927398 0.243930
H3    H     H_    0.562780 0.062954 0.390197 0.196622
H4    H     H_    0.581689 0.917185 0.406541 0.164447
H5    H     H_    0.441113 0.081682 0.615348 0.208838
H6    H     H_    0.424791 0.937388 0.597574 0.234681
H7    H     H_    0.488324 0.355706 0.923836 0.197346
H8    H     H_    0.507583 0.644833 0.940868 0.181163
N1    N     N_R   0.965761 0.508834 0.572259 -0.167851
N2    N     N_R   0.965859 0.491231 0.426324 -0.172054
N3    N     N_R   0.034330 0.508367 0.572303 -0.132575
N4    N     N_R   0.034430 0.491900 0.426298 -0.130249
N5    N     N_1   0.498600 0.724970 0.501390 -0.106007
N6    N     N_1   0.498600 0.275030 0.501390 -0.111447
O1    O     O_R   0.500080 0.575970 0.379360 -0.551556
O2    O     O_R   0.500080 0.424030 0.379360 -0.556260
O3    O     O_R   0.599930 0.575960 0.499920 -0.564137
O4    O     O_R   0.599930 0.424040 0.499920 -0.564221
O5    O     O_R   0.500070 0.575900 0.620490 -0.567169
O6    O     O_R   0.500070 0.424100 0.620490 -0.560631
O7    O     O_R   0.400220 0.575910 0.499940 -0.530565
O8    O     O_R   0.400220 0.424090 0.499940 -0.543979
C41   C     C_2   0.706457 0.611063 0.379085 0.925788
O9    O     O_2   0.663245 0.575471 0.333872 -0.553682
O10   O     O_R   0.719932 0.704259 0.372074 -0.706488
H9    H     H_    0.690330 0.734879 0.327792 0.356419
C42   C     C_2   0.706974 0.388952 0.620761 0.924342
O11   O     O_2   0.663651 0.424562 0.665945 -0.599514
O12   O     O_R   0.721077 0.295961 0.628501 -0.683896
H10   H     H_    0.691912 0.265556 0.673344 0.370021
C43   C     C_2   0.509608 0.895757 0.664680 0.871075
O13   O     O_2   0.571517 0.886682 0.675602 -0.514152
O14   O     O_R   0.463460 0.856745 0.721914 -0.697747
H11   H     H_    0.487652 0.823147 0.769154 0.359085
C44   C     C_2   0.541562 0.091319 0.654643 0.916369
O15   O     O_2   0.601185 0.065026 0.656715 -0.466534
O16   O     O_R   0.519250 0.156800 0.712402 -0.723047
H12   H     H_    0.557335 0.177299 0.751693 0.357433
C45   C     C_2   0.635205 0.103439 0.473853 0.983691
O17   O     O_2   0.638745 0.166653 0.523501 -0.547953
O18   O     O_R   0.693394 0.079226 0.426918 -0.706412
H13   H     H_    0.735163 0.117796 0.440990 0.372080
C46   C     C_2   0.632659 0.905036 0.518294 1.001494
O19   O     O_2   0.670895 0.952183 0.560871 -0.460797
O20   O     O_R   0.646365 0.811841 0.511154 -0.746488
H14   H     H_    0.688100 0.792072 0.544936 0.367419
Cl1   Cl    Cl    0.356652 0.092079 0.492649 -0.419675
Cl2   Cl    Cl    0.359015 0.892138 0.461814 -0.370325
C47   C     C_2   0.430393 0.100374 0.356535 0.945508
O21   O     O_2   0.381972 0.080320 0.310804 -0.430035
O22   O     O_R   0.478189 0.165242 0.328960 -0.759287
H15   H     H_    0.467200 0.189655 0.270881 0.395496
C48   C     C_2   0.458230 0.909285 0.346513 0.845960
O23   O     O_2   0.433581 0.837301 0.322021 -0.451049
O24   O     O_R   0.503437 0.956228 0.293324 -0.781996
H16   H     H_    0.510240 0.924687 0.237288 0.388693
C49   C     C_2   0.855932 0.617493 0.384199 0.932150
O25   O     O_2   0.844704 0.614619 0.308640 -0.521798
O26   O     O_R   0.905109 0.677829 0.416116 -0.700636
H17   H     H_    0.927981 0.715382 0.370489 0.373574
C50   C     C_2   0.856001 0.382021 0.614613 0.932656
O27   O     O_2   0.898390 0.328105 0.586925 -0.517036
O28   O     O_R   0.843301 0.386270 0.701000 -0.704797
H18   H     H_    0.872268 0.341253 0.734006 0.372296
Cl3   Cl    Cl    0.138039 0.653462 0.600718 -0.362987
Cl4   Cl    Cl    0.138474 0.346945 0.397971 -0.349273
Cl5   Cl    Cl    0.298300 0.642512 0.614288 -0.394317
Cl6   Cl    Cl    0.298794 0.357395 0.385356 -0.374606
C51   C     C_2   0.405067 0.634617 0.907185 0.992291
O29   O     O_2   0.376358 0.595579 0.849142 -0.529886
O30   O     O_R   0.382614 0.721296 0.931146 -0.644132
H19   H     H_    0.341907 0.743338 0.896712 0.381439
C52   C     C_2   0.387099 0.401571 0.917248 1.003788
O31   O     O_2   0.339506 0.449837 0.940613 -0.453178
O32   O     O_R   0.374797 0.332487 0.858740 -0.707599
H20   H     H_    0.324801 0.329930 0.840267 0.368802
Cl7   Cl    Cl    0.368113 0.579528 0.080487 -0.352063
Cl8   Cl    Cl    0.388242 0.378293 0.103222 -0.372115
Cl9   Cl    Cl    0.517555 0.308432 0.074344 -0.504142
Cl10  Cl    Cl    0.481498 0.691960 0.097776 -0.453151
C53   C     C_2   0.613303 0.599288 0.068471 0.915437
O33   O     O_2   0.631203 0.653231 0.014037 -0.542934
O34   O     O_R   0.624949 0.621082 0.152920 -0.678511
H21   H     H_    0.647704 0.682677 0.160335 0.366854
C54   C     C_2   0.630497 0.438780 0.083769 0.962186
O35   O     O_2   0.668491 0.393722 0.038522 -0.526062
O36   O     O_R   0.636714 0.429988 0.171016 -0.700750
H22   H     H_    0.672607 0.383299 0.188121 0.367700

loop_
_geom_bond_atom_site_label_1
_geom_bond_atom_site_label_2
_ccdc_geom_bond_type
O20   H14   S    
C1    C21   S    
O22   H15   S    
C43   O14   S    
Cu1   Cu2   S    
C14   C18   S    
C13   C32   S    
C48   O23   D    
Cu1   O5    S    
C4    C8    A    
C10   Cl9   S    
Cu2   O2    S    
C29   Cl1   S    
C45   O17   D    
C53   O33   D    
C44   O15   D    
C15   C19   S    
C4    Cl4   S    
O26   H17   S    
O18   H13   S    
C24   H3    S    
C28   C29   S    
C35   C37   A    
C24   C26   S    
C32   O5    A    
O30   H19   S    
C16   O4    A    
C53   O34   S    
C52   O31   D    
C17   C18   S    
C43   O13   D    
C42   O12   S    
Cu1   N5    S    
Cu2   N6    S    
C11   C15   S    
C50   O28   S    
C51   O29   D    
C41   O10   S    
C23   C27   S    
C31   N6    T    
C11   C52   S    
Cu2   O6    S    
C18   C53   S    
C46   O20   S    
C22   H5    S    
C26   C31   S    
C27   C30   S    
C6    Cl6   S    
C54   O36   S    
C23   C43   S    
C34   C41   S    
C45   O18   S    
N2    N4    A    
O24   H16   S    
C44   O16   S    
C7    C33   S    
O10   H9    S    
C14   C20   S    
C24   C25   S    
Cu1   O3    S    
C4    C6    A    
C3    C8    A    
C10   C14   S    
Cu2   O4    S    
C47   O21   D    
C5    C7    A    
C9    C14   S    
C13   C19   T    
C52   O32   S    
C46   O19   D    
C34   C39   A    
N1    N3    A    
C16   O3    A    
C35   C39   A    
O14   H11   S    
C17   H1    S    
C37   C38   A    
C11   H7    S    
C1    O1    A    
C18   C54   S    
C47   O22   S    
C2    C38   S    
C49   O25   D    
C12   C15   S    
C33   O7    A    
C25   C46   S    
C9    Cl10  S    
C51   O30   S    
C24   C45   S    
C49   O26   S    
C40   N3    A    
C40   N4    A    
C10   C11   S    
C28   C48   S    
O34   H21   S    
C9    Cl7   S    
Cu1   O7    S    
C54   O35   D    
Cu2   O8    S    
C29   C47   S    
C37   C50   S    
O36   H22   S    
C30   N5    T    
C15   C17   S    
C23   H6    S    
C22   C44   S    
C3    C5    A    
C12   H8    S    
C48   O24   S    
C6    C7    A    
C25   C27   S    
O28   H18   S    
C2    N2    A    
C3    Cl3   S    
C36   C38   A    
C17   H2    S    
Cu1   O1    S    
O12   H10   S    
O32   H20   S    
C5    Cl5   S    
C33   O8    A    
C36   C49   S    
C34   C36   A    
C42   O11   D    
C9    C12   S    
C10   Cl8   S    
C2    N1    A    
C16   C39   S    
C32   O6    A    
O16   H12   S    
C20   C21   T    
C35   C42   S    
C26   C29   S    
C41   O9    D    
C22   C26   S    
C50   O27   D    
C22   C23   S    
C28   Cl2   S    
C8    C40   S    
C1    O2    A    
C25   H4    S    
C12   C51   S    
C27   C28   S    
