data_mof_unit_24302.cif
_audit_creation_date              2012-12-10T20:38:14-0500
_audit_creation_method            fapswitch 2.2
_symmetry_space_group_name_H-M    P1
_symmetry_Int_Tables_number       1
_space_group_crystal_system       triclinic
_cell_length_a                    9.873923
_cell_length_b                    10.689224
_cell_length_c                    16.660226
_cell_angle_alpha                 90.443984
_cell_angle_beta                  85.291801
_cell_angle_gamma                 89.709127
_cell_volume                      1752.38161926

loop_
_atom_site_label
_atom_site_type_symbol
_atom_type_description
_atom_site_fract_x
_atom_site_fract_y
_atom_site_fract_z
_atom_type_partial_charge
C1    C     C_R   0.500060 0.739945 0.497827 0.872471
C2    C     C_R   0.355592 0.505900 0.788226 -0.209994
C3    C     C_R   0.436197 0.665567 0.158945 -0.150830
C4    C     C_R   0.425105 0.619117 0.236449 -0.201153
C5    C     C_R   0.645859 0.518490 0.212350 -0.179090
C6    C     C_R   0.655714 0.563007 0.133825 -0.170363
C7    C     C_R   0.549115 0.633601 0.106180 0.200505
C8    C     C_2   0.435966 0.654134 0.982337 -0.233614
C9    C     C_2   0.550907 0.659181 0.020029 -0.229397
C10   C     C_R   0.528614 0.543543 0.263094 -0.040117
C11   C     C_R   0.379951 0.936462 0.482379 0.142003
C12   C     C_R   0.481126 0.504743 0.653238 0.848172
C13   C     C_R   0.501619 0.871131 0.485699 -0.109574
C14   C     C_R   0.625883 0.934214 0.474794 -0.225626
C15   C     C_R   0.626131 0.063325 0.475601 -0.187515
C16   C     C_R   0.502171 0.128181 0.486419 -0.117422
C17   C     C_R   0.380237 0.064202 0.482604 0.138442
C18   C     C_3   0.251501 0.072360 0.536398 -0.475809
C19   C     C_3   0.251354 0.930500 0.536209 -0.486640
C20   C     C_R   0.922432 0.587414 0.543736 0.166148
C21   C     C_R   0.936813 0.423094 0.449704 0.287564
C22   C     C_R   0.080246 0.422902 0.450308 -0.173081
C23   C     C_R   0.500512 0.259908 0.498076 0.900602
C24   C     C_R   0.064813 0.587332 0.543705 0.200425
C25   C     C_3   0.058869 0.606965 0.632502 -0.486348
C26   C     C_3   0.905072 0.607352 0.632649 -0.513676
C27   C     C_R   0.518580 0.505386 0.346795 0.880602
C28   C     C_R   0.468849 0.540990 0.737551 -0.024031
C29   C     C_R   0.563486 0.625005 0.764942 -0.213932
C30   C     C_R   0.548600 0.669739 0.843330 -0.157178
C31   C     C_R   0.440325 0.628309 0.895900 0.201088
C32   C     C_R   0.341734 0.549131 0.867465 -0.164093
H1    H     H_    0.647143 0.658661 0.725139 0.147216
H2    H     H_    0.743971 0.538288 0.093769 0.131246
H3    H     H_    0.722391 0.884986 0.471605 0.177525
H4    H     H_    0.722697 0.110999 0.473582 0.208631
H5    H     H_    0.266568 0.114067 0.596369 0.201276
H6    H     H_    0.166627 0.113593 0.505285 0.216581
H7    H     H_    0.266557 0.889662 0.596040 0.200238
H8    H     H_    0.166327 0.889654 0.505081 0.208617
H9    H     H_    0.141212 0.359138 0.411463 0.180702
H10   H     H_    0.099093 0.525671 0.664527 0.214453
H11   H     H_    0.336482 0.644446 0.276048 0.161036
H12   H     H_    0.100888 0.699163 0.648773 0.197745
H13   H     H_    0.856554 0.526587 0.665104 0.220693
H14   H     H_    0.859031 0.700194 0.648736 0.194444
H15   H     H_    0.728224 0.463173 0.232945 0.187486
H16   H     H_    0.649186 0.656354 0.985631 0.147815
H17   H     H_    0.256991 0.517103 0.907345 0.127785
H18   H     H_    0.355218 0.724298 0.140053 0.132927
H19   H     H_    0.279527 0.443995 0.766889 0.139454
H20   H     H_    0.338460 0.643176 0.016632 0.148894
H21   H     H_    0.622795 0.735083 0.862901 0.130318
N1    N     N_R   0.857140 0.500860 0.500530 -0.127301
N2    N     N_R   0.142780 0.500820 0.500530 -0.125790
O1    O     O_R   0.385310 0.683210 0.499990 -0.615788
O2    O     O_R   0.614650 0.683240 0.500000 -0.624464
O3    O     O_R   0.371780 0.500000 0.615800 -0.616973
O4    O     O_R   0.601120 0.500040 0.615800 -0.618086
O5    O     O_R   0.385350 0.316760 0.500000 -0.620313
O6    O     O_R   0.614690 0.316790 0.500010 -0.582236
O7    O     O_R   0.398880 0.499960 0.384200 -0.624050
O8    O     O_R   0.628220 0.500000 0.384200 -0.572819
Zn1   Zn    Zn3+2 0.346870 0.499980 0.499990 0.944222
Zn2   Zn    Zn3+2 0.653130 0.500020 0.500010 0.981946
Br1   Br    Br    0.860316 0.311155 0.376085 -0.561969

loop_
_geom_bond_atom_site_label_1
_geom_bond_atom_site_label_2
_ccdc_geom_bond_type
C10   C27   S    
C25   H10   S    
O7    Zn1   S    
O1    Zn1   S    
C22   N2    A    
C4    H11   S    
O6    Zn2   S    
C21   Br1   S    
C11   C13   A    
C8    H20   S    
C31   C32   A    
C21   N1    A    
O5    Zn1   S    
C12   O3    A    
N2    Zn1   S    
O8    Zn2   S    
C17   C18   S    
C18   H6    S    
C5    C10   A    
N1    Zn2   S    
C21   C22   A    
O4    Zn2   S    
C24   N2    A    
C5    H15   S    
C30   C31   A    
C11   C19   S    
C29   C30   A    
C6    H2    S    
C27   O8    A    
C12   C28   S    
C5    C6    A    
C19   H7    S    
C25   H12   S    
C2    C32   A    
C28   C29   A    
C27   O7    A    
C18   H5    S    
C16   C23   S    
C3    C7    A    
C12   O4    A    
O3    Zn1   S    
C23   O5    A    
C30   H21   S    
C1    O1    A    
C32   H17   S    
C22   H9    S    
C1    C13   S    
C19   H8    S    
C26   H14   S    
C4    C10   A    
C15   C16   A    
C29   H1    S    
C15   H4    S    
C23   O6    A    
C24   C25   S    
C9    H16   S    
C20   N1    A    
C18   C19   S    
C2    H19   S    
C14   H3    S    
C7    C9    S    
C20   C24   A    
C14   C15   A    
C11   C17   A    
C2    C28   A    
C26   H13   S    
C25   C26   S    
C13   C14   A    
C8    C31   S    
C3    H18   S    
C6    C7    A    
C3    C4    A    
C16   C17   A    
O2    Zn2   S    
C8    C9    D    
C20   C26   S    
C1    O2    A    
