data_mof_unit_62091.cif
_audit_creation_date              2013-03-05T16:51:58-0500
_audit_creation_method            fapswitch 2.2
_symmetry_space_group_name_H-M    P1
_symmetry_Int_Tables_number       1
_space_group_crystal_system       triclinic
_cell_length_a                    15.853042
_cell_length_b                    15.095301
_cell_length_c                    19.21736
_cell_angle_alpha                 90.007618
_cell_angle_beta                  89.979076
_cell_angle_gamma                 90.126937
_cell_volume                      4598.82638926

loop_
_atom_site_label
_atom_site_type_symbol
_atom_site_description
_atom_site_fract_x
_atom_site_fract_y
_atom_site_fract_z
_atom_type_partial_charge
O1    O     O_R   0.378020 0.573650 0.500020 -0.570750
O2    O     O_R   0.621980 0.426350 0.499980 -0.570750
O3    O     O_R   0.621980 0.573650 0.499980 -0.619393
O4    O     O_R   0.378020 0.426350 0.500020 -0.619393
C1    C     C_R   0.338983 0.499890 0.500182 0.948805
C2    C     C_R   0.661017 0.500110 0.499818 0.948808
O5    O     O_R   0.499990 0.573690 0.398140 -0.593190
O6    O     O_R   0.500010 0.426310 0.601860 -0.593198
O7    O     O_R   0.500010 0.573690 0.601860 -0.594006
O8    O     O_R   0.499990 0.426310 0.398140 -0.593999
C3    C     C_R   0.499999 0.499997 0.365446 1.011162
C4    C     C_R   0.500001 0.500003 0.634554 1.011198
Zn1   Zn    Zn3+2 0.500000 0.598370 0.500000 1.103039
Zn2   Zn    Zn3+2 0.500000 0.401630 0.500000 1.103039
C5    C     C_R   0.441954 0.553673 0.253955 0.194266
C6    C     C_R   0.558060 0.446344 0.746044 0.194257
C7    C     C_R   0.441899 0.553600 0.746099 0.185987
C8    C     C_R   0.558088 0.446383 0.253900 0.185995
C9    C     C_R   0.442204 0.553997 0.181167 0.210900
C10   C     C_R   0.557811 0.446021 0.818832 0.210908
C11   C     C_R   0.442135 0.553898 0.818886 0.211080
C12   C     C_R   0.557852 0.446086 0.181113 0.211073
C13   C     C_R   0.500024 0.500039 0.145200 -0.250061
C14   C     C_R   0.499977 0.499962 0.854799 -0.250062
C15   C     C_R   0.500005 0.500004 0.289967 -0.351492
C16   C     C_R   0.499995 0.499996 0.710032 -0.351487
N1    N     N_R   0.571599 0.519415 0.034474 -0.078293
N2    N     N_R   0.428401 0.480585 0.965526 -0.078291
N3    N     N_R   0.571588 0.519392 0.965461 -0.078404
N4    N     N_R   0.428412 0.480610 0.034539 -0.078407
C17   C     C_R   0.499989 0.499975 0.930170 0.433932
C18   C     C_R   0.500012 0.500026 0.069830 0.433946
C19   C     C_R   0.956148 0.580481 0.510143 0.207357
C20   C     C_R   0.043852 0.419519 0.489857 0.207355
C21   C     C_R   0.044115 0.579025 0.515820 0.207873
C22   C     C_R   0.955885 0.420975 0.484180 0.207872
C23   C     C_R   0.913085 0.501414 0.494465 -0.189540
C24   C     C_R   0.086914 0.498586 0.505535 -0.189537
C25   C     C_1   0.823954 0.500936 0.496056 0.185959
C26   C     C_1   0.176046 0.499064 0.503944 0.185958
C27   C     C_1   0.250781 0.499552 0.502066 -0.002693
C28   C     C_1   0.749219 0.500448 0.497934 -0.002692
C29   C     C_R   0.426539 0.952678 0.481610 -0.043678
C30   C     C_R   0.573461 0.047322 0.518389 -0.043677
C31   C     C_R   0.573485 0.953062 0.518371 -0.043187
C32   C     C_R   0.426515 0.046938 0.481629 -0.043186
C33   C     C_R   0.500019 0.904991 0.499993 -0.035781
C34   C     C_R   0.499982 0.095009 0.500007 -0.035780
C35   C     C_1   0.500015 0.806908 0.499999 0.154242
C36   C     C_1   0.499985 0.193092 0.500001 0.154242
N5    N     N_1   0.500000 0.270550 0.500000 -0.065627
N6    N     N_1   0.500000 0.729450 0.500000 -0.065626
N7    N     N_R   0.382685 0.607819 0.291183 0.252617
O9    O     O_R   0.330725 0.572091 0.335514 -0.371591
O10   O     O_R   0.378724 0.692548 0.279231 -0.280281
N8    N     N_R   0.617343 0.392215 0.708816 0.252608
O11   O     O_R   0.669288 0.427957 0.664479 -0.371616
O12   O     O_R   0.621336 0.307490 0.720775 -0.280264
N9    N     N_R   0.382568 0.607675 0.708928 0.255128
O13   O     O_R   0.330596 0.571871 0.664669 -0.348648
O14   O     O_R   0.378447 0.692380 0.720961 -0.266887
N10   N     N_R   0.617404 0.392291 0.291071 0.255136
O15   O     O_R   0.669391 0.428081 0.335325 -0.348618
O16   O     O_R   0.621494 0.307583 0.279045 -0.266908
N11   N     N_R   0.383583 0.608921 0.143890 0.253685
O17   O     O_R   0.410416 0.664320 0.096918 -0.278631
O18   O     O_R   0.303305 0.604804 0.157674 -0.242528
N12   N     N_R   0.616447 0.391114 0.856108 0.253686
O19   O     O_R   0.589629 0.335700 0.903075 -0.278618
O20   O     O_R   0.696725 0.395263 0.842330 -0.242532
N13   N     N_R   0.383471 0.608765 0.856217 0.253514
O21   O     O_R   0.410266 0.664221 0.903157 -0.278375
O22   O     O_R   0.303188 0.604532 0.842519 -0.237511
N14   N     N_R   0.616500 0.391201 0.143782 0.253512
O23   O     O_R   0.589691 0.335761 0.096835 -0.278388
O24   O     O_R   0.696784 0.395401 0.157486 -0.237504
N15   N     N_R   0.090086 0.659632 0.529006 0.251310
O25   O     O_R   0.147871 0.662378 0.577044 -0.281523
O26   O     O_R   0.074648 0.730487 0.492654 -0.262145
N16   N     N_R   0.909914 0.340367 0.470994 0.251311
O27   O     O_R   0.852130 0.337621 0.422956 -0.281531
O28   O     O_R   0.925352 0.269513 0.507346 -0.262141
N17   N     N_R   0.910452 0.661089 0.523200 0.249126
O29   O     O_R   0.852697 0.687844 0.479983 -0.328585
O30   O     O_R   0.926201 0.707831 0.578612 -0.261578
N18   N     N_R   0.089548 0.338911 0.476800 0.249123
O31   O     O_R   0.147303 0.312156 0.520017 -0.328580
O32   O     O_R   0.073798 0.292168 0.421388 -0.261585
C37   C     C_1   0.350561 0.094591 0.462678 0.231696
N19   N     N_1   0.289973 0.132662 0.447569 -0.058290
C38   C     C_1   0.649439 0.905409 0.537321 0.231694
N20   N     N_1   0.710027 0.867338 0.552431 -0.058290
C39   C     C_1   0.649357 0.095391 0.537423 0.257117
N21   N     N_1   0.709883 0.133811 0.552605 -0.046159
C40   C     C_1   0.350644 0.904609 0.462576 0.257125
N22   N     N_1   0.290117 0.866189 0.447394 -0.046156

loop_
_geom_bond_atom_site_label_1
_geom_bond_atom_site_label_2
_geom_bond_distance
_ccdc_geom_bond_type
C24   C26   1.413323 S    
C39   N21   1.157524 T    
N1    N3    1.326250 A    
C40   N22   1.157524 T    
O3    C2    1.272148 A    
C33   C35   1.480588 S    
C32   C37   1.450571 S    
N15   O25   1.301363 A    
O5    C3    1.277512 A    
N14   O24   1.301197 A    
C11   N13   1.438150 S    
N17   O29   1.301336 A    
O1    C1    1.272660 A    
C7    C16   1.409294 A    
C5    N7    1.437175 S    
C22   C23   1.406178 A    
N18   O32   1.301292 A    
C5    C15   1.409302 A    
C3    C15   1.450499 S    
N8    O11   1.301087 A    
C20   N18   1.439456 S    
C31   C33   1.415714 A    
O7    Zn1   1.992664 S    
N10   O16   1.301131 A    
C30   C39   1.450632 S    
C5    C9    1.398808 A    
C10   C14   1.408566 A    
N12   O19   1.301329 A    
N11   O18   1.301194 A    
C29   C40   1.450632 S    
O3    Zn1   1.970240 S    
C6    C10   1.398810 A    
C34   C36   1.480588 S    
N9    O13   1.301070 A    
C20   C24   1.406341 A    
O2    C2    1.272659 A    
C8    C15   1.409297 A    
O2    Zn2   1.968617 S    
C29   C32   1.422887 A    
C25   C28   1.185320 T    
N7    O10   1.301159 A    
C6    C16   1.409299 A    
C23   C25   1.413323 S    
C32   C34   1.415714 A    
N9    O14   1.301132 A    
N14   O23   1.301332 A    
C21   C24   1.406177 A    
N16   O28   1.301308 A    
C22   N16   1.439458 S    
C38   N20   1.157524 T    
N13   O22   1.301198 A    
N18   O31   1.301335 A    
C8    N10   1.437111 S    
N7    O9    1.301087 A    
C21   N15   1.439458 S    
C19   C23   1.406340 A    
C4    C16   1.450492 S    
C9    C13   1.408562 A    
C6    N8    1.437177 S    
N10   O15   1.301070 A    
Zn1   N6    1.978694 S    
Zn2   N5    1.978694 S    
O6    C4    1.277510 A    
C35   N6    1.169254 T    
C36   N5    1.169254 T    
N15   O26   1.301309 A    
C19   N17   1.439456 S    
C7    N9    1.437112 S    
C26   C27   1.185320 T    
N17   O30   1.301293 A    
O8    Zn2   1.992666 S    
O1    Zn1   1.968617 S    
C12   N14   1.438152 S    
C30   C31   1.422887 A    
C1    C27   1.398733 S    
O6    Zn2   1.992567 S    
N1    C18   1.353991 A    
C8    C12   1.398802 A    
C10   N12   1.438141 S    
N2    C17   1.353992 A    
N16   O27   1.301363 A    
C13   C18   1.448428 S    
N2    N4    1.326250 A    
C14   C17   1.448436 S    
N13   O21   1.301331 A    
N3    C17   1.353979 A    
N4    C18   1.353977 A    
O4    C1    1.272149 A    
C19   C21   1.399067 A    
N8    O12   1.301161 A    
C9    N11   1.438144 S    
C20   C22   1.399067 A    
O4    Zn2   1.970240 S    
C31   C38   1.450572 S    
O7    C4    1.277580 A    
C7    C11   1.398800 A    
O8    C3    1.277582 A    
O5    Zn1   1.992568 S    
N12   O20   1.301194 A    
N11   O17   1.301329 A    
C2    C28   1.398733 S    
C11   C14   1.408528 A    
C12   C13   1.408525 A    
C37   N19   1.157525 T    
C29   C33   1.415618 A    
C30   C34   1.415618 A    
