data_mof_unit_17304.cif
_audit_creation_date              2012-12-10T20:36:36-0500
_audit_creation_method            fapswitch 2.2
_symmetry_space_group_name_H-M    P1
_symmetry_Int_Tables_number       1
_space_group_crystal_system       triclinic
_cell_length_a                    10.564403
_cell_length_b                    10.820511
_cell_length_c                    9.878065
_cell_angle_alpha                 88.675915
_cell_angle_beta                  88.688358
_cell_angle_gamma                 90.426567
_cell_volume                      1128.55050696

loop_
_atom_site_label
_atom_site_type_symbol
_atom_type_description
_atom_site_fract_x
_atom_site_fract_y
_atom_site_fract_z
_atom_type_partial_charge
C1    C     C_R   0.498078 0.259596 0.500706 0.888378
C2    C     C_3   0.961477 0.600353 0.426014 -0.214462
C3    C     C_3   0.044781 0.495885 0.368932 -0.122272
C4    C     C_3   0.122089 0.499127 0.498985 0.010982
C5    C     C_R   0.430319 0.056312 0.600204 -0.028410
C6    C     C_R   0.492238 0.126632 0.496975 -0.100571
C7    C     C_R   0.541730 0.065038 0.381510 0.103067
C8    C     C_R   0.540857 0.936601 0.380758 -0.290266
C9    C     C_R   0.500303 0.870019 0.496322 -0.102524
C10   C     C_R   0.445299 0.930914 0.604130 0.054051
C11   C     C_3   0.465948 0.923778 0.754237 0.077786
C12   C     C_R   0.257193 0.499240 0.500542 0.856688
C13   C     C_3   0.425562 0.061020 0.752869 -0.260371
C14   C     C_R   0.393920 0.468432 0.075569 0.196629
C15   C     C_R   0.601193 0.543451 0.068331 -0.134240
C16   C     C_R   0.601092 0.543360 0.924505 -0.123259
C17   C     C_R   0.392025 0.472702 0.932909 0.190670
C18   C     C_3   0.322246 0.353055 0.935276 -0.140560
C19   C     C_3   0.328214 0.347619 0.088416 -0.499996
C20   C     C_R   0.503261 0.739265 0.498786 0.870822
C21   C     C_R   0.742600 0.500933 0.498710 0.867812
C22   C     C_3   0.037982 0.399177 0.568052 -0.225686
C23   C     C_3   0.957907 0.396733 0.438832 -0.201819
C24   C     C_3   0.877403 0.501196 0.496167 0.026932
C25   C     C_3   0.956877 0.504470 0.621933 0.187192
C26   C     C_3   0.041854 0.604358 0.555003 -0.239591
H1    H     H_    0.919719 0.312995 0.390713 0.135886
H2    H     H_    0.497292 0.125083 0.793574 0.159726
H3    H     H_    0.683669 0.576932 0.119467 0.142991
H4    H     H_    0.682553 0.578043 0.867920 0.152782
H5    H     H_    0.378294 0.283342 0.881858 0.178573
H6    H     H_    0.235120 0.354183 0.142359 0.198887
H7    H     H_    0.390601 0.273276 0.127270 0.197828
H8    H     H_    0.069722 0.315645 0.623691 0.136671
H9    H     H_    0.076795 0.690136 0.600463 0.123329
H10   H     H_    0.926283 0.681431 0.367556 0.131741
H11   H     H_    0.084391 0.492452 0.264083 0.128545
H12   H     H_    0.579985 0.889762 0.293589 0.155025
N1    N     N_R   0.499140 0.499140 0.142800 -0.105945
N2    N     N_R   0.499140 0.499180 0.857150 -0.118579
O1    O     O_R   0.500020 0.316790 0.614690 -0.630985
O2    O     O_R   0.500000 0.316760 0.385350 -0.591037
O3    O     O_R   0.313960 0.499990 0.614650 -0.634281
O4    O     O_R   0.313940 0.499950 0.385310 -0.630366
O5    O     O_R   0.500000 0.683240 0.614650 -0.624233
O6    O     O_R   0.499980 0.683210 0.385310 -0.635335
O7    O     O_R   0.686060 0.500050 0.614690 -0.610142
O8    O     O_R   0.686040 0.500010 0.385350 -0.629065
Zn1   Zn    Zn3+2 0.500010 0.500020 0.653130 0.942667
Zn2   Zn    Zn3+2 0.499990 0.499980 0.346870 0.938663
N3    N     N_3   0.601756 0.910594 0.780033 -0.461690
H13   H     H_    0.624317 0.816801 0.787610 0.196725
H14   H     H_    0.622895 0.950648 0.872188 0.155973
C27   C     C_R   0.291065 0.078292 0.811637 0.140822
C28   C     C_R   0.271912 0.071239 0.953274 -0.113891
C29   C     C_R   0.150151 0.076089 0.011070 -0.088557
C30   C     C_R   0.045435 0.088548 0.928475 -0.089106
C31   C     C_R   0.062415 0.096876 0.788025 -0.150827
C32   C     C_R   0.184106 0.092486 0.729539 -0.153016
H15   H     H_    0.352018 0.061927 0.019039 0.105561
H16   H     H_    0.137148 0.070298 0.120034 0.112813
H17   H     H_    0.951128 0.092184 0.973305 0.112811
H18   H     H_    0.981014 0.106661 0.724164 0.130892
H19   H     H_    0.193282 0.098384 0.620320 0.117977
N4    N     N_3   0.192287 0.364806 0.890199 -0.425470
H20   H     H_    0.196013 0.382904 0.786549 0.218456
H21   H     H_    0.150348 0.441061 0.935790 0.177502
N5    N     N_3   0.904352 0.510139 0.759094 -0.448337
H22   H     H_    0.974984 0.484990 0.825678 0.167429
H23   H     H_    0.884162 0.602807 0.776899 0.156670
N6    N     N_3   0.600390 0.131141 0.268845 -0.431121
H24   H     H_    0.694495 0.102599 0.259714 0.169030
H25   H     H_    0.554159 0.106360 0.180873 0.162423
C33   C     C_R   0.382047 0.834196 0.840111 0.163101
C34   C     C_R   0.406097 0.816265 0.979180 -0.197101
C35   C     C_R   0.318385 0.754526 0.064897 -0.125189
C36   C     C_R   0.206992 0.707034 0.012972 -0.150623
C37   C     C_R   0.183837 0.720090 0.874996 -0.153247
C38   C     C_R   0.270503 0.783056 0.788744 -0.062253
H26   H     H_    0.489353 0.855503 0.023728 0.110896
H27   H     H_    0.336430 0.744255 0.171954 0.161827
H28   H     H_    0.138935 0.659487 0.079517 0.118524
H29   H     H_    0.097064 0.683688 0.835866 0.115097
H30   H     H_    0.247802 0.796680 0.683402 0.095572

loop_
_geom_bond_atom_site_label_1
_geom_bond_atom_site_label_2
_ccdc_geom_bond_type
C28   C29   A    
C3    C23   S    
C7    C8    A    
O7    Zn1   S    
C36   C37   A    
C18   N4    S    
C32   H19   S    
C12   O3    A    
C7    N6    S    
C5    C6    A    
O4    Zn2   S    
N2    Zn1   S    
C29   C30   A    
C18   C19   S    
C14   N1    A    
N5    H22   S    
C37   H29   S    
C8    C9    A    
N4    H21   S    
C22   C25   S    
C23   C24   S    
C13   H2    S    
C23   H1    S    
C4    C12   S    
C34   H26   S    
C5    C13   S    
C20   O5    A    
C21   O8    A    
O8    Zn2   S    
C28   H15   S    
C14   C17   A    
C25   N5    S    
C8    H12   S    
C19   H6    S    
O1    Zn1   S    
C15   H3    S    
C27   C32   A    
C22   H8    S    
C33   C34   A    
C1    C6    S    
C30   H17   S    
C24   C25   S    
C19   H7    S    
N6    H25   S    
C37   C38   A    
O3    Zn1   S    
C31   C32   A    
N3    H13   S    
N3    H14   S    
C17   N2    A    
C34   C35   A    
C4    C22   S    
C1    O2    A    
C9    C20   S    
O5    Zn1   S    
C17   C18   S    
C2    C26   S    
C35   C36   A    
C15   N1    A    
O2    Zn2   S    
C1    O1    A    
C16   N2    A    
C33   C38   A    
C2    C24   S    
C3    C4    S    
C13   C27   S    
C9    C10   A    
C2    H10   S    
C31   H18   S    
C27   C28   A    
C29   H16   S    
C14   C19   S    
C11   C33   S    
C35   H27   S    
C4    C26   S    
C6    C7    A    
O6    Zn2   S    
C2    C3    S    
C25   C26   S    
N6    H24   S    
C12   O4    A    
C11   C13   S    
C30   C31   A    
C38   H30   S    
C36   H28   S    
C11   N3    S    
C10   C11   S    
C26   H9    S    
C5    C10   A    
N1    Zn2   S    
C3    H11   S    
N5    H23   S    
N4    H20   S    
C21   C24   S    
C22   C23   S    
C18   H5    S    
C16   H4    S    
C20   O6    A    
C15   C16   A    
C21   O7    A    
