data_mof_unit_59810.cif
_audit_creation_date              2012-10-26T21:24:48-0400
_audit_creation_method            fapswitch 2.2
_symmetry_space_group_name_H-M    P1
_symmetry_Int_Tables_number       1
_space_group_crystal_system       triclinic
_cell_length_a                    9.606835
_cell_length_b                    10.90327
_cell_length_c                    15.604076
_cell_angle_alpha                 89.07765
_cell_angle_beta                  73.396313
_cell_angle_gamma                 89.660925
_cell_volume                      1566.1085304

loop_
_atom_site_label
_atom_site_type_symbol
_atom_type_description
_atom_site_fract_x
_atom_site_fract_y
_atom_site_fract_z
_atom_type_partial_charge
C1    C     C_R   0.998993 0.262720 0.502931 0.560171
C2    C     C_R   0.222512 0.500848 0.041497 0.002601
C3    C     C_R   0.322322 0.529859 0.089946 -0.027259
C4    C     C_R   0.917329 0.501973 0.671800 0.570696
C5    C     C_R   0.078329 0.467432 0.087438 0.259793
C6    C     C_R   0.032196 0.467848 0.180964 -0.123581
C7    C     C_R   0.271551 0.529646 0.183722 -0.148743
C8    C     C_R   0.125539 0.062398 0.490938 -0.012668
C9    C     C_R   0.997534 0.129557 0.504373 -0.029013
C10   C     C_R   0.867006 0.066588 0.513886 -0.160218
C11   C     C_R   0.863915 0.937395 0.512262 0.257530
C12   C     C_R   0.668478 0.541405 0.904123 0.028448
C13   C     C_R   0.994939 0.871321 0.501474 0.056691
C14   C     C_R   0.124005 0.935937 0.489016 -0.101305
C15   C     C_3   0.236459 0.920732 0.537403 0.193783
C16   C     C_R   0.998271 0.737491 0.501720 0.590594
C17   C     C_3   0.238777 0.061800 0.541360 0.578826
C18   C     C_R   0.595286 0.586098 0.452082 0.204074
C19   C     C_R   0.548686 0.426265 0.556824 0.009951
C20   C     C_R   0.398081 0.429314 0.559286 0.386784
C21   C     C_R   0.449286 0.585419 0.451327 0.042970
C22   C     C_3   0.491701 0.608288 0.352944 -0.254036
C23   C     C_R   0.765378 0.590975 0.947571 0.020306
C24   C     C_3   0.649603 0.612048 0.354474 0.151239
C25   C     C_R   0.082563 0.499311 0.327965 0.530805
C26   C     C_R   0.870336 0.520562 0.768821 -0.002976
C27   C     C_R   0.128523 0.499105 0.229430 -0.048622
C28   C     C_R   0.911022 0.611027 0.900240 -0.115611
C29   C     C_R   0.961699 0.579764 0.810634 -0.191380
C30   C     C_R   0.727318 0.491549 0.818140 0.298087
C31   C     C_3   0.973597 0.312251 0.033457 -0.137626
C32   C     C_3   0.637053 0.924040 0.489193 -0.093820
C33   C     C_3   0.273428 0.780363 0.642279 -0.133492
C34   C     C_R   0.517189 0.540626 0.949006 0.032367
C35   C     C_3   0.279091 0.098963 0.680165 -0.026970
C36   C     C_3   0.411994 0.115109 0.401648 -0.167126
C37   C     C_3   0.289439 0.397602 0.707735 -0.107914
C38   C     C_3   0.769184 0.753589 0.247754 -0.145655
C39   C     C_3   0.669668 0.291406 0.810997 -0.133305
C40   C     C_3   0.463842 0.692997 0.800092 -0.126153
C41   C     C_R   0.470177 0.555011 0.043070 -0.020984
C42   C     C_R   0.572406 0.596296 0.085970 -0.141649
C43   C     C_R   0.715850 0.619210 0.037836 -0.103103
C44   C     C_R   0.410581 0.536541 0.902266 0.279154
C45   C     C_R   0.267054 0.509354 0.948131 -0.123488
Cu1   Cu    Cu3+1 0.140670 0.499980 0.500000 1.002299
Cu2   Cu    Cu3+1 0.859330 0.500020 0.500000 1.009123
H1    H     H_    0.921223 0.442758 0.215258 0.119868
H2    H     H_    0.566098 0.849476 0.479623 0.165063
H3    H     H_    0.692459 0.962794 0.421542 0.134867
H4    H     H_    0.568149 0.993840 0.532282 0.137902
H5    H     H_    0.237258 0.760484 0.715027 0.121212
H6    H     H_    0.385506 0.817800 0.626270 0.085803
H7    H     H_    0.273687 0.693096 0.607223 0.169523
H8    H     H_    0.334565 0.876798 0.492813 0.058412
H9    H     H_    0.383588 0.145883 0.647755 0.157226
H10   H     H_    0.301157 0.003197 0.695779 0.114938
H11   H     H_    0.230174 0.142919 0.745447 0.102390
H12   H     H_    0.190030 0.498027 0.909987 0.150730
H13   H     H_    0.342003 0.178592 0.375793 0.146960
H14   H     H_    0.407236 0.020789 0.376827 0.078729
H15   H     H_    0.525530 0.147556 0.374419 0.130670
H16   H     H_    0.584979 0.363943 0.600675 0.144077
H17   H     H_    0.186150 0.364104 0.754335 0.133349
H18   H     H_    0.288809 0.499300 0.712701 0.139335
H19   H     H_    0.379943 0.357522 0.730155 0.142286
H20   H     H_    0.470421 0.526860 0.317025 0.102919
H21   H     H_    0.341509 0.552525 0.223192 0.123080
H22   H     H_    0.449283 0.697205 0.335001 0.131018
H23   H     H_    0.071737 0.603081 0.773933 0.123311
H24   H     H_    0.718654 0.536871 0.317327 0.113872
H25   H     H_    0.681351 0.759209 0.214583 0.101126
H26   H     H_    0.851773 0.683834 0.215779 0.125498
H27   H     H_    0.824408 0.843922 0.238368 0.131700
H28   H     H_    0.984710 0.653716 0.931973 0.133655
H29   H     H_    0.786036 0.264172 0.786271 0.121295
H30   H     H_    0.606294 0.227222 0.782356 0.122577
H31   H     H_    0.630124 0.281606 0.885140 0.105548
H32   H     H_    0.553398 0.726238 0.825705 0.124948
H33   H     H_    0.361858 0.743625 0.832246 0.086966
H34   H     H_    0.544043 0.617316 0.155860 0.093369
H35   H     H_    0.495900 0.714105 0.727416 0.151644
H36   H     H_    0.789962 0.655282 0.071940 0.117731
H37   H     H_    0.931841 0.266744 0.100200 0.109752
H38   H     H_    0.081643 0.274009 0.996960 0.108051
H39   H     H_    0.897207 0.291117 0.994167 0.138321
H40   H     H_    0.766452 0.117710 0.526586 0.132481
N1    N     N_R   0.648210 0.500930 0.499430 -0.289135
N2    N     N_R   0.352300 0.500890 0.499430 -0.242909
O1    O     O_R   0.118810 0.319640 0.500000 -0.426070
O2    O     O_3   0.733598 0.873584 0.533111 -0.549968
O3    O     O_3   0.174569 0.863991 0.622017 -0.549078
O4    O     O_3   0.179123 0.108299 0.628878 -0.484930
O5    O     O_3   0.374674 0.118431 0.496088 -0.590441
O6    O     O_3   0.296997 0.359080 0.620592 -0.507676
O7    O     O_3   0.711315 0.730460 0.340008 -0.561174
O8    O     O_3   0.647682 0.411514 0.782746 -0.521801
O9    O     O_3   0.442654 0.565249 0.812136 -0.555736
O10   O     O_R   0.881230 0.319680 0.499990 -0.535336
O11   O     O_R   0.055580 0.499970 0.629840 -0.488877
O12   O     O_R   0.818000 0.500010 0.629830 -0.454774
O13   O     O_R   0.118770 0.680320 0.500010 -0.519649
O14   O     O_R   0.881190 0.680360 0.500000 -0.425420
O15   O     O_R   0.182000 0.499990 0.370170 -0.519649
O16   O     O_R   0.944420 0.500030 0.370160 -0.510163
O17   O     O_3   0.979564 0.440527 0.041199 -0.589005

loop_
_geom_bond_atom_site_label_1
_geom_bond_atom_site_label_2
_ccdc_geom_bond_type
C1    O1    A    
Cu2   O12   S    
C18   C21   A    
C43   H36   S    
C41   C42   A    
C7    C27   A    
C19   C20   A    
C1    O10   A    
C25   O16   A    
Cu1   N2    S    
C21   N2    A    
C33   H5    S    
Cu1   O13   S    
C12   C23   A    
C6    H1    S    
C35   H11   S    
C18   C24   S    
C39   H30   S    
C28   C29   A    
C3    C7    A    
C24   O7    S    
C40   O9    S    
C5    C6    A    
C39   O8    S    
C32   O2    S    
Cu2   O10   S    
C37   O6    S    
C31   H38   S    
C7    H21   S    
C44   O9    S    
C3    C41   A    
C19   H16   S    
C8    C9    A    
Cu2   O16   S    
C37   H18   S    
C40   H33   S    
C9    C10   A    
C22   H22   S    
C15   O3    S    
C31   H39   S    
C13   C14   A    
C4    O12   A    
C34   C41   A    
C36   H15   S    
C5    O17   S    
C35   O4    S    
C2    C45   A    
C33   H6    S    
C32   H2    S    
C38   H25   S    
C10   H40   S    
Cu2   O14   S    
C42   H34   S    
C39   H31   S    
C40   H35   S    
C1    C9    S    
C19   N1    A    
C33   O3    S    
C39   H29   S    
Cu1   O15   S    
C18   N1    A    
C31   H37   S    
C15   H8    S    
C32   H4    S    
C36   O5    S    
C16   O14   A    
C6    C27   A    
C30   O8    S    
C37   H19   S    
C40   H32   S    
C34   C44   A    
C23   C28   A    
C32   H3    S    
C16   O13   A    
C20   O6    S    
C26   C30   A    
C4    O11   A    
C31   O17   S    
C22   C24   S    
C2    C5    A    
C17   O4    S    
C42   C43   A    
C12   C34   A    
C36   H14   S    
C37   H17   S    
C44   C45   A    
C29   H23   S    
C38   H27   S    
C33   H7    S    
C15   C17   S    
Cu1   O11   S    
Cu1   Cu2   S    
C45   H12   S    
C8    C14   A    
C12   C30   A    
C35   H9    S    
C23   C43   A    
C36   H13   S    
C4    C26   S    
C25   O15   A    
Cu1   O1    S    
C25   C27   S    
C20   N2    A    
C8    C17   S    
C35   H10   S    
Cu2   N1    S    
C2    C3    A    
C11   C13   A    
C22   H20   S    
C10   C11   A    
C11   O2    S    
C26   C29   A    
C13   C16   S    
C38   O7    S    
C14   C15   S    
C17   O5    S    
C21   C22   S    
C28   H28   S    
C24   H24   S    
C38   H26   S    
