data_mof_unit_46374.cif
_audit_creation_date              2012-12-10T18:05:52-0500
_audit_creation_method            fapswitch 2.2
_symmetry_space_group_name_H-M    P1
_symmetry_Int_Tables_number       1
_space_group_crystal_system       triclinic
_cell_length_a                    12.674793
_cell_length_b                    13.029511
_cell_length_c                    14.998815
_cell_angle_alpha                 92.173568
_cell_angle_beta                  102.545977
_cell_angle_gamma                 82.521209
_cell_volume                      2397.16618609

loop_
_atom_site_label
_atom_site_type_symbol
_atom_type_description
_atom_site_fract_x
_atom_site_fract_y
_atom_site_fract_z
_atom_type_partial_charge
C1    C     C_R   0.439524 0.690939 0.482336 0.930293
C2    C     C_R   0.597751 0.503832 0.111161 0.032078
C3    C     C_R   0.302239 0.497573 0.009001 0.641136
C4    C     C_R   0.303096 0.499001 0.916585 -0.247101
C5    C     C_R   0.401241 0.501551 0.888800 0.036588
C6    C     C_R   0.499851 0.503292 0.953652 -0.008605
C7    C     C_R   0.599142 0.505864 0.925819 -0.021775
C8    C     C_R   0.696773 0.507703 0.990985 0.651704
C9    C     C_R   0.695834 0.506747 0.083402 -0.258011
C10   C     C_R   0.402419 0.501813 0.796909 -0.146669
C11   C     C_R   0.500816 0.503196 0.769238 -0.102952
C12   C     C_R   0.500540 0.501026 0.673037 0.894950
C13   C     C_R   0.598670 0.505864 0.833242 -0.149395
C14   C     C_R   0.726438 0.044694 0.494526 0.606235
C15   C     C_R   0.594687 0.196652 0.498256 -0.245252
C16   C     C_R   0.294368 0.841660 0.459535 0.558127
C17   C     C_R   0.262522 0.947110 0.447727 0.637989
C18   C     C_R   0.338109 0.012041 0.438533 -0.380148
C19   C     C_R   0.446529 0.971257 0.434799 0.068865
C20   C     C_R   0.473772 0.863233 0.433170 -0.067043
C21   C     C_R   0.532154 0.033279 0.443803 0.025495
C22   C     C_R   0.641408 0.987119 0.452080 -0.181416
C23   C     C_R   0.560588 0.307746 0.509110 0.985732
C24   C     C_R   0.659536 0.883522 0.422341 0.469541
C25   C     C_R   0.574273 0.823105 0.411580 -0.220598
C26   C     C_R   0.512916 0.139580 0.453029 -0.274510
C27   C     C_R   0.701947 0.145939 0.526941 0.253647
C28   C     C_R   0.401399 0.799113 0.455728 -0.331233
C29   C     C_R   0.087715 0.351601 0.365776 -0.199684
C30   C     C_R   0.800694 0.623686 0.616161 -0.034808
C31   C     C_R   0.906603 0.645280 0.647119 -0.176084
C32   C     C_R   0.988807 0.598235 0.605565 0.666950
C33   C     C_R   0.964526 0.529281 0.530001 -0.192412
C34   C     C_R   0.499285 0.499604 0.326931 0.887568
C35   C     C_R   0.855152 0.505767 0.503735 0.092785
C36   C     C_R   0.043388 0.479336 0.481689 0.008731
C37   C     C_R   0.012529 0.405158 0.411982 0.074171
C38   C     C_R   0.907206 0.382693 0.389308 -0.305825
C39   C     C_R   0.830651 0.429775 0.434655 0.688583
C40   C     C_R   0.152037 0.499254 0.497843 0.073934
C41   C     C_R   0.193958 0.372148 0.388074 0.025297
C42   C     C_R   0.596727 0.502642 0.203014 -0.133320
C43   C     C_R   0.498630 0.499441 0.230716 -0.100630
C44   C     C_R   0.400689 0.497352 0.166731 -0.179923
C45   C     C_R   0.399958 0.498926 0.074161 -0.016346
C46   C     C_R   0.499152 0.502084 0.046323 -0.005678
H1    H     H_    0.672706 0.504037 0.252763 0.189376
H2    H     H_    0.432488 0.178423 0.426729 0.188393
H3    H     H_    0.309714 0.093658 0.437813 0.188278
H4    H     H_    0.587685 0.743968 0.388216 0.201470
H5    H     H_    0.254188 0.331800 0.353715 0.134649
H6    H     H_    0.884054 0.324432 0.337567 0.190886
H7    H     H_    0.064554 0.294198 0.313367 0.170270
H8    H     H_    0.325158 0.495397 0.189043 0.218580
H9    H     H_    0.184112 0.558123 0.543746 0.227156
H10   H     H_    0.737093 0.659682 0.649043 0.165782
H11   H     H_    0.925360 0.698022 0.704243 0.202826
H12   H     H_    0.227174 0.497754 0.866758 0.206313
H13   H     H_    0.326426 0.500745 0.747047 0.195052
H14   H     H_    0.674370 0.506827 0.810947 0.223352
H15   H     H_    0.771720 0.508089 0.133244 0.193358
N1    N     N_R   0.222190 0.444670 0.452360 -0.134381
N2    N     N_R   0.776970 0.554790 0.547140 -0.109860
O1    O     O_R   0.366740 0.627160 0.477250 -0.550709
O2    O     O_R   0.544830 0.662520 0.507680 -0.639264
O3    O     O_R   0.410940 0.482340 0.616930 -0.622486
O4    O     O_R   0.589030 0.517700 0.647360 -0.618640
O5    O     O_R   0.455170 0.337480 0.492320 -0.648012
O6    O     O_R   0.633260 0.372840 0.522750 -0.480198
O7    O     O_R   0.410970 0.482300 0.352640 -0.639286
O8    O     O_R   0.589060 0.517660 0.383070 -0.572653
Zn1   Zn    Zn3+2 0.381090 0.476390 0.479680 0.996977
Zn2   Zn    Zn3+2 0.618910 0.523610 0.520320 1.051784
S1    S     S_3+6 0.783148 0.828263 0.393110 0.086414
O9    O     O_2   0.765821 0.732709 0.335116 -0.338666
O10   O     O_2   0.823406 0.905713 0.340887 -0.205279
O11   O     O_3   0.877135 0.796045 0.488576 -0.482949
H16   H     H_    0.944840 0.771512 0.467226 0.412709
F1    F     F_    0.831325 0.999724 0.514685 -0.546196
F2    F     F_    0.221363 0.782329 0.478062 -0.594016
F3    F     F_    0.159663 0.987942 0.452125 -0.575380
F4    F     F_    0.090797 0.618843 0.643950 -0.672247
F5    F     F_    0.737354 0.388734 0.413632 -0.650912
F6    F     F_    0.206204 0.494755 0.034554 -0.626571
F7    F     F_    0.792843 0.510198 0.965428 -0.622814
S2    S     S_3+6 0.802980 0.198321 0.611216 0.126920
O12   O     O_2   0.752019 0.276260 0.670807 -0.262457
O13   O     O_2   0.869870 0.113014 0.671091 -0.185303
O14   O     O_3   0.886228 0.254858 0.560943 -0.510713
H17   H     H_    0.917492 0.199315 0.523817 0.387460

loop_
_geom_bond_atom_site_label_1
_geom_bond_atom_site_label_2
_ccdc_geom_bond_type
C16   C28   A    
C21   C26   A    
C23   O6    A    
C19   C20   A    
O2    Zn2   S    
C7    C8    A    
C13   H14   S    
O11   H16   S    
C2    C46   A    
S1    O10   D    
C9    H15   S    
C5    C6    A    
C36   C37   A    
C19   C21   A    
C18   C19   A    
C38   C39   A    
S2    O13   D    
C38   H6    S    
C20   C25   A    
C33   C36   A    
C40   N1    A    
C8    F7    S    
C25   H4    S    
N2    Zn2   S    
O3    Zn1   S    
C8    C9    A    
S1    O11   S    
C1    C28   S    
C1    O2    A    
O6    Zn2   S    
O4    Zn2   S    
C14   C27   A    
C34   O7    A    
C26   H2    S    
C15   C23   S    
C21   C22   A    
C41   N1    A    
C29   H7    S    
C12   O4    A    
S1    O9    D    
C36   C40   A    
C24   C25   A    
O8    Zn2   S    
S2    O12   D    
C16   C17   A    
C15   C26   A    
C20   C28   A    
C45   C46   A    
C30   H10   S    
C3    C45   A    
C16   F2    S    
C23   O5    A    
C27   S2    S    
C35   C39   A    
C43   C44   A    
C37   C38   A    
C15   C27   A    
C31   C32   A    
O5    Zn1   S    
C40   H9    S    
C17   C18   A    
N1    Zn1   S    
C14   F1    S    
C14   C22   A    
C22   C24   A    
C42   C43   A    
C29   C37   A    
C3    C4    A    
C1    O1    A    
C44   C45   A    
C6    C46   A    
C29   C41   A    
C34   C43   S    
C4    C5    A    
S2    O14   S    
O7    Zn1   S    
C11   C12   S    
C6    C7    A    
C32   F4    S    
C32   C33   A    
C31   H11   S    
C10   H13   S    
C39   F5    S    
C5    C10   A    
C11   C13   A    
C24   S1    S    
C30   C31   A    
C12   O3    A    
C2    C42   A    
C33   C35   A    
C17   F3    S    
C42   H1    S    
O1    Zn1   S    
C10   C11   A    
C44   H8    S    
C7    C13   A    
C4    H12   S    
C3    F6    S    
C35   N2    A    
O14   H17   S    
C30   N2    A    
C2    C9    A    
C34   O8    A    
C41   H5    S    
C18   H3    S    
