data_mof_unit_22212.cif
_audit_creation_date              2012-10-26T18:28:59-0400
_audit_creation_method            fapswitch 2.2
_symmetry_space_group_name_H-M    P1
_symmetry_Int_Tables_number       1
_space_group_crystal_system       triclinic
_cell_length_a                    11.752373
_cell_length_b                    13.046582
_cell_length_c                    15.808924
_cell_angle_alpha                 94.188202
_cell_angle_beta                  72.888051
_cell_angle_gamma                 100.674669
_cell_volume                      2276.1176751

loop_
_atom_site_label
_atom_site_type_symbol
_atom_type_description
_atom_site_fract_x
_atom_site_fract_y
_atom_site_fract_z
_atom_type_partial_charge
Br1   Br    Br    0.969728 0.716383 0.660207 -0.395563
Br2   Br    Br    0.030271 0.283616 0.339794 -0.395563
Br3   Br    Br    0.839949 0.659043 0.260324 -0.415384
Br4   Br    Br    0.160050 0.340959 0.739678 -0.415383
Br5   Br    Br    0.808017 0.081085 0.502216 -0.338014
Br6   Br    Br    0.191982 0.918915 0.497785 -0.338016
C1    C     C_R   0.523269 0.701149 0.499388 0.537908
C2    C     C_R   0.343702 0.009040 0.497232 0.183126
C3    C     C_R   0.649967 0.882089 0.500274 0.009938
C4    C     C_R   0.350032 0.117911 0.499727 0.009938
C5    C     C_R   0.441540 0.859501 0.495067 -0.119514
C6    C     C_R   0.558460 0.140499 0.504932 -0.119514
C7    C     C_R   0.445956 0.966909 0.497866 0.006381
C8    C     C_R   0.554043 0.033090 0.502134 0.006381
C9    C     C_R   0.936064 0.600822 0.582764 0.139434
C10   C     C_R   0.063935 0.399178 0.417236 0.139434
C11   C     C_R   0.818932 0.587596 0.575273 0.081497
C12   C     C_R   0.476731 0.298851 0.500612 0.537907
C13   C     C_R   0.181068 0.412403 0.424727 0.081497
C14   C     C_R   0.861978 0.460198 0.460826 0.158869
C15   C     C_R   0.138022 0.539802 0.539174 0.158869
C16   C     C_R   0.425615 0.490868 0.668132 0.571059
C17   C     C_R   0.574385 0.509132 0.331868 0.571059
C18   C     C_R   0.981005 0.463965 0.468706 -0.013626
C19   C     C_R   0.018994 0.536034 0.531294 -0.013627
C20   C     C_R   0.379811 0.474168 0.764337 0.018538
C21   C     C_R   0.620189 0.525833 0.235663 0.018538
C22   C     C_R   0.236558 0.390336 0.894374 -0.080475
C23   C     C_R   0.365474 0.429231 0.082684 -0.103333
C24   C     C_R   0.763440 0.609671 0.105627 -0.080475
C25   C     C_R   0.268126 0.411007 0.804373 0.177468
C26   C     C_R   0.731873 0.588997 0.195628 0.177466
C27   C     C_R   0.458228 0.513318 0.815418 -0.146211
C28   C     C_R   0.541772 0.486685 0.184582 -0.146211
C29   C     C_R   0.432107 0.486021 0.904545 0.028817
C30   C     C_R   0.567891 0.513985 0.095456 0.028817
C31   C     C_R   0.317557 0.425880 0.944160 0.014084
C32   C     C_R   0.682441 0.574127 0.055841 0.014084
C33   C     C_R   0.516769 0.514885 0.954796 0.044980
C34   C     C_R   0.634523 0.570779 0.917318 -0.103333
C35   C     C_R   0.483228 0.485123 0.045205 0.044980
C36   C     C_2   0.240400 0.160529 0.502476 0.331819
C37   C     C_2   0.759599 0.839471 0.497526 0.331819
C38   C     C_2   0.175466 0.599849 0.611577 0.370918
C39   C     C_2   0.824535 0.400152 0.388422 0.370917
C40   C     C_R   0.285175 0.399665 0.032797 -0.098280
C41   C     C_R   0.714822 0.600345 0.967206 -0.098280
C42   C     C_R   0.459637 0.184083 0.502502 -0.060615
C43   C     C_R   0.540363 0.815917 0.497498 -0.060614
C44   C     C_R   0.656297 0.990959 0.502768 0.183126
Cu1   Cu    Cu3+1 0.386820 0.492450 0.493500 1.000501
Cu2   Cu    Cu3+1 0.613180 0.507550 0.506500 1.000501
H1    H     H_    0.196798 0.355153 0.063995 0.155316
H2    H     H_    0.668695 0.593432 0.849188 0.133782
H3    H     H_    0.640013 0.191906 0.508758 0.179209
H4    H     H_    0.359987 0.808094 0.491242 0.179209
H5    H     H_    0.204969 0.213670 0.555649 0.164466
H6    H     H_    0.795031 0.786331 0.444353 0.164467
H7    H     H_    0.234208 0.674829 0.599608 0.126599
H8    H     H_    0.765791 0.325172 0.400391 0.126600
H9    H     H_    0.803198 0.644859 0.936008 0.155316
H10   H     H_    0.243948 0.364596 0.384882 0.171377
H11   H     H_    0.756052 0.635404 0.615119 0.171377
H12   H     H_    0.459273 0.436470 0.217324 0.125960
H13   H     H_    0.540729 0.563530 0.782675 0.125960
H14   H     H_    0.150261 0.342132 0.924700 0.158964
H15   H     H_    0.849736 0.657875 0.075302 0.158964
H16   H     H_    0.331301 0.406581 0.150815 0.133782
N1    N     N_R   0.216750 0.481110 0.483710 -0.283867
N2    N     N_R   0.783250 0.518890 0.516290 -0.283866
O1    O     O_R   0.419950 0.645670 0.495380 -0.533026
O2    O     O_2   0.809749 0.861936 0.555577 -0.394259
O3    O     O_2   0.135472 0.567778 0.687052 -0.432882
O4    O     O_2   0.864530 0.432223 0.312948 -0.432883
O5    O     O_R   0.580050 0.354330 0.504620 -0.533026
O6    O     O_R   0.611110 0.658410 0.506370 -0.513231
O7    O     O_R   0.388890 0.341590 0.493630 -0.513231
O8    O     O_R   0.350820 0.490050 0.621260 -0.441809
O9    O     O_R   0.649180 0.509950 0.378740 -0.441810
O10   O     O_R   0.541970 0.502800 0.632250 -0.520921
O11   O     O_R   0.458030 0.497200 0.367750 -0.520921
O12   O     O_2   0.190248 0.138064 0.444425 -0.394256

loop_
_geom_bond_atom_site_label_1
_geom_bond_atom_site_label_2
_ccdc_geom_bond_type
C34   C41   A    
C39   H8    S    
C37   O2    D    
C4    C36   S    
C22   H14   S    
C36   O12   D    
C6    C42   A    
Cu2   O5    S    
C27   H13   S    
C33   C35   A    
C12   O5    A    
C29   C31   A    
C10   C13   A    
C1    O1    A    
C9    C19   A    
C13   H10   S    
C23   H16   S    
C24   C32   A    
C37   H6    S    
C14   C18   A    
Br1   C9    S    
C17   C21   S    
Cu2   O9    S    
Br2   C10   S    
Cu1   O11   S    
C14   C39   S    
C20   C25   A    
C10   C18   A    
C7    C8    A    
C14   N2    A    
C30   C35   A    
Br3   C26   S    
Cu1   O1    S    
C36   H5    S    
C21   C28   A    
C3    C37   S    
Cu1   Cu2   S    
C6    H3    S    
C3    C43   A    
C18   C19   A    
C1    C43   S    
C33   C34   A    
Br6   C2    S    
C15   N1    A    
C39   O4    D    
C29   C33   A    
Cu1   O7    S    
C5    C43   A    
C15   C38   S    
C20   C27   A    
C28   H12   S    
C16   O8    A    
C32   C41   A    
C6    C8    A    
C34   H2    S    
C4    C42   A    
Br5   C44   S    
C13   N1    A    
C9    C11   A    
C15   C19   A    
C17   O11   A    
C23   C35   A    
C21   C26   A    
C22   C25   A    
C3    C44   A    
C24   H15   S    
Cu2   O6    S    
C12   C42   S    
C41   H9    S    
C1    O6    A    
C23   C40   A    
C30   C32   A    
Cu1   O8    S    
C16   O10   A    
C38   H7    S    
C11   H11   S    
C24   C26   A    
C5    C7    A    
C8    C44   A    
C22   C31   A    
C12   O7    A    
C40   H1    S    
C27   C29   A    
C28   C30   A    
C38   O3    D    
Br4   C25   S    
Cu2   N2    S    
C2    C7    A    
C11   N2    A    
C2    C4    A    
C16   C20   S    
Cu1   N1    S    
C17   O9    A    
C31   C40   A    
Cu2   O10   S    
C5    H4    S    
