data_mof_unit_19443.cif
_audit_creation_date              2012-12-10T17:15:47-0500
_audit_creation_method            fapswitch 2.2
_symmetry_space_group_name_H-M    P1
_symmetry_Int_Tables_number       1
_space_group_crystal_system       triclinic
_cell_length_a                    10.122258
_cell_length_b                    10.766662
_cell_length_c                    10.547842
_cell_angle_alpha                 91.741254
_cell_angle_beta                  93.829539
_cell_angle_gamma                 82.191865
_cell_volume                      1136.06983895

loop_
_atom_site_label
_atom_site_type_symbol
_atom_type_description
_atom_site_fract_x
_atom_site_fract_y
_atom_site_fract_z
_atom_type_partial_charge
C1    C     C_R   0.446232 0.511513 0.265769 0.795838
C2    C     C_2   0.490791 0.603220 0.933435 0.482419
C3    C     C_2   0.083650 0.468966 0.501973 0.473577
C4    C     C_R   0.505219 0.261339 0.517919 0.906912
C5    C     C_2   0.939454 0.463879 0.535041 0.379723
C6    C     C_R   0.553888 0.499144 0.734868 0.811624
C7    C     C_R   0.504391 0.740750 0.511872 0.881367
C8    C     C_R   0.768382 0.093637 0.515947 0.225201
C9    C     C_R   0.853904 0.025577 0.432230 0.333687
C10   C     C_R   0.850682 0.895869 0.421516 0.032804
C11   C     C_R   0.761600 0.845689 0.496853 0.140050
C12   C     C_R   0.643000 0.050583 0.533443 -0.089253
C13   C     C_R   0.639403 0.921406 0.523623 -0.041186
C14   C     C_3   0.836900 0.354039 0.242014 -0.592202
C15   C     C_3   0.820404 0.167502 0.730194 -0.764389
C16   C     C_3   0.079536 0.806143 0.374829 -0.716820
C17   C     C_3   0.809316 0.769612 0.713003 -0.641217
C18   C     C_3   0.167571 0.970737 0.648518 -0.646998
C19   C     C_3   0.691119 0.721393 0.099949 -0.703933
C20   C     C_R   0.522471 0.130535 0.555560 -0.271416
C21   C     C_R   0.415584 0.082274 0.605528 0.413277
C22   C     C_R   0.408605 0.953282 0.593828 0.165332
C23   C     C_R   0.517482 0.873298 0.543078 -0.239823
C24   C     C_2   0.421459 0.532158 0.129965 0.178347
C25   C     C_2   0.496019 0.606547 0.072512 0.134290
C26   C     C_2   0.578848 0.520839 0.871937 0.201558
H1    H     H_    0.361889 0.228723 0.711065 0.343899
H2    H     H_    0.906406 0.214832 0.569453 0.264450
H3    H     H_    0.871142 0.239895 0.783326 0.249782
H4    H     H_    0.877613 0.074488 0.752806 0.219099
H5    H     H_    0.717275 0.172516 0.761689 0.239256
H6    H     H_    0.958955 0.041967 0.289424 0.355468
H7    H     H_    0.906159 0.729310 0.324104 0.220545
H8    H     H_    0.133234 0.735831 0.310615 0.241256
H9    H     H_    0.102633 0.775777 0.473550 0.267385
H10   H     H_    0.118146 0.896147 0.363503 0.264431
H11   H     H_    0.907081 0.702886 0.553605 0.263593
H12   H     H_    0.293417 0.412995 0.115942 0.347972
H13   H     H_    0.704301 0.790892 0.739688 0.212521
H14   H     H_    0.864700 0.849161 0.741860 0.203175
H15   H     H_    0.855854 0.685872 0.766174 0.282800
H16   H     H_    0.326831 0.837861 0.712916 0.267530
H17   H     H_    0.092650 0.904927 0.651783 0.211312
H18   H     H_    0.141264 0.030473 0.564171 0.288560
H19   H     H_    0.161953 0.028144 0.737682 0.264723
H20   H     H_    0.334662 0.729695 0.929283 0.336755
H21   H     H_    0.551554 0.712065 0.236896 0.226912
H22   H     H_    0.725323 0.801962 0.154791 0.229997
H23   H     H_    0.994944 0.448635 0.713631 0.355790
H24   H     H_    0.683655 0.745198 0.997807 0.234707
H25   H     H_    0.765719 0.637016 0.116713 0.270981
H26   H     H_    0.739339 0.400824 0.878583 0.352222
H27   H     H_    0.085158 0.313197 0.405583 0.335049
H28   H     H_    0.944345 0.504903 0.298217 0.201408
H29   H     H_    0.775813 0.389859 0.156809 0.272852
H30   H     H_    0.779642 0.291381 0.291685 0.264695
H31   H     H_    0.930825 0.299208 0.211584 0.219863
H32   H     H_    0.191360 0.658603 0.686948 0.397967
N1    N     N_2   0.157290 0.551390 0.551110 0.022810
N2    N     N_2   0.842740 0.448550 0.448960 -0.041147
N3    N     N_2   0.867260 0.458644 0.322494 -0.280449
N4    N     N_2   0.817632 0.189265 0.595348 -0.233262
N5    N     N_2   0.937134 0.815668 0.343087 -0.333252
N6    N     N_2   0.814981 0.744635 0.577414 -0.239596
N7    N     N_2   0.299564 0.900250 0.641228 -0.291453
N8    N     N_2   0.562714 0.699823 0.140874 -0.343799
O1    O     O_R   0.568950 0.489660 0.307530 -0.593886
O2    O     O_3   0.334323 0.465618 0.058036 -0.753698
O3    O     O_3   0.910137 0.466408 0.660876 -0.734471
O4    O     O_3   0.140977 0.382066 0.416121 -0.748219
O5    O     O_3   0.114592 0.616676 0.654155 -0.760864
O6    O     O_3   0.942811 0.085910 0.371952 -0.827507
O7    O     O_3   0.389010 0.677768 0.867314 -0.824113
O8    O     O_3   0.687373 0.456551 0.938875 -0.824639
O9    O     O_R   0.348880 0.522640 0.340350 -0.577054
O10   O     O_R   0.610060 0.300270 0.483590 -0.598959
O11   O     O_R   0.389990 0.333260 0.516410 -0.537339
O12   O     O_R   0.651120 0.477360 0.659650 -0.543196
O13   O     O_R   0.431050 0.510340 0.692470 -0.574324
O14   O     O_R   0.610010 0.666740 0.483590 -0.587716
O15   O     O_R   0.389940 0.699730 0.516410 -0.614588
O16   O     O_3   0.319605 0.159445 0.668289 -0.756774
Zn1   Zn    Zn3+2 0.646940 0.477980 0.478090 1.012871
Zn2   Zn    Zn3+2 0.353060 0.522020 0.521910 1.028899

loop_
_geom_bond_atom_site_label_1
_geom_bond_atom_site_label_2
_ccdc_geom_bond_type
C14   H30   S    
O1    Zn1   S    
C10   N5    S    
C9    O6    S    
H11   N6    S    
H6    O6    S    
C18   N7    S    
H26   O8    S    
C16   H9    S    
H2    N4    S    
O13   Zn2   S    
N2    Zn1   S    
H32   O5    S    
C6    O12   A    
C13   C23   A    
C19   N8    S    
C17   H13   S    
C5    O3    S    
C26   O8    S    
O12   Zn1   S    
C8    C9    A    
H16   N7    S    
C16   N5    S    
C9    C10   A    
H21   N8    S    
C8    C12   A    
C16   H8    S    
C14   H29   S    
H23   O3    S    
C21   C22   A    
O14   Zn1   S    
H27   O4    S    
O10   Zn1   S    
C15   H3    S    
C1    O9    A    
C3    O4    S    
N1    Zn2   S    
C11   N6    S    
C19   H22   S    
O11   Zn2   S    
C14   N3    S    
N2    N3    S    
C17   H14   S    
C22   N7    S    
C18   H18   S    
H7    N5    S    
C12   C20   A    
C2    C26   D    
C24   C25   D    
C2    O7    S    
C7    O15   A    
H12   O2    S    
C18   H19   S    
O15   Zn2   S    
C15   H4    S    
C14   H31   S    
C5    N2    D    
C20   C21   A    
H1    O16   S    
C25   N8    S    
C3    C5    S    
C15   H5    S    
H28   N3    S    
C4    O11   A    
C17   N6    S    
C18   H17   S    
C16   H10   S    
C21   O16   S    
C11   C13   A    
C19   H24   S    
C6    O13   A    
C6    C26   S    
C7    C23   S    
C1    O1    A    
C15   N4    S    
C2    C25   S    
O9    Zn2   S    
C17   H15   S    
C4    O10   A    
C10   C11   A    
C24   O2    S    
C4    C20   S    
C19   H25   S    
C12   C13   A    
C1    C24   S    
C8    N4    S    
C22   C23   A    
H20   O7    S    
N1    O5    S    
C7    O14   A    
C3    N1    D    
