data_mof_unit_19701.cif
_audit_creation_date              2013-03-05T15:43:40-0500
_audit_creation_method            fapswitch 2.2
_symmetry_space_group_name_H-M    P1
_symmetry_Int_Tables_number       1
_space_group_crystal_system       triclinic
_cell_length_a                    15.870203
_cell_length_b                    10.921721
_cell_length_c                    9.732251
_cell_angle_alpha                 89.313793
_cell_angle_beta                  88.02082
_cell_angle_gamma                 90.942517
_cell_volume                      1685.52312578

loop_
_atom_site_label
_atom_site_type_symbol
_atom_site_description
_atom_site_fract_x
_atom_site_fract_y
_atom_site_fract_z
_atom_type_partial_charge
O1    O     O_R   0.500010 0.321960 0.617040 -0.556196
O2    O     O_R   0.499990 0.321920 0.382900 -0.546105
C1    C     C_R   0.499110 0.265169 0.500317 0.901973
O3    O     O_R   0.379450 0.500030 0.617120 -0.537683
O4    O     O_R   0.379420 0.499980 0.382980 -0.546651
C2    C     C_R   0.340243 0.499081 0.502224 0.850660
Cu1   Cu    Cu3+1 0.500020 0.500020 0.638630 1.024288
Cu2   Cu    Cu3+1 0.499980 0.499980 0.361370 1.041857
O5    O     O_R   0.500010 0.678080 0.617100 -0.569167
O6    O     O_R   0.499990 0.678040 0.382960 -0.534428
O7    O     O_R   0.620580 0.500020 0.617020 -0.577797
O8    O     O_R   0.620550 0.499970 0.382880 -0.615244
C3    C     C_R   0.498957 0.734543 0.499206 0.905608
C4    C     C_R   0.659622 0.500187 0.497709 0.763367
C5    C     C_3   0.041152 0.458051 0.653300 0.193705
C6    C     C_3   0.051735 0.396145 0.396075 0.153967
C7    C     C_3   0.952599 0.377594 0.406874 0.595772
H1    H     H_    0.067666 0.445032 0.297230 0.169228
C8    C     C_1   0.749110 0.498031 0.492451 -0.082007
C9    C     C_3   0.082386 0.487459 0.507341 -0.075295
C10   C     C_3   0.941930 0.477600 0.651082 0.554835
C11   C     C_3   0.916950 0.490261 0.494433 -0.095818
C12   C     C_3   0.956245 0.613409 0.435734 0.177150
C13   C     C_3   0.052270 0.616680 0.462667 -0.606189
C14   C     C_1   0.824593 0.495006 0.490504 0.195844
C15   C     C_1   0.174796 0.491323 0.509504 0.056801
C16   C     C_1   0.250448 0.495238 0.507259 -0.089013
H2    H     H_    0.065607 0.684441 0.543914 0.220463
H3    H     H_    0.088067 0.649564 0.368490 0.241908
H4    H     H_    0.926196 0.690668 0.492277 0.161117
H5    H     H_    0.069572 0.524539 0.724896 0.114416
C17   C     C_2   0.478375 0.934836 0.390036 0.258540
C18   C     C_2   0.504039 0.866851 0.496656 -0.504194
H6    H     H_    0.536988 0.908842 0.580507 0.137598
C19   C     C_2   0.499532 0.066384 0.385654 0.383099
C20   C     C_2   0.490518 0.132687 0.501164 -0.438161
H7    H     H_    0.471645 0.089218 0.598642 0.158853
C21   C     C_2   0.442194 0.444686 0.927910 0.449148
N1    N     N_2   0.499090 0.498660 0.846910 -0.314545
H8    H     H_    0.557240 0.513349 0.887209 0.196992
C22   C     C_2   0.453213 0.427220 0.080497 0.056342
N2    N     N_2   0.499070 0.498630 0.153040 -0.046838
H9    H     H_    0.419151 0.351930 0.132085 0.155703
O9    O     O_3   0.897090 0.372852 0.707447 -0.543423
C23   C     C_3   0.894249 0.365888 0.852649 0.252022
H10   H     H_    0.843512 0.424825 0.895049 0.189636
H11   H     H_    0.954943 0.393986 0.896890 0.179889
C24   C     C_3   0.872986 0.234292 0.895972 -0.740442
H12   H     H_    0.922527 0.172241 0.855998 0.259810
H13   H     H_    0.868249 0.225777 0.009646 0.241963
H14   H     H_    0.811573 0.205869 0.853969 0.227792
N3    N     N_R   0.915633 0.589756 0.726627 0.032682
O10   O     O_R   0.970001 0.665144 0.778573 -0.413488
O11   O     O_R   0.835962 0.614545 0.742861 -0.397621
O12   O     O_3   0.943286 0.621727 0.292136 -0.530795
C25   C     C_3   0.930204 0.743610 0.248238 0.153041
H15   H     H_    0.952438 0.752089 0.139014 0.205045
H16   H     H_    0.967404 0.812087 0.305948 0.121509
C26   C     C_3   0.836346 0.772251 0.255994 -0.862210
H17   H     H_    0.812185 0.770673 0.364448 0.227482
H18   H     H_    0.825999 0.864539 0.211059 0.205916
H19   H     H_    0.800612 0.703134 0.197529 0.272435
N4    N     N_R   0.429228 0.883398 0.282122 0.182369
O13   O     O_R   0.439163 0.924262 0.156412 -0.296915
O14   O     O_R   0.364954 0.811509 0.313132 -0.320171
O15   O     O_3   0.520823 0.121923 0.260121 -0.517297
C27   C     C_3   0.606211 0.097843 0.227091 0.096449
H20   H     H_    0.615195 0.998416 0.208411 0.137772
H21   H     H_    0.647777 0.127976 0.310875 0.123710
C28   C     C_3   0.633050 0.168632 0.096856 -0.732120
H22   H     H_    0.625932 0.268483 0.113301 0.243959
H23   H     H_    0.700124 0.150106 0.069641 0.194958
H24   H     H_    0.593500 0.140061 0.010509 0.253410
N5    N     N_R   0.365922 0.396898 0.873933 0.125771
O16   O     O_R   0.294322 0.429173 0.930293 -0.389863
O17   O     O_R   0.368118 0.298759 0.799723 -0.361690
O18   O     O_3   0.057671 0.335588 0.694555 -0.511551
C29   C     C_3   0.121389 0.330373 0.792585 0.115484
H25   H     H_    0.103873 0.383653 0.885783 0.162391
H26   H     H_    0.182198 0.366198 0.747581 0.198514
C30   C     C_3   0.133626 0.198069 0.836960 -0.581185
H27   H     H_    0.152335 0.142034 0.746871 0.263695
H28   H     H_    0.183990 0.193647 0.913216 0.244536
H29   H     H_    0.074305 0.159808 0.884969 0.222903
O19   O     O_3   0.516280 0.609414 0.094295 -0.466077
C31   C     C_3   0.602549 0.636899 0.110599 0.190670
H30   H     H_    0.642757 0.556230 0.088356 0.121513
H31   H     H_    0.613995 0.669225 0.215596 0.177869
C32   C     C_3   0.629587 0.740430 0.011600 -0.814311
H32   H     H_    0.591396 0.822792 0.032858 0.274285
H33   H     H_    0.697101 0.764211 0.024332 0.211352
H34   H     H_    0.620953 0.712547 0.903629 0.260410
N6    N     N_R   0.098845 0.281091 0.388873 0.140439
O20   O     O_R   0.098596 0.203105 0.490718 -0.298359
O21   O     O_R   0.142775 0.256514 0.277495 -0.336993
O22   O     O_3   0.930920 0.267532 0.482385 -0.527645
C33   C     C_3   0.916139 0.162509 0.402316 0.174579
H35   H     H_    0.966426 0.150229 0.321512 0.182884
H36   H     H_    0.853883 0.168108 0.354123 0.155489
C34   C     C_3   0.912956 0.050362 0.496726 -0.737519
H37   H     H_    0.864305 0.062013 0.580171 0.252014
H38   H     H_    0.896457 0.967908 0.437488 0.177222
H39   H     H_    0.975062 0.036894 0.543221 0.286703
N7    N     N_R   0.917560 0.376505 0.266370 0.094802
O23   O     O_R   0.836533 0.374131 0.249523 -0.416095
O24   O     O_R   0.966645 0.360318 0.158418 -0.423509

loop_
_geom_bond_atom_site_label_1
_geom_bond_atom_site_label_2
_geom_bond_distance
_ccdc_geom_bond_type
O12   C25   1.413954 S    
N4    O14   1.301823 A    
N6    O20   1.298961 A    
C22   N2    1.290873 D    
C19   C20   1.349222 D    
C33   C34   1.521459 S    
N7    O24   1.301654 A    
C33   H35   1.111756 S    
Cu1   Cu2   2.698390 S    
C5    O18   1.422955 S    
O18   C29   1.415353 S    
O9    C23   1.413399 S    
Cu1   O7    1.917602 S    
C15   C16   1.200112 T    
N5    O17   1.299892 A    
C20   H7    1.086276 S    
C7    N7    1.493945 S    
Cu2   N2    2.028299 S    
O4    C2    1.297355 A    
O7    C4    1.297082 A    
C29   H26   1.109295 S    
C25   H15   1.110731 S    
O5    C3    1.296821 A    
C13   H3    1.114106 S    
C30   H28   1.110565 S    
C24   H14   1.110839 S    
C9    C13   1.559200 S    
C6    C7    1.582723 S    
C11   C14   1.469289 S    
C12   C13   1.555113 S    
C28   H22   1.111140 S    
C32   H33   1.109791 S    
C6    C9    1.565294 S    
C24   H13   1.108954 S    
O15   C27   1.411572 S    
C26   H17   1.110309 S    
N6    O21   1.301540 A    
C10   C11   1.593431 S    
C22   H9    1.084995 S    
O3    Cu1   1.932061 S    
N7    O23   1.301822 A    
C33   H36   1.110502 S    
N3    O11   1.302094 A    
C30   H27   1.110074 S    
C23   H11   1.108813 S    
C5    C9    1.570734 S    
C26   H18   1.110853 S    
N5    O16   1.300414 A    
C27   H20   1.113835 S    
C12   H4    1.117358 S    
C21   C22   1.511457 S    
O3    C2    1.298363 A    
N1    H8    1.026092 S    
C7    O22   1.432184 S    
C31   H30   1.115261 S    
C19   O15   1.386253 S    
O19   C31   1.411503 S    
C31   C32   1.523282 S    
C34   H39   1.109890 S    
O1    C1    1.301177 A    
C17   C19   1.469838 S    
C3    C18   1.445825 S    
C10   O9    1.430856 S    
C2    C16   1.424133 S    
Cu2   O8    1.932063 S    
O22   C33   1.415316 S    
C28   H24   1.110760 S    
C34   H38   1.107699 S    
C18   H6    1.086402 S    
C6    N6    1.473871 S    
N2    O19   1.351752 S    
C32   H34   1.109927 S    
C12   O12   1.421640 S    
Cu2   O6    1.958537 S    
C24   H12   1.109728 S    
O8    C4    1.296646 A    
C30   H29   1.109604 S    
N3    O10   1.301813 A    
C21   N5    1.429416 S    
C23   C24   1.522186 S    
Cu1   O5    1.953483 S    
C26   H19   1.110725 S    
O1    Cu1   1.958538 S    
C4    C8    1.419945 S    
O2    Cu2   1.953485 S    
C13   H2    1.112729 S    
C17   N4    1.443361 S    
O6    C3    1.294907 A    
O4    Cu2   1.917604 S    
C5    H5    1.113242 S    
C7    C11   1.604716 S    
C25   C26   1.526569 S    
C27   C28   1.521210 S    
C17   C18   1.347077 D    
O2    C1    1.293001 A    
C29   H25   1.113172 S    
C29   C30   1.520623 S    
C21   N1    1.306314 D    
C9    C15   1.467362 S    
C1    C20   1.451016 S    
C34   H37   1.110970 S    
C25   H16   1.114347 S    
C31   H31   1.105072 S    
C8    C14   1.198433 T    
N4    O13   1.300826 A    
C23   H10   1.110604 S    
C5    C10   1.593398 S    
C6    H1    1.113939 S    
Cu1   N1    2.026452 S    
C11   C12   1.566415 S    
C28   H23   1.110454 S    
C27   H21   1.115700 S    
C32   H32   1.110430 S    
C10   N3    1.494120 S    
