data_mof_unit_42128.cif
_audit_creation_date              2012-12-10T16:35:08-0500
_audit_creation_method            fapswitch 2.2
_symmetry_space_group_name_H-M    P1
_symmetry_Int_Tables_number       1
_space_group_crystal_system       triclinic
_cell_length_a                    10.790467
_cell_length_b                    10.914566
_cell_length_c                    10.903076
_cell_angle_alpha                 80.898547
_cell_angle_beta                  98.43025
_cell_angle_gamma                 90.214605
_cell_volume                      1253.97548796

loop_
_atom_site_label
_atom_site_type_symbol
_atom_type_description
_atom_site_fract_x
_atom_site_fract_y
_atom_site_fract_z
_atom_type_partial_charge
C1    C     C_R   0.834997 0.471654 0.528547 0.859321
C2    C     C_2   0.968530 0.461420 0.539437 -0.305304
C3    C     C_2   0.461967 0.530015 0.024151 -0.107256
C4    C     C_2   0.539600 0.461306 0.971880 -0.058341
C5    C     C_R   0.163989 0.527487 0.472443 0.881425
C6    C     C_R   0.524805 0.471926 0.838031 0.838564
C7    C     C_R   0.476065 0.526389 0.160241 0.837307
C8    C     C_R   0.525733 0.833971 0.474230 0.850892
C9    C     C_R   0.475509 0.163584 0.522589 0.857728
C10   C     C_2   0.464582 0.027818 0.527841 -0.119828
C11   C     C_2   0.537407 0.966197 0.463092 -0.069251
C12   C     C_2   0.028772 0.537563 0.461352 -0.358842
H1    H     H_    0.977915 0.607155 0.389263 0.146117
H2    H     H_    0.017000 0.391609 0.612712 0.158770
O1    O     O_3   0.500000 0.500000 0.500000 -0.476839
O2    O     O_R   0.441590 0.410520 0.779910 -0.653850
O3    O     O_R   0.548210 0.443940 0.230290 -0.653326
O4    O     O_R   0.787780 0.544200 0.591150 -0.638710
O5    O     O_R   0.222430 0.601350 0.398650 -0.647106
O6    O     O_R   0.767360 0.410530 0.454140 -0.642819
O7    O     O_R   0.222430 0.443930 0.556060 -0.641904
O8    O     O_R   0.597340 0.544190 0.781580 -0.651165
O9    O     O_R   0.412870 0.601350 0.208220 -0.648280
O10   O     O_R   0.597340 0.765700 0.560080 -0.651006
O11   O     O_R   0.548200 0.222430 0.451790 -0.671835
O12   O     O_R   0.441590 0.789440 0.401000 -0.654020
O13   O     O_R   0.412860 0.222430 0.587130 -0.659391
Zn1   Zn    Zn3+2 0.396020 0.396030 0.603970 0.935535
Zn2   Zn    Zn3+2 0.618560 0.587010 0.606350 0.942838
Zn3   Zn    Zn3+2 0.396030 0.620930 0.379070 0.944770
Zn4   Zn    Zn3+2 0.589390 0.396030 0.410610 0.925802
C13   C     C_3   0.372230 0.952082 0.604837 -0.451494
C14   C     C_3   0.284682 0.021503 0.670918 -0.286554
C15   C     C_3   0.196237 0.932327 0.735725 -0.944489
H3    H     H_    0.137542 0.884053 0.666327 0.270251
H4    H     H_    0.250782 0.862570 0.808504 0.267105
H5    H     H_    0.133586 0.984876 0.781864 0.257620
H6    H     H_    0.340704 0.067262 0.744172 0.246430
H7    H     H_    0.226663 0.091516 0.601040 0.241982
H8    H     H_    0.310856 0.900527 0.540237 0.217493
H9    H     H_    0.427601 0.882613 0.677801 0.204840
C16   C     C_3   0.632760 0.025184 0.380820 -0.394756
C17   C     C_3   0.703180 0.934399 0.319259 -0.388672
C18   C     C_3   0.793952 0.003056 0.238592 -0.888736
H10   H     H_    0.742341 0.071791 0.162306 0.259007
H11   H     H_    0.864682 0.051886 0.297032 0.265599
H12   H     H_    0.843407 0.935584 0.195552 0.251713
H13   H     H_    0.757444 0.864934 0.392981 0.230239
H14   H     H_    0.635153 0.884942 0.258512 0.222202
H15   H     H_    0.582438 0.093532 0.303140 0.230615
H16   H     H_    0.704797 0.072291 0.439785 0.233293
C19   C     C_3   0.352620 0.607814 0.944788 -0.434963
C20   C     C_3   0.232667 0.531633 0.936445 -0.326242
C21   C     C_3   0.123837 0.604677 0.851356 -0.859201
H17   H     H_    0.102603 0.689726 0.889069 0.263150
H18   H     H_    0.147027 0.630923 0.754787 0.263055
H19   H     H_    0.039124 0.546508 0.846783 0.253305
H20   H     H_    0.248906 0.445248 0.898695 0.241421
H21   H     H_    0.206411 0.505026 0.031829 0.218366
H22   H     H_    0.336563 0.691650 0.986850 0.217764
H23   H     H_    0.373425 0.644035 0.849040 0.192127
C22   C     C_3   0.654218 0.383255 0.039151 -0.397734
C23   C     C_3   0.764106 0.464285 0.081998 -0.286505
C24   C     C_3   0.874257 0.384635 0.156584 -0.871867
H24   H     H_    0.845598 0.328692 0.241754 0.284606
H25   H     H_    0.908474 0.321371 0.097861 0.249392
H26   H     H_    0.952075 0.445378 0.186273 0.244629
H27   H     H_    0.795665 0.520114 0.998144 0.218671
H28   H     H_    0.735533 0.530035 0.141062 0.224262
H29   H     H_    0.630115 0.312499 0.116400 0.229236
H30   H     H_    0.687546 0.326672 0.973440 0.162844

loop_
_geom_bond_atom_site_label_1
_geom_bond_atom_site_label_2
_ccdc_geom_bond_type
O2    Zn1   S    
C13   H9    S    
O9    Zn3   S    
O1    Zn4   S    
C22   C23   S    
C5    O5    A    
O8    Zn2   S    
C4    C22   S    
C15   H5    S    
C8    O12   A    
C17   H13   S    
C3    C7    S    
C14   H6    S    
C7    O9    A    
C18   H12   S    
C16   H16   S    
C20   H20   S    
C2    C12   D    
C13   C14   S    
C24   H25   S    
C14   C15   S    
C1    O4    A    
C9    O11   A    
O4    Zn2   S    
C20   C21   S    
C12   H1    S    
C22   H29   S    
O1    Zn1   S    
C14   H7    S    
C16   H15   S    
C8    C11   S    
C2    H2    S    
C1    C2    S    
C24   H24   S    
C8    O10   A    
O7    Zn1   S    
C18   H11   S    
C22   H30   S    
O12   Zn3   S    
C15   H4    S    
C19   H23   S    
C13   H8    S    
C17   C18   S    
C20   H21   S    
O3    Zn4   S    
C3    C19   S    
C21   H18   S    
C10   C11   D    
C6    O2    A    
C23   C24   S    
C6    O8    A    
C24   H26   S    
C10   C13   S    
O10   Zn2   S    
C9    C10   S    
C5    O7    A    
C18   H10   S    
C9    O13   A    
O1    Zn3   S    
C4    C6    S    
C15   H3    S    
C16   C17   S    
O13   Zn1   S    
C23   H27   S    
C17   H14   S    
C1    O6    A    
C11   C16   S    
C19   H22   S    
O1    Zn2   S    
C21   H17   S    
O5    Zn3   S    
O11   Zn4   S    
O6    Zn4   S    
C3    C4    D    
C23   H28   S    
C19   C20   S    
C7    O3    A    
C21   H19   S    
C5    C12   S    
