data_mof_unit_8890.cif
_audit_creation_date              2012-12-11T14:06:32-0500
_audit_creation_method            fapswitch 2.2
_symmetry_space_group_name_H-M    P1
_symmetry_Int_Tables_number       1
_space_group_crystal_system       triclinic
_cell_length_a                    11.933431
_cell_length_b                    11.942064
_cell_length_c                    19.483597
_cell_angle_alpha                 89.793802
_cell_angle_beta                  89.980981
_cell_angle_gamma                 119.759578
_cell_volume                      2410.3906803

loop_
_atom_site_label
_atom_site_type_symbol
_atom_type_description
_atom_site_fract_x
_atom_site_fract_y
_atom_site_fract_z
_atom_type_partial_charge
C1    C     C_R   0.553723 0.475018 0.597804 0.537040
C2    C     C_R   0.523478 0.075675 0.597162 0.540362
C3    C     C_R   0.921272 0.445923 0.597851 0.538322
C4    C     C_2   0.040546 0.428521 0.306807 0.217797
C5    C     C_2   0.585890 0.601488 0.301799 0.253566
C6    C     C_2   0.392596 0.974833 0.304216 0.205269
C7    C     C_R   0.410082 0.853479 0.919189 0.554787
C8    C     C_R   0.077006 0.528189 0.928391 0.533710
C9    C     C_R   0.472251 0.549410 0.928395 0.532438
C10   C     C_R   0.450704 0.924138 0.123389 0.596557
C11   C     C_R   0.073962 0.525936 0.123037 0.582615
C12   C     C_R   0.473588 0.548968 0.122990 0.579789
C13   C     C_R   0.551576 0.478198 0.405112 0.544637
C14   C     C_R   0.522424 0.074082 0.404573 0.607050
C15   C     C_R   0.927143 0.449165 0.404871 0.600159
C16   C     C_1   0.035693 0.515657 0.858642 0.000525
C17   C     C_1   0.485577 0.521080 0.858707 0.002719
C18   C     C_1   0.437337 0.892749 0.848509 0.000508
C19   C     C_1   0.992502 0.493803 0.726788 -0.028250
C20   C     C_1   0.506008 0.498332 0.726858 -0.028127
C21   C     C_1   0.479679 0.967655 0.719924 -0.025462
C22   C     C_1   0.013672 0.506658 0.798079 -0.033936
C23   C     C_1   0.494174 0.507584 0.798167 -0.032999
C24   C     C_1   0.457493 0.925409 0.789019 -0.031681
C25   C     C_1   0.968052 0.476856 0.666574 0.014563
C26   C     C_1   0.522366 0.490347 0.666589 0.013836
C27   C     C_1   0.498889 0.011107 0.662383 0.012623
C28   C     C_2   0.019079 0.505241 0.349165 0.221300
C29   C     C_2   0.502041 0.513986 0.346617 0.219223
C30   C     C_2   0.485459 0.985265 0.347974 0.217542
C31   C     C_2   0.035668 0.512731 0.194359 -0.028701
C32   C     C_2   0.487466 0.522155 0.193246 -0.017911
C33   C     C_2   0.475827 0.961779 0.194346 -0.040694
C34   C     C_2   0.098366 0.477807 0.239426 0.231751
C35   C     C_2   0.538471 0.621219 0.237584 0.295630
C36   C     C_2   0.375727 0.911894 0.238565 0.224766
Cr1   Cr    Cr6+3 0.468420 0.238090 0.499960 1.047681
Cr2   Cr    Cr6+3 0.761910 0.230330 0.499960 1.058306
Cr3   Cr    Cr6+3 0.769670 0.531580 0.499960 1.075960
Cr4   Cr    Cr6+3 0.515700 0.760130 0.026360 1.064501
Cr5   Cr    Cr6+3 0.239870 0.755570 0.026360 1.058573
Cr6   Cr    Cr6+3 0.244430 0.484300 0.026360 1.052494
H1    H     H_    0.951675 0.520021 0.208993 0.000161
H2    H     H_    0.464381 0.425146 0.208086 0.004365
H3    H     H_    0.572547 0.034098 0.209870 0.028832
O1    O     O_R   0.434830 0.101190 0.575190 -0.501174
O2    O     O_R   0.898810 0.333640 0.575190 -0.505127
O3    O     O_R   0.666360 0.565170 0.575190 -0.502298
O4    O     O_3   0.333333 0.666667 0.026340 -0.248431
O5    O     O_R   0.480130 0.360720 0.570290 -0.498449
O6    O     O_R   0.639280 0.119410 0.570290 -0.496906
O7    O     O_R   0.880590 0.519870 0.570290 -0.497355
O8    O     O_R   0.439410 0.104260 0.424150 -0.475594
O9    O     O_R   0.895740 0.335150 0.424150 -0.481932
O10   O     O_R   0.664850 0.560590 0.424150 -0.460454
O11   O     O_R   0.484380 0.363570 0.430280 -0.526119
O12   O     O_R   0.636430 0.120810 0.430280 -0.489590
O13   O     O_R   0.879190 0.515620 0.430280 -0.474964
O14   O     O_3   0.666667 0.333333 0.499980 -0.311062
O15   O     O_R   0.548200 0.655360 0.951320 -0.525601
O16   O     O_R   0.344640 0.892840 0.951320 -0.512389
O17   O     O_R   0.107160 0.451800 0.951320 -0.513882
O18   O     O_R   0.505020 0.871000 0.955840 -0.500310
O19   O     O_R   0.129000 0.634020 0.955840 -0.527852
O20   O     O_R   0.365980 0.494980 0.955840 -0.508458
O21   O     O_R   0.543640 0.655270 0.102360 -0.461727
O22   O     O_R   0.344730 0.888370 0.102360 -0.456032
O23   O     O_R   0.111630 0.456360 0.102360 -0.472537
O24   O     O_R   0.500790 0.870920 0.095850 -0.457971
O25   O     O_R   0.129080 0.629870 0.095850 -0.457279
O26   O     O_R   0.370130 0.499210 0.095850 -0.464086
O27   O     O_3   0.206265 0.471951 0.219317 -0.642004
H4    H     H_    0.216806 0.414027 0.251402 0.367376
O28   O     O_3   0.567010 0.744352 0.218314 -0.664694
H5    H     H_    0.627995 0.806365 0.252032 0.344240
O29   O     O_3   0.253364 0.819421 0.217968 -0.662669
H6    H     H_    0.189870 0.820342 0.250194 0.348534
O30   O     O_3   0.009752 0.304271 0.326786 -0.555126
C37   C     C_3   0.936774 0.213707 0.275590 -0.030567
H7    H     H_    0.000363 0.218193 0.232672 0.138982
H8    H     H_    0.858590 0.230043 0.255305 0.110524
C38   C     C_3   0.873734 0.079062 0.306599 -0.321214
H9    H     H_    0.807799 0.071124 0.348856 0.230726
H10   H     H_    0.817928 0.007046 0.266541 0.112970
H11   H     H_    0.948141 0.058495 0.327502 0.152070
O31   O     O_3   0.716411 0.679822 0.316206 -0.553436
C39   C     C_3   0.792543 0.651535 0.271480 -0.002481
H12   H     H_    0.748173 0.613876 0.220367 0.083753
H13   H     H_    0.811201 0.578275 0.296060 0.165304
C40   C     C_3   0.920370 0.773831 0.258751 -0.331628
H14   H     H_    0.975002 0.808724 0.307489 0.207599
H15   H     H_    0.977975 0.753663 0.221250 0.120138
H16   H     H_    0.902919 0.849933 0.237059 0.136205
O32   O     O_3   0.309140 0.020752 0.320418 -0.544433
C41   C     C_3   0.331833 0.124280 0.276292 -0.009446
H17   H     H_    0.340520 0.104414 0.221332 0.115097
H18   H     H_    0.421496 0.212928 0.292071 0.136974
C42   C     C_3   0.218772 0.148519 0.281443 -0.333669
H19   H     H_    0.207309 0.172441 0.335056 0.192000
H20   H     H_    0.235554 0.229498 0.247030 0.119135
H21   H     H_    0.128950 0.061103 0.265132 0.133391
O33   O     O_3   0.074174 0.636235 0.338385 -0.743056
H22   H     H_    0.164285 0.667352 0.323420 0.342433
O34   O     O_3   0.371080 0.453422 0.334277 -0.771152
H23   H     H_    0.324072 0.402004 0.375215 0.342409
O35   O     O_3   0.552088 0.919412 0.338954 -0.753267
H24   H     H_    0.490802 0.833826 0.319666 0.344367

loop_
_geom_bond_atom_site_label_1
_geom_bond_atom_site_label_2
_ccdc_geom_bond_type
C39   H12   S    
C35   O28   S    
Cr4   O15   S    
C33   H3    S    
C41   H17   S    
Cr5   O16   S    
C40   H14   S    
C41   C42   S    
Cr5   O22   S    
C10   O22   A    
C2    O1    A    
C17   C23   T    
Cr4   O18   S    
C31   H1    S    
C18   C24   T    
C13   C29   S    
O35   H24   S    
Cr4   O4    S    
C33   C36   D    
C7    O16   A    
C36   O29   S    
Cr1   O11   S    
Cr3   O10   S    
C6    O32   S    
Cr6   O20   S    
C2    C27   S    
C1    O5    A    
Cr6   O17   S    
C13   O11   A    
Cr1   O8    S    
Cr3   O7    S    
C21   C27   T    
C11   C31   S    
C8    C16   S    
Cr4   O21   S    
C30   O35   S    
Cr6   O23   S    
O32   C41   S    
C14   C30   S    
Cr5   O4    S    
O34   H23   S    
C4    C28   D    
C5    C29   D    
C4    C34   S    
C11   O25   A    
O28   H5    S    
C32   C35   D    
C3    C25   S    
C19   C22   S    
O29   H6    S    
Cr4   O24   S    
C37   H8    S    
O30   C37   S    
Cr2   O6    S    
Cr3   O13   S    
C12   O21   A    
Cr2   O14   S    
C29   O34   S    
C15   O9    A    
C4    O30   S    
Cr2   O12   S    
C40   H15   S    
Cr2   O9    S    
C20   C23   S    
C7    C18   S    
Cr3   O14   S    
C32   H2    S    
C31   C34   D    
C7    O18   A    
Cr2   O2    S    
Cr1   O14   S    
C8    O19   A    
C5    O31   S    
C9    C17   S    
C6    C30   D    
C12   O26   A    
C38   H9    S    
C38   H10   S    
C39   H13   S    
C1    C26   S    
C15   O13   A    
C39   C40   S    
C42   H21   S    
C34   O27   S    
C11   O23   A    
C40   H16   S    
C14   O12   A    
C16   C22   T    
O31   C39   S    
O27   H4    S    
C37   C38   S    
C3    O7    A    
C41   H18   S    
C1    O3    A    
C38   H11   S    
C42   H20   S    
C9    O15   A    
Cr1   O5    S    
C15   C28   S    
C20   C26   T    
C5    C35   S    
C3    O2    A    
Cr6   O26   S    
C6    C36   S    
C10   C33   S    
O33   H22   S    
C19   C25   T    
C9    O20   A    
C2    O6    A    
Cr6   O4    S    
C37   H7    S    
C10   O24   A    
C28   O33   S    
C14   O8    A    
C42   H19   S    
C21   C24   S    
Cr3   O3    S    
Cr5   O19   S    
Cr1   O1    S    
C12   C32   S    
C8    O17   A    
Cr5   O25   S    
C13   O10   A    
