data_mof_unit_67842.cif
_audit_creation_date              2013-03-05T15:41:50-0500
_audit_creation_method            fapswitch 2.2
_symmetry_space_group_name_H-M    P1
_symmetry_Int_Tables_number       1
_space_group_crystal_system       triclinic
_cell_length_a                    7.864916
_cell_length_b                    8.54129
_cell_length_c                    10.524965
_cell_angle_alpha                 91.488495
_cell_angle_beta                  84.727678
_cell_angle_gamma                 94.00066
_cell_volume                      702.187491683

loop_
_atom_site_label
_atom_site_type_symbol
_atom_site_description
_atom_site_fract_x
_atom_site_fract_y
_atom_site_fract_z
_atom_type_partial_charge
O1    O     O_R   0.389250 0.738570 0.508410 -0.603479
O2    O     O_R   0.610750 0.261430 0.491590 -0.603461
O3    O     O_R   0.678390 0.711620 0.486450 -0.562843
O4    O     O_R   0.321610 0.288380 0.513550 -0.562814
C1    C     C_R   0.544631 0.794223 0.501796 0.902569
C2    C     C_R   0.455367 0.205778 0.498192 0.902545
O5    O     O_R   0.355460 0.513510 0.697030 -0.578709
O6    O     O_R   0.644540 0.486490 0.302970 -0.578713
O7    O     O_R   0.644600 0.486560 0.675070 -0.600670
O8    O     O_R   0.355400 0.513440 0.324930 -0.600658
C3    C     C_R   0.499912 0.496419 0.741669 0.978275
C4    C     C_R   0.500086 0.503574 0.258331 0.978291
Zn1   Zn    Zn3+2 0.306940 0.517990 0.514670 1.190665
Zn2   Zn    Zn3+2 0.693060 0.482010 0.485330 1.190663
N1    N     N_2   0.950320 0.457950 0.465730 0.035634
N2    N     N_2   0.049680 0.542050 0.534270 0.035649
C5    C     C_3   0.447156 0.637793 0.959937 -0.302656
C6    C     C_3   0.552836 0.362191 0.040064 -0.302662
C7    C     C_3   0.605667 0.619108 0.033166 0.237854
C8    C     C_3   0.394327 0.380876 0.966834 0.237857
H1    H     H_    0.403962 0.748850 0.925322 0.249761
H2    H     H_    0.596029 0.251133 0.074681 0.249754
C9    C     C_3   0.499977 0.505239 0.124128 -0.282714
C10   C     C_3   0.500018 0.494745 0.875873 -0.282719
C11   C     C_3   0.342758 0.520775 0.051136 0.266743
C12   C     C_3   0.657235 0.479208 0.948866 0.266714
C13   C     C_2   0.557031 0.957534 0.526550 0.047704
C14   C     C_2   0.442962 0.042470 0.473419 0.047690
N3    N     N_R   0.722396 0.750560 0.067403 0.277294
O9    O     O_R   0.787277 0.848261 0.980320 -0.221240
O10   O     O_R   0.759510 0.773491 0.184553 -0.264323
N4    N     N_R   0.277595 0.249426 0.932595 0.277299
O11   O     O_R   0.212735 0.151707 0.019670 -0.221234
O12   O     O_R   0.240452 0.226521 0.815449 -0.264269
N5    N     N_R   0.171819 0.546661 0.110527 0.261153
O13   O     O_R   0.052362 0.433305 0.116297 -0.281873
O14   O     O_R   0.140575 0.682032 0.163635 -0.226802
N6    N     N_R   0.828172 0.453309 0.889480 0.261146
O15   O     O_R   0.947675 0.566627 0.883791 -0.281831
O16   O     O_R   0.859396 0.317948 0.836346 -0.226809
N7    N     N_R   0.988367 0.302527 0.451527 0.309116
O17   O     O_R   0.992281 0.220030 0.553310 -0.240057
O18   O     O_R   0.952753 0.229143 0.346531 -0.249267
N8    N     N_R   0.011572 0.697446 0.548539 0.309057
O19   O     O_R   0.007819 0.780067 0.446798 -0.240077
O20   O     O_R   0.046918 0.770716 0.653649 -0.249239
N9    N     N_R   0.643678 0.013246 0.636249 0.219553
O21   O     O_R   0.782703 0.951609 0.661467 -0.215614
O22   O     O_R   0.566993 0.100266 0.724018 -0.346066
N10   N     N_R   0.356290 0.986771 0.363724 0.219632
O23   O     O_R   0.217394 0.048579 0.338424 -0.215792
O24   O     O_R   0.432883 0.899609 0.276011 -0.346027

loop_
_geom_bond_atom_site_label_1
_geom_bond_atom_site_label_2
_geom_bond_distance
_ccdc_geom_bond_type
C7    C9    1.530606 S    
O7    Zn2   1.998241 S    
N3    O9    1.300454 A    
N7    O18   1.299596 A    
N7    O17   1.301288 A    
N2    N8    1.382371 S    
N10   O24   1.301559 A    
N9    O21   1.297722 A    
C6    C12   1.544328 S    
O6    C4    1.287469 A    
C5    C11   1.544331 S    
N4    O11   1.300452 A    
N10   O23   1.297762 A    
N3    O10   1.299801 A    
C6    H2    1.110674 S    
N6    O16   1.300203 A    
O7    C3    1.287277 A    
C4    C9    1.413005 S    
O2    C2    1.276437 A    
O3    Zn2   1.972243 S    
O8    C4    1.287272 A    
C11   N5    1.458402 S    
O1    C1    1.276427 A    
O4    C2    1.302677 A    
N5    O14   1.300204 A    
C10   C12   1.529557 S    
O5    C3    1.287468 A    
C6    C8    1.544163 S    
C9    C11   1.529556 S    
N6    O15   1.299805 A    
O2    Zn2   1.949728 S    
C2    C14   1.410654 S    
C5    C10   1.547782 S    
O1    Zn1   1.949728 S    
C8    C11   1.525116 S    
C6    C9    1.547777 S    
C7    N3    1.459197 S    
C8    C10   1.530611 S    
C3    C10   1.413013 S    
O5    Zn1   1.992834 S    
N8    O19   1.301344 A    
N1    N7    1.382418 S    
N9    O22   1.301550 A    
C8    N4    1.459198 S    
Zn1   N2    2.039057 S    
C13   N9    1.447307 S    
C13   C14   1.359397 D    
C7    C12   1.525115 S    
Zn2   N1    2.039057 S    
C12   N6    1.458393 S    
O6    Zn2   1.992832 S    
N5    O13   1.299793 A    
C5    C7    1.544165 S    
C1    C13   1.410641 S    
C14   N10   1.447340 S    
C5    H1    1.110674 S    
N1    N2    1.282735 D    
O4    Zn1   1.972243 S    
N8    O20   1.299639 A    
O3    C1    1.302688 A    
O8    Zn1   1.998241 S    
N4    O12   1.299800 A    
