data_mof_unit_15616.cif
_audit_creation_date              2012-10-26T20:31:47-0400
_audit_creation_method            fapswitch 2.2
_symmetry_space_group_name_H-M    P1
_symmetry_Int_Tables_number       1
_space_group_crystal_system       triclinic
_cell_length_a                    15.891037
_cell_length_b                    10.793895
_cell_length_c                    9.598504
_cell_angle_alpha                 89.88082
_cell_angle_beta                  89.596077
_cell_angle_gamma                 90.7183
_cell_volume                      1646.22061144

loop_
_atom_site_label
_atom_site_type_symbol
_atom_type_description
_atom_site_fract_x
_atom_site_fract_y
_atom_site_fract_z
_atom_type_partial_charge
C1    C     C_R   0.502668 0.262484 0.500169 0.540256
C2    C     C_R   0.515234 0.129911 0.500749 -0.040522
C3    C     C_R   0.537223 0.067428 0.377697 -0.093760
C4    C     C_R   0.340415 0.498937 0.500397 0.543557
C5    C     C_R   0.543397 0.938275 0.376784 0.208756
C6    C     C_R   0.520968 0.870737 0.499395 -0.002471
C7    C     C_R   0.513847 0.936262 0.624116 -0.013440
C8    C     C_3   0.451997 0.925873 0.741557 -0.259252
C9    C     C_3   0.451713 0.066686 0.744187 -0.256273
C10   C     C_R   0.560536 0.563943 0.072416 0.152150
C11   C     C_R   0.436366 0.446662 0.076503 0.063897
C12   C     C_3   0.948575 0.375217 0.576777 -0.304988
C13   C     C_R   0.436480 0.444050 0.928952 0.337781
C14   C     C_R   0.560577 0.563949 0.925443 0.128814
C15   C     C_3   0.653737 0.545121 0.919012 0.128102
C16   C     C_R   0.505684 0.737496 0.499570 0.531669
C17   C     C_3   0.653613 0.545931 0.077505 0.133378
C18   C     C_R   0.659522 0.499876 0.499574 0.544901
C19   C     C_3   0.046550 0.375343 0.582169 -0.084795
C20   C     C_3   0.051758 0.482908 0.343016 0.116092
C21   C     C_3   0.951205 0.485661 0.336257 0.277408
C22   C     C_1   0.748844 0.497034 0.498648 -0.000462
C23   C     C_3   0.916364 0.489046 0.492368 0.084859
C24   C     C_3   0.082977 0.488682 0.497404 0.037894
C25   C     C_R   0.086729 0.250465 0.546820 0.068179
C26   C     C_R   0.158409 0.213314 0.621129 -0.099781
C27   C     C_R   0.199916 0.104052 0.586649 -0.109265
C28   C     C_R   0.171065 0.030471 0.477326 -0.107839
C29   C     C_R   0.098714 0.063294 0.405683 -0.102402
C30   C     C_R   0.056446 0.171721 0.440524 -0.024128
C31   C     C_R   0.916966 0.379331 0.242420 0.134560
C32   C     C_R   0.944423 0.377548 0.101974 -0.026803
C33   C     C_R   0.917121 0.286014 0.009600 -0.137248
C34   C     C_3   0.950486 0.606381 0.571243 0.107702
C35   C     C_R   0.859439 0.195796 0.053492 -0.093912
C36   C     C_R   0.828740 0.197468 0.189700 -0.104973
C37   C     C_R   0.856298 0.288387 0.283062 -0.141221
C38   C     C_R   0.091381 0.654159 0.695909 0.014797
C39   C     C_R   0.069080 0.605905 0.828026 -0.089294
C40   C     C_R   0.110530 0.646808 0.947791 -0.096783
C41   C     C_R   0.174638 0.735903 0.938122 -0.089896
C42   C     C_R   0.197766 0.784139 0.808372 -0.090150
C43   C     C_R   0.156818 0.743273 0.688318 -0.082387
C44   C     C_3   0.048558 0.612501 0.560685 -0.134163
C45   C     C_1   0.824165 0.493376 0.496691 0.017743
C46   C     C_1   0.175502 0.491625 0.499475 -0.043677
C47   C     C_1   0.250933 0.495123 0.500655 -0.020588
C48   C     C_R   0.512699 0.063383 0.625303 0.019308
Cu1   Cu    Cu3+1 0.500000 0.499980 0.640670 1.002050
Cu2   Cu    Cu3+1 0.500000 0.500020 0.359330 0.992074
H1    H     H_    0.923211 0.286292 0.538978 0.108269
H2    H     H_    0.688375 0.624319 0.869719 0.067689
H3    H     H_    0.687838 0.625901 0.124842 0.082261
H4    H     H_    0.077629 0.566527 0.288323 0.074497
H5    H     H_    0.063676 0.686328 0.482684 0.117818
H6    H     H_    0.929425 0.597669 0.681662 0.117232
H7    H     H_    0.930204 0.783082 0.585311 0.322392
H8    H     H_    0.603357 0.810809 0.278958 0.332718
H9    H     H_    0.183329 0.270304 0.704334 0.125292
H10   H     H_    0.254926 0.076836 0.643865 0.100198
H11   H     H_    0.204971 0.948325 0.447593 0.099060
H12   H     H_    0.062822 0.391609 0.692718 0.106844
H13   H     H_    0.075881 0.005483 0.321663 0.112166
H14   H     H_    0.001987 0.194930 0.380348 0.149544
H15   H     H_    0.393921 0.340035 0.783505 0.361796
H16   H     H_    0.736653 0.428081 0.857134 0.313040
H17   H     H_    0.736768 0.430435 0.138321 0.334292
H18   H     H_    0.142630 0.401585 0.240745 0.328166
H19   H     H_    0.988467 0.447045 0.064232 0.132495
H20   H     H_    0.940961 0.285001 0.903872 0.098000
H21   H     H_    0.838007 0.125169 0.981664 0.127428
H22   H     H_    0.782775 0.128506 0.223074 0.140076
H23   H     H_    0.923482 0.380737 0.685027 0.084694
H24   H     H_    0.827876 0.285028 0.384696 0.098510
H25   H     H_    0.962684 0.665190 0.288289 0.344142
H26   H     H_    0.019606 0.537251 0.840134 0.071978
H27   H     H_    0.092857 0.609586 0.048436 0.103752
H28   H     H_    0.206460 0.767363 0.031152 0.107714
H29   H     H_    0.247585 0.853072 0.800694 0.098664
H30   H     H_    0.177172 0.779755 0.588688 0.086454
H31   H     H_    0.548468 0.118064 0.281616 0.176642
H32   H     H_    0.391012 0.884166 0.708677 0.130603
H33   H     H_    0.480085 0.884330 0.836277 0.160160
H34   H     H_    0.390617 0.107426 0.714923 0.123530
H35   H     H_    0.480526 0.106303 0.839725 0.171596
H36   H     H_    0.386309 0.399753 0.133440 0.140892
N1    N     N_R   0.500530 0.500930 0.147930 -0.240048
N2    N     N_R   0.500530 0.500890 0.852020 -0.213332
O1    O     O_R   0.500000 0.319640 0.618810 -0.507489
O2    O     O_3   0.568354 0.882830 0.254392 -0.700055
O3    O     O_3   0.371545 0.379673 0.867750 -0.722675
O4    O     O_3   0.674327 0.428790 0.864222 -0.622167
O5    O     O_3   0.674472 0.430488 0.133966 -0.620267
O6    O     O_3   0.085273 0.379009 0.274722 -0.731976
O7    O     O_3   0.924353 0.594609 0.267925 -0.705700
O8    O     O_R   0.500010 0.319680 0.381230 -0.496155
O9    O     O_R   0.379430 0.499990 0.618840 -0.483541
O10   O     O_R   0.379440 0.500030 0.381260 -0.518002
O11   O     O_R   0.499990 0.680320 0.618770 -0.512194
O12   O     O_R   0.500000 0.680360 0.381190 -0.491072
O13   O     O_R   0.620560 0.499970 0.618740 -0.461152
O14   O     O_R   0.620570 0.500010 0.381160 -0.458745
O15   O     O_3   0.915111 0.715890 0.519165 -0.701487

loop_
_geom_bond_atom_site_label_1
_geom_bond_atom_site_label_2
_ccdc_geom_bond_type
C37   H24   S    
C29   H13   S    
C34   H6    S    
C23   C45   S    
C30   H14   S    
C8    H33   S    
C41   C42   A    
C35   C36   A    
H25   O7    S    
C7    C8    S    
C21   C31   S    
C12   C23   S    
C26   C27   A    
C8    H32   S    
C28   C29   A    
C4    O10   A    
C27   H10   S    
Cu1   O13   S    
C38   C39   A    
C11   H36   S    
C13   N2    A    
H15   O3    S    
C1    C2    S    
C18   O14   A    
C9    H35   S    
C15   O4    S    
C20   C24   S    
C11   N1    A    
C8    C9    S    
C3    H31   S    
C26   H9    S    
C5    O2    S    
C28   H11   S    
C35   H21   S    
C42   H29   S    
C4    O9    A    
C13   O3    S    
Cu1   N2    S    
H7    O15   S    
C10   N1    A    
Cu2   O10   S    
C34   C44   S    
C20   H4    S    
C10   C14   A    
C39   C40   A    
C16   O12   A    
H16   O4    S    
C21   O7    S    
C2    C48   A    
C25   C26   A    
C39   H26   S    
Cu1   O9    S    
H18   O6    S    
C31   C37   A    
C18   O13   A    
C38   C44   S    
C29   C30   A    
Cu1   O11   S    
C31   C32   A    
C14   C15   S    
C23   C34   S    
C15   H2    S    
H8    O2    S    
C6    C7    A    
Cu2   N1    S    
C33   H20   S    
C40   C41   A    
Cu2   O14   S    
C21   C23   S    
C24   C44   S    
C17   O5    S    
C42   C43   A    
C10   C17   S    
C17   H3    S    
C41   H28   S    
C12   H1    S    
C25   C30   A    
C15   C17   S    
C20   O6    S    
C46   C47   T    
C36   C37   A    
C1    O1    A    
C18   C22   S    
Cu1   O1    S    
C3    C5    A    
C16   O11   A    
C32   H19   S    
Cu2   O12   S    
C34   O15   S    
C24   C46   S    
C7    C48   A    
C2    C3    A    
C43   H30   S    
C14   N2    A    
C38   C43   A    
C32   C33   A    
C11   C13   A    
C44   H5    S    
Cu2   O8    S    
C5    C6    A    
C1    O8    A    
C12   C19   S    
C33   C35   A    
C19   C24   S    
C19   C25   S    
C9    H34   S    
C6    C16   S    
C22   C45   T    
C20   C21   S    
C9    C48   S    
Cu1   Cu2   S    
C27   C28   A    
H17   O5    S    
C40   H27   S    
C19   H12   S    
C12   H23   S    
C36   H22   S    
C4    C47   S    
