data_mof_unit_13959.cif
_audit_creation_date              2013-03-05T15:54:02-0500
_audit_creation_method            fapswitch 2.2
_symmetry_space_group_name_H-M    P1
_symmetry_Int_Tables_number       1
_space_group_crystal_system       triclinic
_cell_length_a                    15.689338
_cell_length_b                    10.637588
_cell_length_c                    10.035763
_cell_angle_alpha                 89.842101
_cell_angle_beta                  89.999031
_cell_angle_gamma                 92.896419
_cell_volume                      1672.78978927

loop_
_atom_site_label
_atom_site_type_symbol
_atom_site_description
_atom_site_fract_x
_atom_site_fract_y
_atom_site_fract_z
_atom_type_partial_charge
O1    O     O_R   0.500000 0.316780 0.614690 -0.632318
O2    O     O_R   0.499990 0.316750 0.385360 -0.584080
C1    C     C_R   0.515413 0.264575 0.500509 0.966321
O3    O     O_R   0.377150 0.500020 0.614720 -0.597027
O4    O     O_R   0.377140 0.499990 0.385380 -0.599542
C2    C     C_R   0.338777 0.501008 0.500080 0.925119
Zn1   Zn    Zn3+2 0.500010 0.500020 0.653130 0.972587
Zn2   Zn    Zn3+2 0.499990 0.499980 0.346870 1.013361
O5    O     O_R   0.500010 0.683250 0.614640 -0.635675
O6    O     O_R   0.500000 0.683220 0.385310 -0.631103
O7    O     O_R   0.622860 0.500010 0.614620 -0.630107
O8    O     O_R   0.622850 0.499980 0.385280 -0.590970
C3    C     C_R   0.499139 0.741793 0.500869 0.876833
C4    C     C_R   0.661321 0.500385 0.499942 0.885237
C5    C     C_3   0.047489 0.417997 0.620544 -0.433304
C6    C     C_3   0.047526 0.438633 0.370270 -0.365454
C7    C     C_3   0.949353 0.441734 0.368093 -0.344238
H1    H     H_    0.069165 0.320217 0.613315 0.212678
H2    H     H_    0.074599 0.491517 0.282838 0.197395
H3    H     H_    0.066565 0.339575 0.361485 0.201183
H4    H     H_    0.920357 0.346073 0.349178 0.234333
H5    H     H_    0.929731 0.501692 0.283443 0.177885
C8    C     C_1   0.750248 0.498682 0.499966 -0.091630
C9    C     C_3   0.082794 0.497373 0.501352 0.251291
C10   C     C_3   0.948721 0.419437 0.622896 0.185944
C11   C     C_3   0.917214 0.496136 0.501102 0.191723
C12   C     C_3   0.954961 0.633091 0.513505 -0.457181
C13   C     C_3   0.053338 0.633670 0.513704 -0.382947
C14   C     C_1   0.825641 0.497216 0.500274 -0.048129
C15   C     C_1   0.174326 0.498935 0.500736 -0.059777
C16   C     C_1   0.249786 0.500355 0.500282 -0.104880
H6    H     H_    0.078359 0.677297 0.607507 0.191181
H7    H     H_    0.078929 0.692166 0.429180 0.195466
H8    H     H_    0.932512 0.676770 0.607036 0.190589
H9    H     H_    0.073593 0.457575 0.715629 0.179695
H10   H     H_    0.930257 0.469626 0.715153 0.106663
H11   H     H_    0.933175 0.691491 0.429018 0.208200
C17   C     C_R   0.587449 0.127217 0.735058 -0.141251
H12   H     H_    0.621360 0.218336 0.728748 0.180379
C18   C     C_R   0.588934 0.060864 0.854015 -0.113491
H13   H     H_    0.625251 0.100830 0.936246 0.230453
C19   C     C_R   0.539161 0.948651 0.867131 0.010400
C20   C     C_R   0.498726 0.895407 0.755193 -0.239377
H14   H     H_    0.456263 0.813678 0.770380 0.206060
C21   C     C_R   0.515824 0.946838 0.627512 0.104749
C22   C     C_R   0.547343 0.072029 0.622927 0.074474
C23   C     C_R   0.542674 0.136358 0.502874 -0.228279
C24   C     C_R   0.550536 0.070857 0.384795 0.333550
H15   H     H_    0.536470 0.890582 0.293770 0.223182
C25   C     C_R   0.530524 0.942130 0.385034 -0.263749
C26   C     C_R   0.508121 0.879387 0.504704 -0.166575
H16   H     H_    0.588873 0.651779 0.124126 0.182025
C27   C     C_R   0.412029 0.299782 0.136040 0.029480
C28   C     C_R   0.405846 0.184640 0.069295 -0.151614
H17   H     H_    0.380296 0.100434 0.119359 0.200704
C29   C     C_R   0.409762 0.183345 0.931670 -0.261548
H18   H     H_    0.386390 0.098336 0.881391 0.201657
C30   C     C_R   0.415224 0.297949 0.863723 -0.000361
C31   C     C_R   0.455526 0.404025 0.928197 0.094492
C32   C     C_R   0.454712 0.404672 0.071870 0.121472
N1    N     N_R   0.499210 0.498800 0.142780 -0.125329
C33   C     C_R   0.548075 0.584472 0.070937 -0.067350
H19   H     H_    0.586075 0.656347 0.875852 0.143788
C34   C     C_R   0.547034 0.585904 0.928691 -0.057994
N2    N     N_R   0.499180 0.498720 0.857170 -0.128245
N3    N     N_R   0.909301 0.291235 0.628664 0.220414
O9    O     O_R   0.856277 0.260379 0.724368 -0.379494
O10   O     O_R   0.929459 0.205742 0.543333 -0.391317
N4    N     N_R   0.588555 0.132780 0.271128 0.232174
O11   O     O_R   0.561946 0.104974 0.152591 -0.423433
O12   O     O_R   0.650611 0.217545 0.285831 -0.377777
C35   C     C_2   0.530668 0.884585 0.995918 0.910937
O13   O     O_2   0.593482 0.876184 0.066720 -0.632288
O14   O     O_R   0.451067 0.832306 0.035691 -0.814227
H20   H     H_    0.452181 0.792046 0.127164 0.344475
C36   C     C_2   0.338146 0.314770 0.223132 0.943500
O15   O     O_2   0.286566 0.393358 0.195377 -0.617774
O16   O     O_R   0.322139 0.230657 0.328590 -0.802320
H21   H     H_    0.266520 0.245719 0.375893 0.328074
C37   C     C_2   0.341071 0.311003 0.776380 0.982210
O17   O     O_2   0.288350 0.387881 0.803844 -0.619110
O18   O     O_R   0.326159 0.226711 0.671255 -0.798992
H22   H     H_    0.270427 0.240513 0.623649 0.327923

loop_
_geom_bond_atom_site_label_1
_geom_bond_atom_site_label_2
_geom_bond_distance
_ccdc_geom_bond_type
C5    H1    1.113097 S    
N3    O10   1.301470 A    
C35   O14   1.398888 S    
C24   N4    1.430768 S    
C27   C28   1.396724 A    
Zn1   O7    1.965799 S    
C11   C12   1.549998 S    
C7    C11   1.550707 S    
C8    C14   1.183761 T    
C6    H3    1.113404 S    
C36   O16   1.398511 S    
O4    C2    1.299275 A    
O7    C4    1.299375 A    
C5    C10   1.550639 S    
C21   C26   1.429869 A    
C29   H18   1.084349 S    
C1    C23   1.450014 S    
N4    O12   1.301841 A    
O5    C3    1.299462 A    
C33   C34   1.427688 A    
C22   C23   1.387721 A    
C6    C7    1.542450 S    
C30   C37   1.468613 S    
Zn2   N1    2.048305 S    
C18   C19   1.398907 A    
C2    C16   1.395871 S    
C31   C32   1.441966 A    
C6    C9    1.548159 S    
C3    C26   1.463938 S    
N4    O11   1.290901 A    
O3    Zn1   1.965765 S    
C5    H9    1.113729 S    
C27   C32   1.424308 A    
C12   H8    1.113530 S    
C17   H12   1.083582 S    
C28   C29   1.382672 A    
O14   H20   1.012449 S    
C13   H6    1.113416 S    
C36   O15   1.224120 D    
C37   O18   1.398505 S    
O16   H21   1.013432 S    
C37   O17   1.224146 D    
C10   C11   1.561834 S    
C21   C22   1.397604 A    
C7    H4    1.110303 S    
C32   N1    1.389138 A    
O1    C1    1.302699 A    
C4    C8    1.396240 S    
C20   H14   1.078727 S    
Zn1   N2    2.047743 S    
C23   C24   1.384986 A    
Zn2   O8    1.965763 S    
C19   C35   1.462418 S    
C25   C26   1.408275 A    
C20   C21   1.412271 A    
O3    C2    1.298777 A    
C5    C9    1.548474 S    
O8    C4    1.299334 A    
C13   H7    1.113458 S    
H15   C25   1.075268 S    
C27   C36   1.467131 S    
C19   C20   1.397308 A    
Zn1   O5    1.985987 S    
C28   H17   1.084760 S    
C18   H13   1.078848 S    
O1    Zn1   1.988074 S    
O2    Zn2   1.985988 S    
C10   N3    1.469702 S    
C9    C13   1.549122 S    
C35   O13   1.221748 D    
O6    C3    1.318412 A    
O4    Zn2   1.965799 S    
C7    H5    1.113617 S    
C34   N2    1.368333 A    
O2    C1    1.308464 A    
C30   C31   1.422564 A    
H16   C33   1.078467 S    
C31   N2    1.384986 A    
C17   C18   1.385992 A    
C15   C16   1.183265 T    
C12   H11   1.113665 S    
C6    H2    1.113514 S    
C24   C25   1.389326 A    
C29   C30   1.394069 A    
N3    O9    1.301119 A    
N1    C33   1.365249 A    
C9    C15   1.435354 S    
C17   C22   1.404726 A    
C10   H10   1.115587 S    
H19   C34   1.081348 S    
C11   C14   1.437373 S    
Zn2   O6    1.988075 S    
O18   H22   1.013405 S    
C12   C13   1.543171 S    
