data_mof_unit_60203.cif
_audit_creation_date              2012-12-10T17:54:05-0500
_audit_creation_method            fapswitch 2.2
_symmetry_space_group_name_H-M    P1
_symmetry_Int_Tables_number       1
_space_group_crystal_system       triclinic
_cell_length_a                    18.69765
_cell_length_b                    18.845288
_cell_length_c                    18.963805
_cell_angle_alpha                 109.92406
_cell_angle_beta                  109.131597
_cell_angle_gamma                 109.323592
_cell_volume                      5145.89260521

loop_
_atom_site_label
_atom_site_type_symbol
_atom_type_description
_atom_site_fract_x
_atom_site_fract_y
_atom_site_fract_z
_atom_type_partial_charge
C1    C     C_R   0.881275 0.380908 0.000284 0.809042
C2    C     C_R   0.817734 0.313148 0.002957 -0.092782
C3    C     C_R   0.775163 0.225205 0.938136 -0.207436
C4    C     C_R   0.709644 0.161161 0.937362 -0.206840
C5    C     C_R   0.686964 0.184483 0.001732 -0.077106
C6    C     C_R   0.736633 0.269436 0.071341 0.046005
C7    C     C_3   0.706399 0.329757 0.108398 -0.236052
C8    C     C_3   0.778131 0.400230 0.110048 -0.470585
C9    C     C_R   0.197062 0.527535 0.264914 0.047308
C10   C     C_R   0.188769 0.503102 0.183315 -0.159426
C11   C     C_R   0.247876 0.476713 0.167042 -0.016214
C12   C     C_R   0.884838 0.503085 0.881781 0.871305
C13   C     C_R   0.309824 0.474843 0.232301 -0.250224
C14   C     C_R   0.313673 0.498424 0.312524 -0.065109
C15   C     C_R   0.256347 0.524448 0.326006 -0.055464
C16   C     C_3   0.233755 0.560378 0.393231 -0.314666
C17   C     C_3   0.165031 0.565443 0.323049 0.445679
C18   C     C_R   0.204784 0.772313 0.038927 -0.000396
C19   C     C_R   0.182148 0.685034 0.995544 -0.098942
C20   C     C_R   0.219506 0.662212 0.943926 -0.210186
C21   C     C_R   0.285579 0.727134 0.945814 -0.225922
C22   C     C_R   0.313132 0.815017 0.997578 -0.029208
C23   C     C_R   0.118645 0.618876 0.999574 0.767410
C24   C     C_R   0.266782 0.835670 0.037652 0.009473
C25   C     C_3   0.295402 0.905502 0.125218 -0.559440
C26   C     C_3   0.226557 0.835527 0.127442 0.392280
C27   C     C_R   0.497498 0.381235 0.378892 0.788342
C28   C     C_R   0.615145 0.502456 0.617386 0.870134
C29   C     C_R   0.496207 0.618439 0.614969 0.800472
C30   C     C_R   0.378934 0.500338 0.379781 0.816650
C31   C     C_R   0.500962 0.881425 0.882061 0.800423
C32   C     C_R   0.618975 0.119157 0.000900 0.794960
C33   C     C_R   0.498800 0.118597 0.118134 0.796859
C34   C     C_R   0.120057 0.501773 0.117872 0.821364
C35   C     C_R   0.381050 0.882019 0.000218 0.803339
C36   C     C_R   0.453905 0.292052 0.227156 0.095712
C37   C     C_R   0.496878 0.313751 0.313081 -0.055346
C38   C     C_R   0.528124 0.260948 0.332883 -0.218404
C39   C     C_R   0.527658 0.195624 0.268756 -0.198295
C40   C     C_R   0.494030 0.181671 0.184095 -0.082719
C41   C     C_R   0.452238 0.226857 0.163625 0.139319
C42   C     C_3   0.461939 0.275495 0.116438 -0.449655
C43   C     C_3   0.464171 0.347487 0.186707 -0.490974
C44   C     C_R   0.499478 0.757385 0.681626 0.117326
C45   C     C_2   0.754056 0.581957 0.756281 -0.074845
C46   C     C_R   0.498026 0.684144 0.683436 -0.088879
C47   C     C_R   0.498752 0.676365 0.755090 -0.232477
C48   C     C_R   0.501773 0.742236 0.822074 -0.228294
C49   C     C_R   0.501063 0.814691 0.816237 -0.091973
C50   C     C_R   0.499149 0.818751 0.744071 0.121092
C51   C     C_3   0.497572 0.871583 0.700994 -0.474558
C52   C     C_3   0.497309 0.801009 0.629283 -0.483786
C53   C     C_2   0.681386 0.506851 0.689265 -0.437005
C54   C     C_2   0.818195 0.581690 0.828071 0.484830
C55   C     C_2   0.826964 0.510340 0.813895 -0.445047
C56   C     C_R   0.800675 0.333097 0.071662 0.144105
Cu1   Cu    Cu3+1 0.999590 0.561790 0.061400 0.977499
Cu2   Cu    Cu3+1 0.000410 0.438210 0.938600 0.945561
Cu3   Cu    Cu3+1 0.558560 0.561730 0.496790 0.935012
Cu4   Cu    Cu3+1 0.434970 0.438120 0.496790 0.953450
Cu5   Cu    Cu3+1 0.438600 0.999980 0.938570 0.935795
Cu6   Cu    Cu3+1 0.561400 0.999920 0.061330 0.927909
H1    H     H_    0.832398 0.453515 0.175898 0.198297
H2    H     H_    0.355891 0.456477 0.221025 0.137604
H3    H     H_    0.289007 0.624934 0.448327 0.103859
H4    H     H_    0.200390 0.594914 0.904887 0.162372
H5    H     H_    0.316402 0.709021 0.908776 0.131098
H6    H     H_    0.364239 0.931625 0.173223 0.206741
H7    H     H_    0.665873 0.446303 0.689814 0.147144
H8    H     H_    0.279004 0.956205 0.121702 0.169165
H9    H     H_    0.171586 0.847460 0.124751 0.083641
H10   H     H_    0.556292 0.272803 0.398367 0.135018
H11   H     H_    0.555985 0.158296 0.286033 0.157560
H12   H     H_    0.524434 0.294723 0.115577 0.195490
H13   H     H_    0.402721 0.242271 0.052351 0.194999
H14   H     H_    0.528199 0.408837 0.227171 0.209138
H15   H     H_    0.406308 0.355569 0.162696 0.188160
H16   H     H_    0.498338 0.620582 0.759857 0.154398
H17   H     H_    0.502830 0.735730 0.876943 0.154533
H18   H     H_    0.435852 0.873831 0.679496 0.207298
H19   H     H_    0.558593 0.935628 0.738679 0.186143
H20   H     H_    0.435292 0.762366 0.566619 0.184958
H21   H     H_    0.558017 0.824357 0.625331 0.205460
H22   H     H_    0.795036 0.456767 0.748423 0.118973
H23   H     H_    0.789449 0.206351 0.885972 0.163590
H24   H     H_    0.675142 0.094244 0.885504 0.130273
H25   H     H_    0.639552 0.310651 0.061440 0.149604
H26   H     H_    0.752334 0.422569 0.065394 0.187017
O1    O     O_R   0.909480 0.462010 0.051860 -0.585357
O2    O     O_R   0.445180 0.357580 0.407200 -0.583785
O3    O     O_R   0.638540 0.552110 0.586390 -0.573100
O4    O     O_R   0.534170 0.447730 0.586390 -0.589987
O5    O     O_R   0.548350 0.642270 0.586380 -0.580324
O6    O     O_R   0.443970 0.537890 0.586380 -0.586330
O7    O     O_R   0.459360 0.552110 0.407190 -0.594005
O8    O     O_R   0.354990 0.447740 0.407190 -0.576040
O9    O     O_R   0.448700 0.909820 0.858480 -0.585903
O10   O     O_R   0.552410 0.909770 0.962140 -0.586757
O11   O     O_R   0.538310 0.090150 0.948110 -0.586396
O12   O     O_R   0.910180 0.357650 0.948150 -0.594261
O13   O     O_R   0.642020 0.090090 0.051780 -0.591351
O14   O     O_R   0.447590 0.090130 0.037760 -0.587969
O15   O     O_R   0.551300 0.090080 0.141420 -0.594594
O16   O     O_R   0.357980 0.909810 0.948120 -0.582545
O17   O     O_R   0.461690 0.909750 0.051790 -0.593208
O18   O     O_R   0.910060 0.552180 0.962250 -0.536646
O19   O     O_R   0.910760 0.447820 0.858550 -0.599718
O20   O     O_R   0.089820 0.642350 0.051850 -0.571955
O21   O     O_R   0.090520 0.537990 0.948140 -0.593419
O22   O     O_R   0.089240 0.552180 0.141450 -0.569099
O23   O     O_R   0.089940 0.447820 0.037750 -0.578019
O24   O     O_R   0.549550 0.461960 0.407200 -0.597502
C57   C     C_R   0.765744 0.666931 0.765457 0.196921
C58   C     C_R   0.721286 0.703378 0.798112 -0.112302
C59   C     C_R   0.730089 0.782234 0.804340 -0.133725
C60   C     C_R   0.782990 0.824853 0.777785 -0.106933
C61   C     C_R   0.827389 0.788814 0.745201 -0.146921
C62   C     C_R   0.818797 0.709977 0.738913 -0.145686
H27   H     H_    0.679555 0.670455 0.818157 0.122004
H28   H     H_    0.695632 0.810127 0.829394 0.143531
H29   H     H_    0.789500 0.885735 0.782373 0.120936
H30   H     H_    0.868237 0.821833 0.724558 0.123037
H31   H     H_    0.852915 0.682211 0.713015 0.113989
C63   C     C_R   0.251276 0.455816 0.086015 0.149425
C64   C     C_R   0.237478 0.373306 0.034463 -0.149616
C65   C     C_R   0.244279 0.354621 0.959761 -0.144739
C66   C     C_R   0.265893 0.418401 0.936660 -0.121182
C67   C     C_R   0.280786 0.500968 0.988257 -0.129932
C68   C     C_R   0.273327 0.519703 0.062610 -0.103848
H32   H     H_    0.221510 0.323633 0.052177 0.123060
H33   H     H_    0.233338 0.290878 0.920086 0.125441
H34   H     H_    0.271703 0.404044 0.879125 0.120326
H35   H     H_    0.299024 0.550688 0.971096 0.120336
H36   H     H_    0.285946 0.584129 0.102548 0.087056
C69   C     C_R   0.200998 0.496717 0.422334 0.198401
C70   C     C_R   0.143721 0.406783 0.363623 -0.058244
C71   C     C_R   0.116720 0.350068 0.393311 -0.179929
C72   C     C_R   0.146832 0.382081 0.481554 -0.125926
C73   C     C_R   0.204056 0.470907 0.540335 -0.122238
C74   C     C_R   0.231097 0.527965 0.511010 -0.162913
H37   H     H_    0.119859 0.380550 0.295003 0.152274
H38   H     H_    0.072546 0.281188 0.347855 0.132544
H39   H     H_    0.125963 0.338018 0.504408 0.123927
H40   H     H_    0.227645 0.495601 0.608741 0.128561
H41   H     H_    0.275821 0.596575 0.557663 0.122500
O25   O     O_3   0.075978 0.506051 0.290119 -0.580666
C75   C     C_3   0.049186 0.527671 0.352531 -0.328730
H42   H     H_    0.989793 0.532268 0.324637 0.167097
H43   H     H_    0.099171 0.589895 0.414362 0.146096
H44   H     H_    0.030643 0.474354 0.367176 0.196168
C76   C     C_R   0.184882 0.657064 0.338229 0.069747
C77   C     C_R   0.271482 0.723638 0.375229 -0.231281
C78   C     C_R   0.289229 0.806011 0.386476 -0.094528
C79   C     C_R   0.221149 0.823178 0.359666 -0.040417
C80   C     C_R   0.135067 0.757772 0.320933 -0.163876
C81   C     C_R   0.116856 0.675332 0.309815 -0.070242
H45   H     H_    0.325747 0.711972 0.394160 0.123992
H46   H     H_    0.355918 0.856337 0.415130 0.123922
H47   H     H_    0.235025 0.886833 0.367831 0.127145
H48   H     H_    0.082153 0.770667 0.298645 0.116147
H49   H     H_    0.049190 0.625615 0.276760 0.150252
O26   O     O_3   0.260514 0.821438 0.197546 -0.554498
C82   C     C_3   0.314487 0.784019 0.194043 -0.241562
H50   H     H_    0.354445 0.804198 0.164970 0.152512
H51   H     H_    0.274239 0.712168 0.159123 0.154238
H52   H     H_    0.360544 0.804663 0.260981 0.164071
O27   O     O_3   0.864883 0.654049 0.910430 -0.551950
C83   C     C_3   0.948713 0.707063 0.926263 -0.267127
H53   H     H_    0.944980 0.737770 0.885592 0.147577
H54   H     H_    0.984097 0.670689 0.916177 0.137440
H55   H     H_    0.988114 0.760171 0.994757 0.178060
C84   C     C_R   0.717898 0.349676 0.197172 0.147919
C85   C     C_R   0.736904 0.300850 0.235015 -0.122191
C86   C     C_R   0.743308 0.319540 0.315525 -0.145483
C87   C     C_R   0.730502 0.386555 0.358900 -0.090614
C88   C     C_R   0.711239 0.435064 0.321863 -0.131286
C89   C     C_R   0.704991 0.416810 0.241496 -0.179424
H56   H     H_    0.746395 0.248090 0.202685 0.143688
H57   H     H_    0.757614 0.281579 0.344045 0.125988
H58   H     H_    0.734898 0.400494 0.420936 0.121850
H59   H     H_    0.700619 0.486522 0.355201 0.135182
H60   H     H_    0.689141 0.454462 0.213221 0.129981

loop_
_geom_bond_atom_site_label_1
_geom_bond_atom_site_label_2
_ccdc_geom_bond_type
C84   C89   A    
C12   O18   A    
C71   H38   S    
C40   C41   A    
C65   C66   A    
C26   H9    S    
C3    H23   S    
Cu2   O21   S    
C41   C42   S    
C54   C55   D    
C82   H50   S    
C18   C26   S    
C54   O27   S    
C53   H7    S    
C67   C68   A    
C8    C56   S    
C58   C59   A    
C69   C70   A    
Cu6   O17   S    
Cu5   O11   S    
C85   C86   A    
C22   C35   S    
C42   H13   S    
C70   H37   S    
Cu1   O1    S    
C18   C24   A    
C65   H33   S    
C48   H17   S    
C21   C22   A    
C36   C37   A    
C75   H43   S    
C31   C49   S    
C18   C19   A    
C72   H39   S    
C5    C6    A    
C86   C87   A    
C4    H24   S    
C44   C50   A    
C15   C16   S    
C60   C61   A    
C27   O2    A    
Cu2   O19   S    
C31   O10   A    
C11   C63   S    
C78   H46   S    
C66   H34   S    
C30   O8    A    
Cu6   O10   S    
C69   C74   A    
C64   H32   S    
C83   H55   S    
C7    H25   S    
C75   H42   S    
C81   H49   S    
C16   C17   S    
C76   C77   A    
C28   O3    A    
C9    C10   A    
C51   H19   S    
C58   H27   S    
C5    C32   S    
C57   C62   A    
C44   C52   S    
C83   H54   S    
Cu1   O18   S    
C45   C53   D    
Cu3   Cu4   S    
C13   C14   A    
C21   H5    S    
C34   O23   A    
C36   C41   A    
C17   C76   S    
C25   H6    S    
Cu3   O7    S    
C14   C30   S    
C82   H52   S    
C1    O12   A    
C44   C46   A    
C50   C51   S    
Cu4   O4    S    
C88   H59   S    
C23   O21   A    
C73   C74   A    
C38   H10   S    
C42   H12   S    
C33   C40   S    
C60   H29   S    
O25   C75   S    
C51   C52   S    
C7    C8    S    
C75   H44   S    
Cu2   O12   S    
C24   C25   S    
C10   C34   S    
C35   O16   A    
C72   C73   A    
O27   C83   S    
C70   C71   A    
C25   C26   S    
C26   O26   S    
C3    C4    A    
C33   O14   A    
C8    H26   S    
C52   H21   S    
C19   C23   S    
C61   H30   S    
C37   C38   A    
C35   O17   A    
C73   H40   S    
C47   C48   A    
C14   C15   A    
C28   C53   S    
Cu5   O16   S    
Cu3   O24   S    
C28   O4    A    
Cu3   O3    S    
C76   C81   A    
C20   C21   A    
C52   H20   S    
C79   C80   A    
C6    C7    S    
Cu4   O8    S    
C9    C17   S    
C88   C89   A    
C45   C54   S    
C49   C50   A    
C64   C65   A    
C34   O22   A    
C22   C24   A    
C43   H15   S    
C42   C43   S    
C66   C67   A    
C51   H18   S    
C39   C40   A    
C84   C85   A    
C57   C58   A    
C20   H4    S    
C43   H14   S    
C46   C47   A    
C83   H53   S    
C1    O1    A    
C82   H51   S    
C80   H48   S    
C33   O15   A    
Cu5   O9    S    
C6    C56   A    
C4    C5    A    
C74   H41   S    
C27   O24   A    
C12   O19   A    
Cu5   O14   S    
Cu2   O23   S    
Cu1   O22   S    
C87   H58   S    
C25   H8    S    
C31   O9    A    
Cu4   O2    S    
O26   C82   S    
C71   C72   A    
C61   C62   A    
C55   H22   S    
C32   O11   A    
C29   C46   S    
Cu6   O13   S    
C19   C20   A    
C2    C3    A    
C9    C15   A    
C79   H47   S    
C87   C88   A    
Cu6   O15   S    
C67   H35   S    
C29   O5    A    
C11   C13   A    
Cu1   Cu2   S    
C38   C39   A    
C13   H2    S    
C85   H56   S    
C27   C37   S    
C48   C49   A    
C23   O20   A    
C1    C2    S    
C29   O6    A    
C63   C68   A    
C77   H45   S    
C30   O7    A    
C62   H31   S    
C39   H11   S    
Cu5   Cu6   S    
C12   C55   S    
C10   C11   A    
C8    H1    S    
C17   O25   S    
C68   H36   S    
C45   C57   S    
Cu1   O20   S    
C77   C78   A    
C59   H28   S    
C80   C81   A    
C32   O13   A    
C36   C43   S    
C2    C56   A    
C16   H3    S    
Cu3   O5    S    
C47   H16   S    
C59   C60   A    
C78   C79   A    
C7    C84   S    
C16   C69   S    
C86   H57   S    
C89   H60   S    
C63   C64   A    
Cu4   O6    S    
