data_mof_unit_61040.cif
_audit_creation_date              2013-03-05T15:42:50-0500
_audit_creation_method            fapswitch 2.2
_symmetry_space_group_name_H-M    P1
_symmetry_Int_Tables_number       1
_space_group_crystal_system       triclinic
_cell_length_a                    18.794836
_cell_length_b                    18.655191
_cell_length_c                    18.814775
_cell_angle_alpha                 109.01639
_cell_angle_beta                  109.064113
_cell_angle_gamma                 108.988422
_cell_volume                      5160.82096704

loop_
_atom_site_label
_atom_site_type_symbol
_atom_site_description
_atom_site_fract_x
_atom_site_fract_y
_atom_site_fract_z
_atom_type_partial_charge
O1    O     O_R   0.052180 0.090150 0.642360 -0.543928
O2    O     O_R   0.947790 0.090180 0.538000 -0.536243
C1    C     C_R   0.996858 0.116653 0.618222 0.972726
O3    O     O_R   0.142370 0.090170 0.552180 -0.516101
O4    O     O_R   0.037980 0.090190 0.447820 -0.577388
C2    C     C_R   0.117724 0.118255 0.499013 0.911911
Cu1   Cu    Cu3+1 0.061810 0.999990 0.561790 1.210142
Cu2   Cu    Cu3+1 0.938190 0.000010 0.438210 1.168603
O5    O     O_R   0.052210 0.909820 0.462000 -0.531655
O6    O     O_R   0.947820 0.909850 0.357640 -0.590339
O7    O     O_R   0.962020 0.909810 0.552180 -0.522668
O8    O     O_R   0.857630 0.909830 0.447820 -0.576120
C3    C     C_R   0.000510 0.881171 0.382200 0.820526
C4    C     C_R   0.882175 0.876577 0.495824 0.838210
C5    C     C_R   0.119351 0.097471 0.342144 -0.269340
C6    C     C_R   0.111691 0.089064 0.263714 0.555725
C7    C     C_R   0.164921 0.158236 0.259874 0.186273
C8    C     C_R   0.229489 0.234395 0.336736 0.461463
C9    C     C_R   0.242261 0.242275 0.418866 -0.043127
C10   C     C_R   0.181391 0.175028 0.420126 -0.028229
C11   C     C_R   0.312123 0.314816 0.499243 0.009028
C12   C     C_R   0.313832 0.324593 0.578647 -0.152077
C13   C     C_R   0.242527 0.265199 0.575951 -0.144355
C14   C     C_R   0.181864 0.187112 0.498499 0.046601
C15   C     C_R   0.384010 0.391579 0.661250 0.547033
C16   C     C_R   0.377174 0.407062 0.736278 0.121067
C17   C     C_R   0.299360 0.356624 0.730312 0.131808
C18   C     C_R   0.233175 0.285832 0.650876 0.512277
H1    H     H_    0.075376 0.041537 0.339993 0.198377
C19   C     C_R   0.982400 0.100385 0.767464 0.205988
C20   C     C_R   0.024964 0.109607 0.850000 0.066247
C21   C     C_R   0.064473 0.190489 0.922809 0.564342
C22   C     C_R   0.057965 0.259638 0.913819 0.576336
C23   C     C_R   0.020599 0.251700 0.831469 -0.228265
C24   C     C_R   0.998331 0.176513 0.759710 -0.155311
C25   C     C_R   0.990312 0.180162 0.683367 -0.149404
C26   C     C_R   0.986143 0.251305 0.674415 0.253612
C27   C     C_R   0.990285 0.317029 0.740511 0.557673
C28   C     C_R   0.006341 0.316942 0.818405 -0.167637
C29   C     C_R   0.736199 0.726492 0.332807 -0.260122
H2    H     H_    0.790364 0.766639 0.329966 0.190529
C30   C     C_R   0.661780 0.661690 0.254982 0.238922
C31   C     C_R   0.592131 0.606688 0.257610 0.661264
C32   C     C_R   0.598264 0.614722 0.335972 -0.158864
H3    H     H_    0.542523 0.570684 0.333780 0.211651
C33   C     C_R   0.673744 0.678178 0.414558 -0.026064
C34   C     C_R   0.742200 0.737348 0.412925 -0.032197
C35   C     C_R   0.816602 0.803638 0.491417 -0.229273
C36   C     C_R   0.826451 0.803975 0.568442 0.677070
C37   C     C_R   0.757803 0.750337 0.571919 0.230378
C38   C     C_R   0.681859 0.685179 0.494725 -0.191182
H4    H     H_    0.893504 0.713140 0.299178 0.163207
C39   C     C_R   0.138114 0.922274 0.334818 0.438437
C40   C     C_R   0.188269 0.948433 0.297560 0.105280
C41   C     C_R   0.158644 0.894923 0.210498 0.527101
C42   C     C_R   0.085623 0.812466 0.164138 0.250610
C43   C     C_R   0.046605 0.779436 0.207939 -0.217919
C44   C     C_R   0.063643 0.839976 0.288068 -0.108848
C45   C     C_R   0.004091 0.816364 0.317370 -0.057576
C46   C     C_R   0.939354 0.730900 0.276691 -0.228863
C47   C     C_R   0.935015 0.667098 0.209194 0.672820
C48   C     C_R   0.990071 0.689471 0.175141 -0.130640
O9    O     O_R   0.590160 0.552240 0.642380 -0.533925
O10   O     O_R   0.590200 0.447870 0.538030 -0.525520
C49   C     C_R   0.620179 0.500283 0.617285 0.884287
O11   O     O_R   0.409810 0.462060 0.552200 -0.517592
O12   O     O_R   0.409850 0.357690 0.447850 -0.525571
C50   C     C_R   0.380969 0.381362 0.500124 0.992113
Cu3   Cu    Cu3+1 0.499980 0.561850 0.561820 1.216646
Cu4   Cu    Cu3+1 0.500030 0.438250 0.438240 1.231455
O13   O     O_R   0.409800 0.552230 0.462030 -0.554643
O14   O     O_R   0.409840 0.447860 0.357670 -0.536937
O15   O     O_R   0.590160 0.642410 0.552210 -0.549940
O16   O     O_R   0.590200 0.538040 0.447850 -0.572323
C51   C     C_R   0.380615 0.500153 0.382266 0.972984
C52   C     C_R   0.616777 0.618819 0.497835 0.804446
O17   O     O_R   0.961980 0.552200 0.909830 -0.590898
O18   O     O_R   0.857610 0.447810 0.909840 -0.508684
C53   C     C_R   0.881518 0.504650 0.884606 0.849825
O19   O     O_R   0.052190 0.462030 0.909810 -0.527793
O20   O     O_R   0.947820 0.357640 0.909820 -0.558608
C54   C     C_R   0.001785 0.381873 0.882521 0.936807
Cu5   Cu    Cu3+1 0.061790 0.561800 0.999990 1.208029
Cu6   Cu    Cu3+1 0.938200 0.438200 0.000000 1.216546
O21   O     O_R   0.142370 0.552190 0.090140 -0.523462
O22   O     O_R   0.038000 0.447800 0.090150 -0.542546
O23   O     O_R   0.052170 0.642360 0.090160 -0.584359
O24   O     O_R   0.947800 0.537970 0.090170 -0.524436
C55   C     C_R   0.118332 0.494733 0.114837 0.923991
C56   C     C_R   0.995167 0.619566 0.114040 0.802294
C57   C     C_R   0.802583 0.576299 0.652494 0.113900
C58   C     C_R   0.887015 0.643391 0.690968 0.596689
C59   C     C_R   0.943200 0.676520 0.776966 0.620358
C60   C     C_R   0.919631 0.636264 0.822192 -0.218228
H5    H     H_    0.965987 0.664386 0.888078 0.267354
C61   C     C_R   0.837497 0.564244 0.783434 -0.088094
C62   C     C_R   0.774668 0.545246 0.703829 -0.143322
C63   C     C_R   0.687178 0.495481 0.678876 -0.172860
C64   C     C_R   0.664106 0.444035 0.716494 0.244034
C65   C     C_R   0.728444 0.450601 0.785594 0.575839
C66   C     C_R   0.815518 0.509871 0.819929 -0.182005
C67   C     C_R   0.198068 0.410164 0.338445 0.632746
C68   C     C_R   0.113335 0.344265 0.301547 0.179164
C69   C     C_R   0.056585 0.314017 0.215771 -0.322099
H6    H     H_    0.993369 0.258365 0.183207 0.248477
C70   C     C_R   0.079758 0.355047 0.170698 0.729911
C71   C     C_R   0.161182 0.429607 0.211453 -0.173016
C72   C     C_R   0.224367 0.447259 0.290516 -0.204117
C73   C     C_R   0.311779 0.500226 0.317983 -0.206757
C74   C     C_R   0.334236 0.547155 0.277203 0.514482
C75   C     C_R   0.271189 0.543131 0.209823 0.604166
C76   C     C_R   0.183642 0.486287 0.176886 -0.225397
N1    N     N_R   0.286178 0.377960 0.804024 0.211119
O25   O     O_R   0.313794 0.458342 0.857048 -0.216681
O26   O     O_R   0.240580 0.317110 0.814788 -0.249479
N2    N     N_R   0.904998 0.019924 0.702021 0.174752
O27   O     O_R   0.864499 0.969461 0.725764 -0.214232
O28   O     O_R   0.861281 0.009729 0.626481 -0.374930
N3    N     N_R   0.026946 0.036787 0.859476 0.225645
O29   O     O_R   0.026757 0.029355 0.925809 -0.138567
O30   O     O_R   0.033945 0.979912 0.803993 -0.170371
F1    F     F_    0.106918 0.201840 0.002756 -0.509369
F2    F     F_    0.096402 0.336632 0.985643 -0.609760
F3    F     F_    0.978790 0.381389 0.728699 -0.593230
F4    F     F_    0.902692 0.859088 0.641620 -0.526325
N4    N     N_R   0.657937 0.652382 0.174368 0.174444
O31   O     O_R   0.722996 0.704110 0.173040 -0.300782
O32   O     O_R   0.589930 0.592037 0.101520 -0.147906
F5    F     F_    0.517869 0.544150 0.184500 -0.536504
N5    N     N_R   0.765189 0.765030 0.654564 0.150707
O33   O     O_R   0.717316 0.792698 0.678412 -0.247474
O34   O     O_R   0.833747 0.775518 0.713506 -0.244196
F6    F     F_    0.163547 0.976653 0.417219 -0.626602
N6    N     N_R   0.265539 0.031434 0.346386 0.167569
O35   O     O_R   0.305679 0.070523 0.429969 -0.231509
O36   O     O_R   0.297303 0.068438 0.307990 -0.235413
F7    F     F_    0.199044 0.924010 0.169715 -0.501966
N7    N     N_R   0.043310 0.770416 0.071862 0.178573
O37   O     O_R   0.087591 0.779180 0.031687 -0.227790
O38   O     O_R   0.959704 0.729341 0.028015 -0.347105
F8    F     F_    0.875672 0.583692 0.176613 -0.592267
N8    N     N_R   0.576471 0.378904 0.680017 0.184592
O39   O     O_R   0.548330 0.357795 0.728815 -0.194284
O40   O     O_R   0.528258 0.331908 0.597061 -0.310331
N9    N     N_R   0.754259 0.528186 0.560336 0.152462
O41   O     O_R   0.724035 0.444663 0.522639 -0.253105
O42   O     O_R   0.761706 0.567503 0.515291 -0.294023
F9    F     F_    0.915864 0.675353 0.644705 -0.529034
F10   F     F_    0.051239 0.012948 0.191239 -0.567935
F11   F     F_    0.023240 0.744237 0.815251 -0.506429
F12   F     F_    0.705209 0.396655 0.817613 -0.558501
F13   F     F_    0.418033 0.600447 0.305456 -0.628669
F14   F     F_    0.254103 0.438369 0.421008 -0.626074
N10   N     N_R   0.085896 0.304940 0.348964 0.153567
O43   O     O_R   0.129682 0.342799 0.432345 -0.246623
O44   O     O_R   0.014751 0.232162 0.309204 -0.303099
F15   F     F_    0.025949 0.314050 0.084970 -0.569470
F16   F     F_    0.296861 0.594737 0.176416 -0.544688
N11   N     N_R   0.152657 0.151883 0.177935 0.204457
O45   O     O_R   0.077140 0.101637 0.110136 -0.158063
O46   O     O_R   0.216614 0.196250 0.170292 -0.173785
F17   F     F_    0.272560 0.302246 0.328513 -0.633786
F18   F     F_    0.462457 0.438370 0.672067 -0.602398
N12   N     N_R   0.450497 0.472890 0.818553 0.221560
O47   O     O_R   0.469832 0.457760 0.883217 -0.187922
O48   O     O_R   0.501725 0.545844 0.827777 -0.204969
F19   F     F_    0.156802 0.242484 0.646028 -0.645191
N13   N     N_R   0.977689 0.257873 0.598647 0.177800
O49   O     O_R   0.039295 0.320792 0.603955 -0.209334
O50   O     O_R   0.902529 0.214176 0.530414 -0.249983

loop_
_geom_bond_atom_site_label_1
_geom_bond_atom_site_label_2
_geom_bond_distance
_ccdc_geom_bond_type
C29   C34   1.414619 A    
Cu5   O23   1.971079 S    
C41   C42   1.407258 A    
O9    C49   1.308574 A    
C29   H2    1.079633 S    
C59   C60   1.389396 A    
C58   F9    1.357672 S    
C71   C76   1.433968 A    
C64   N8    1.440843 S    
O11   C50   1.296511 A    
C9    C10   1.409367 A    
C69   C70   1.393591 A    
C62   C63   1.415777 A    
C43   C48   1.436263 A    
C19   N2    1.445645 S    
C39   C40   1.404756 A    
C42   C43   1.424168 A    
Cu1   O7    1.976739 S    
C55   C76   1.484623 S    
C16   C17   1.401872 A    
N4    O31   1.301847 A    
O16   C52   1.297908 A    
C19   C24   1.419394 A    
Cu5   Cu6   2.688386 S    
O4    C2    1.290680 A    
C17   C18   1.398349 A    
N12   O47   1.301413 A    
C9    C11   1.433612 A    
C75   F16   1.358267 S    
Cu6   O22   1.983043 S    
C49   C63   1.457526 S    
C8    C9    1.433083 A    
C74   F13   1.356898 S    
O19   Cu5   1.974606 S    
N11   O45   1.301008 A    
N9    O41   1.301610 A    
C19   C20   1.416295 A    
O7    C4    1.298997 A    
O11   Cu3   1.974183 S    
C70   C71   1.420498 A    
O17   Cu5   1.983259 S    
C5    C6    1.385132 A    
C40   N6    1.445244 S    
C72   C73   1.413756 A    
C7    C8    1.405411 A    
C23   C24   1.407174 A    
C16   N12   1.438663 S    
Cu3   O13   1.983361 S    
C10   C14   1.413777 A    
C74   C75   1.384072 A    
C65   C66   1.408728 A    
O5    C3    1.292352 A    
C37   N5    1.438318 S    
C18   F19   1.354139 S    
C40   C41   1.402367 A    
O9    Cu3   1.974562 S    
C6    C7    1.392510 A    
C12   C15   1.428056 A    
Cu4   O16   1.974276 S    
C13   C14   1.412798 A    
N11   O46   1.301425 A    
Cu3   O15   1.970707 S    
C6    F10   1.357509 S    
O10   Cu4   1.983265 S    
H4    C46   1.084032 S    
N10   O44   1.301612 A    
C47   C48   1.407751 A    
N13   O50   1.300799 A    
C45   C46   1.393634 A    
C61   C66   1.427416 A    
C59   F11   1.356542 S    
C67   C68   1.406060 A    
O3    Cu1   1.968474 S    
C69   H6    1.082650 S    
N9    O42   1.300612 A    
C32   C33   1.412918 A    
C5    H1    1.078397 S    
C26   N13   1.432135 S    
O17   C53   1.297276 A    
C65   F12   1.359173 S    
C5    C10   1.416632 A    
C67   C72   1.418313 A    
C51   C73   1.454884 S    
N8    O39   1.301960 A    
O12   C50   1.295630 A    
C21   F1    1.357366 S    
C31   F5    1.357080 S    
C39   F6    1.355222 S    
C38   C52   1.463128 S    
O19   C54   1.287319 A    
C57   C58   1.405496 A    
O21   C55   1.309779 A    
O18   C53   1.307305 A    
N6    O36   1.301305 A    
C37   C38   1.410854 A    
C15   C16   1.403422 A    
C33   C38   1.422571 A    
O22   C55   1.295569 A    
O20   C54   1.300051 A    
C23   C28   1.406323 A    
C46   C47   1.385720 A    
O1    C1    1.305449 A    
C24   C25   1.421082 A    
N5    O34   1.299812 A    
C31   C32   1.394015 A    
C26   C27   1.391704 A    
C42   N7    1.437551 S    
C68   N10   1.442562 S    
C34   C35   1.414620 A    
Cu2   O8    1.968477 S    
C2    C14   1.453065 S    
C61   C62   1.410557 A    
C22   C23   1.409882 A    
C60   H5    1.069676 S    
C13   C18   1.420768 A    
C57   C62   1.428846 A    
N3    O29   1.300842 A    
C60   C61   1.412921 A    
C67   F14   1.355394 S    
C20   N3    1.437030 S    
N10   O43   1.301341 A    
N3    O30   1.300596 A    
N7    O38   1.301756 A    
C17   N1    1.439495 S    
C47   F8    1.357648 S    
N13   O49   1.300781 A    
Cu5   O21   1.974720 S    
O24   C56   1.312533 A    
C63   C64   1.407989 A    
C11   C50   1.463901 S    
O15   C52   1.294135 A    
N8    O40   1.301229 A    
O3    C2    1.298654 A    
C30   C31   1.403619 A    
C71   C72   1.415564 A    
C57   N9    1.436510 S    
O20   Cu6   1.971201 S    
C32   H3    1.078781 S    
N1    O25   1.301396 A    
Cu1   O5    1.977441 S    
C33   C34   1.413685 A    
C25   C26   1.414452 A    
N4    O32   1.301284 A    
C75   C76   1.409310 A    
O1    Cu1   1.968620 S    
C20   C21   1.401444 A    
O2    Cu2   1.977443 S    
Cu6   O24   1.974507 S    
C28   C54   1.453459 S    
O8    C4    1.300975 A    
O6    C3    1.299016 A    
O4    Cu2   1.976737 S    
C4    C35   1.464817 S    
C39   C44   1.416752 A    
N6    O35   1.301401 A    
C3    C45   1.448974 S    
C70   F15   1.355171 S    
C36   F4    1.354996 S    
C41   F7    1.357777 S    
C64   C65   1.392964 A    
O12   Cu4   1.970708 S    
C21   C22   1.392464 A    
N12   O48   1.301384 A    
N5    O33   1.300902 A    
C44   C45   1.411114 A    
C73   C74   1.393611 A    
O10   C49   1.280455 A    
O13   C51   1.289290 A    
C8    F17   1.350578 S    
O14   C51   1.299261 A    
C43   C44   1.410897 A    
C27   C28   1.397104 A    
C1    C25   1.472473 S    
C15   F18   1.351996 S    
C35   C36   1.397344 A    
C48   C56   1.485808 S    
C29   C30   1.403580 A    
C58   C59   1.386571 A    
N2    O28   1.300222 A    
N2    O27   1.301937 A    
O2    C1    1.296576 A    
Cu3   Cu4   2.689218 S    
C7    N11   1.440474 S    
Cu1   Cu2   2.697516 S    
N7    O37   1.301414 A    
C30   N4    1.443774 S    
O18   Cu6   1.974938 S    
Cu2   O6    1.968619 S    
C36   C37   1.388474 A    
O23   C56   1.293446 A    
C68   C69   1.396769 A    
C22   F2    1.353971 S    
C12   C13   1.406742 A    
C53   C66   1.482836 S    
Cu4   O14   1.974777 S    
C11   C12   1.433015 A    
C27   F3    1.359769 S    
N1    O26   1.301622 A    
