data_mof_unit_21070.cif
_audit_creation_date              2012-10-26T20:00:53-0400
_audit_creation_method            fapswitch 2.2
_symmetry_space_group_name_H-M    P1
_symmetry_Int_Tables_number       1
_space_group_crystal_system       triclinic
_cell_length_a                    11.711785
_cell_length_b                    12.991051
_cell_length_c                    13.3958
_cell_angle_alpha                 92.567525
_cell_angle_beta                  75.805757
_cell_angle_gamma                 99.525828
_cell_volume                      1948.65999125

loop_
_atom_site_label
_atom_site_type_symbol
_atom_type_description
_atom_site_fract_x
_atom_site_fract_y
_atom_site_fract_z
_atom_type_partial_charge
C1    C     C_R   0.520329 0.700568 0.501659 0.579985
C2    C     C_R   0.395764 0.477868 0.809529 -0.019730
C3    C     C_R   0.471690 0.187479 0.488203 0.006172
C4    C     C_R   0.435474 0.489724 0.696225 0.529474
C5    C     C_R   0.529050 0.813961 0.506223 0.031036
C6    C     C_R   0.601174 0.979723 0.576968 -0.128542
C7    C     C_R   0.596109 0.872138 0.569819 0.232486
C8    C     C_R   0.463671 0.863490 0.452353 0.093841
C9    C     C_R   0.465007 0.971866 0.463666 0.040228
C10   C     C_R   0.535314 0.029479 0.525915 -0.028356
C11   C     C_R   0.539004 0.136808 0.536789 -0.133553
C12   C     C_R   0.442013 0.464817 0.977344 0.032904
C13   C     C_R   0.401238 0.131493 0.427332 -0.142226
C14   C     C_R   0.399034 0.024701 0.413855 -0.125878
C15   C     C_R   0.955449 0.622650 0.561239 -0.168809
C16   C     C_R   0.480022 0.299740 0.496929 0.527319
C17   C     C_R   0.834727 0.607150 0.560364 0.033151
C18   C     C_R   0.850667 0.442793 0.479170 0.052685
C19   C     C_R   0.972895 0.454465 0.479397 -0.028223
C20   C     C_R   0.025911 0.545381 0.521811 0.015921
C21   C     C_R   0.148134 0.556493 0.523914 0.435596
C22   C     C_R   0.164580 0.393380 0.438702 0.011237
C23   C     C_R   0.471394 0.450220 0.868936 -0.012744
C24   C     C_R   0.043333 0.378391 0.437385 -0.192830
C25   C     C_R   0.563854 0.499213 0.303602 0.544570
C26   C     C_R   0.725355 0.414102 0.036991 0.147499
C27   C     C_R   0.599537 0.480951 0.191342 -0.022042
C28   C     C_R   0.283298 0.500931 0.860098 -0.203039
C29   C     C_R   0.246383 0.498799 0.966643 -0.120796
C30   C     C_R   0.322737 0.478636 0.025996 0.275779
C31   C     C_3   0.753039 0.310290 0.243576 -0.292627
C32   C     C_3   0.585915 0.799680 0.723181 -0.121082
C33   C     C_3   0.462986 0.791046 0.282771 -0.295141
C34   C     C_R   0.531318 0.460253 0.032195 -0.013246
C35   C     C_3   0.168665 0.642523 0.673732 -0.109840
C36   C     C_3   0.924525 0.461591 0.930731 -0.332544
C37   C     C_3   0.235507 0.355116 0.146641 -0.122668
C38   C     C_R   0.637821 0.422047 0.982566 0.041507
C39   C     C_R   0.653804 0.389656 0.879713 -0.136451
C40   C     C_R   0.572705 0.403985 0.823854 -0.135674
C41   C     C_R   0.519862 0.497167 0.133437 -0.165594
C42   C     C_R   0.702685 0.437666 0.143561 0.133963
Cu1   Cu    Cu3+1 0.386470 0.492430 0.492410 0.990060
Cu2   Cu    Cu3+1 0.613530 0.507570 0.507590 0.947462
H1    H     H_    0.350509 0.170877 0.387802 0.109910
H2    H     H_    0.448832 0.539910 0.169117 0.194558
H3    H     H_    0.222189 0.518563 0.817357 0.112493
H4    H     H_    0.156711 0.511271 0.003978 0.125690
H5    H     H_    0.588647 0.374080 0.745982 0.149752
H6    H     H_    0.593452 0.181000 0.583896 0.109317
H7    H     H_    0.870601 0.436622 0.168315 0.252190
H8    H     H_    0.753945 0.251625 0.180590 0.123150
H9    H     H_    0.663566 0.298442 0.297706 0.169453
H10   H     H_    0.820330 0.297233 0.285234 0.120297
H11   H     H_    0.502400 0.746046 0.719406 0.111584
H12   H     H_    0.654763 0.023944 0.624638 0.124567
H13   H     H_    0.564441 0.871429 0.767440 0.108134
H14   H     H_    0.635118 0.758708 0.765763 0.136836
H15   H     H_    0.311625 0.817845 0.395173 0.262710
H16   H     H_    0.488397 0.867776 0.243245 0.125122
H17   H     H_    0.406647 0.737209 0.240886 0.152860
H18   H     H_    0.544584 0.757134 0.280970 0.148074
H19   H     H_    0.116224 0.566911 0.707032 0.078454
H20   H     H_    0.116069 0.705591 0.703940 0.101168
H21   H     H_    0.251271 0.659237 0.702017 0.142964
H22   H     H_    0.867453 0.332135 0.026055 0.252227
H23   H     H_    0.346052 0.985172 0.363754 0.108049
H24   H     H_    0.952485 0.520446 0.986418 0.135230
H25   H     H_    0.890309 0.500691 0.874564 0.154394
H26   H     H_    0.003320 0.427424 0.887753 0.138893
H27   H     H_    0.311909 0.311012 0.127935 0.118981
H28   H     H_    0.168703 0.323619 0.101888 0.108796
H29   H     H_    0.191017 0.342332 0.229011 0.133149
H30   H     H_    0.217366 0.333692 0.406466 0.123120
H31   H     H_    0.992585 0.695447 0.591780 0.129680
H32   H     H_    0.005080 0.307735 0.403636 0.086482
H33   H     H_    0.781999 0.666952 0.591712 0.182985
H34   H     H_    0.730141 0.353942 0.840897 0.148678
H35   H     H_    0.809063 0.373395 0.446577 0.121872
N1    N     N_R   0.215880 0.481050 0.481000 -0.211159
N2    N     N_R   0.784100 0.518950 0.519000 -0.233931
N3    N     N_2   0.781284 0.415271 0.202765 -0.491962
N4    N     N_2   0.397056 0.803060 0.387880 -0.471668
N5    N     N_2   0.834163 0.379725 0.984559 -0.534711
O1    O     O_R   0.419710 0.645650 0.494620 -0.417011
O2    O     O_3   0.200888 0.646062 0.564942 -0.537966
O3    O     O_3   0.274687 0.463054 0.130180 -0.580849
O4    O     O_R   0.611450 0.658430 0.507430 -0.482733
O5    O     O_R   0.357340 0.490460 0.641450 -0.500268
O6    O     O_R   0.549080 0.503250 0.654260 -0.509741
O7    O     O_R   0.388550 0.341570 0.492570 -0.518154
O8    O     O_R   0.580290 0.354350 0.505380 -0.529793
O9    O     O_R   0.450920 0.496750 0.345740 -0.501279
O10   O     O_R   0.642660 0.509540 0.358550 -0.460622
O11   O     O_3   0.659095 0.824479 0.624086 -0.571215

loop_
_geom_bond_atom_site_label_1
_geom_bond_atom_site_label_2
_ccdc_geom_bond_type
C8    C9    A    
C15   H31   S    
C28   H3    S    
C25   O9    A    
C8    N4    S    
C19   C20   A    
C42   N3    S    
C32   H14   S    
C31   H8    S    
Cu1   Cu2   S    
C12   C23   A    
Cu1   O5    S    
C31   N3    S    
C1    C5    S    
C28   C29   A    
H15   N4    S    
C38   C39   A    
C35   O2    S    
C35   H21   S    
C40   H5    S    
C18   N2    A    
C18   C19   A    
C18   H35   S    
C41   H2    S    
C35   H20   S    
C9    C10   A    
C32   H11   S    
Cu2   O8    S    
C24   H32   S    
C1    O4    A    
C25   O10   A    
C13   C14   A    
C34   C41   A    
C32   H13   S    
C36   H26   S    
C4    O6    A    
C1    O1    A    
C15   C20   A    
C29   H4    S    
Cu1   O1    S    
C39   H34   S    
Cu2   O10   S    
Cu2   N2    S    
C39   C40   A    
C5    C7    A    
C33   H18   S    
Cu1   N1    S    
Cu1   O7    S    
C2    C4    S    
C9    C14   A    
C29   C30   A    
C27   C41   A    
C14   H23   S    
C17   H33   S    
C31   H9    S    
C33   N4    S    
H7    N3    S    
C16   O8    A    
C33   H16   S    
C37   H27   S    
C22   C24   A    
C22   H30   S    
C12   C34   A    
Cu2   O6    S    
C36   H25   S    
C26   C42   A    
C4    O5    A    
C15   C17   A    
C37   H29   S    
C21   O2    S    
C26   N5    S    
C12   C30   A    
C34   C38   A    
C37   O3    S    
C26   C38   A    
C6    H12   S    
C3    C13   A    
C6    C10   A    
C5    C8    A    
C35   H19   S    
C36   H24   S    
C6    C7    A    
C25   C27   S    
C7    O11   S    
C19   C24   A    
C22   N1    A    
C11   H6    S    
C13   H1    S    
C27   C42   A    
C36   N5    S    
C21   N1    A    
Cu1   O9    S    
C17   N2    A    
C31   H10   S    
C3    C11   A    
C10   C11   A    
H22   N5    S    
C32   O11   S    
C20   C21   A    
C16   O7    A    
C33   H17   S    
C37   H28   S    
C2    C23   A    
C2    C28   A    
C30   O3    S    
Cu2   O4    S    
C3    C16   S    
C23   C40   A    
