data_mof_unit_24682.cif
_audit_creation_date              2012-12-10T17:01:34-0500
_audit_creation_method            fapswitch 2.2
_symmetry_space_group_name_H-M    P1
_symmetry_Int_Tables_number       1
_space_group_crystal_system       triclinic
_cell_length_a                    9.840538
_cell_length_b                    10.999294
_cell_length_c                    12.992872
_cell_angle_alpha                 90.016492
_cell_angle_beta                  75.674857
_cell_angle_gamma                 111.272686
_cell_volume                      1263.51511163

loop_
_atom_site_label
_atom_site_type_symbol
_atom_type_description
_atom_site_fract_x
_atom_site_fract_y
_atom_site_fract_z
_atom_type_partial_charge
C1    C     C_R   0.439140 0.253380 0.506826 0.743160
C2    C     C_R   0.561111 0.746689 0.491109 0.741224
C3    C     C_2   0.083117 0.511691 0.491537 -0.071943
C4    C     C_2   0.917008 0.489430 0.509381 -0.077658
C5    C     C_R   0.473460 0.496151 0.702734 0.795606
C6    C     C_R   0.526779 0.504659 0.297196 0.817002
C7    C     C_R   0.542588 0.508429 0.182764 -0.056719
C8    C     C_R   0.458337 0.494568 0.816993 -0.055823
C9    C     C_R   0.302296 0.468656 0.997838 -0.212804
C10   C     C_R   0.699284 0.536679 0.001775 -0.219877
C11   C     C_R   0.316701 0.470753 0.888804 -0.197171
C12   C     C_R   0.684512 0.533316 0.110905 -0.184528
C13   C     C_R   0.585791 0.516954 0.854781 -0.275609
C14   C     C_R   0.415523 0.487381 0.144849 -0.261827
C15   C     C_R   0.572245 0.514905 0.963756 0.176490
C16   C     C_R   0.429319 0.490304 0.035836 0.177077
C17   C     C_2   0.403865 0.112330 0.507643 0.267976
C18   C     C_2   0.597324 0.888031 0.482498 0.266309
C19   C     C_2   0.516985 0.070600 0.470685 -0.215955
C20   C     C_2   0.489460 0.931378 0.474425 -0.223096
Cu1   Cu    Cu3+1 0.647370 0.522180 0.481340 0.945129
Cu2   Cu    Cu3+1 0.352630 0.477820 0.518660 0.940238
H1    H     H_    0.305740 0.468350 0.199931 0.156799
H2    H     H_    0.695506 0.535727 0.799681 0.153931
H3    H     H_    0.784193 0.550195 0.138877 0.161103
H4    H     H_    0.216889 0.453443 0.860885 0.159299
H5    H     H_    0.192202 0.449875 0.052256 0.138530
H6    H     H_    0.809511 0.555955 0.947341 0.136985
H7    H     H_    0.375826 0.862792 0.478354 0.185328
H8    H     H_    0.633226 0.140046 0.444232 0.191366
H9    H     H_    0.834663 0.415300 0.571893 0.155739
H10   H     H_    0.165575 0.586932 0.429838 0.160113
H11   H     H_    0.949668 0.626009 0.395022 0.198544
H12   H     H_    0.050225 0.373136 0.604281 0.195014
N1    N     N_2   0.131210 0.444490 0.546730 -0.283162
N2    N     N_2   0.868790 0.555510 0.453270 -0.279636
O1    O     O_R   0.578710 0.332530 0.490040 -0.604039
O2    O     O_R   0.421290 0.667470 0.509960 -0.605607
O3    O     O_R   0.329810 0.295070 0.521560 -0.547137
O4    O     O_R   0.670190 0.704930 0.478440 -0.546107
O5    O     O_R   0.604230 0.515670 0.637800 -0.583932
O6    O     O_R   0.395770 0.484330 0.362200 -0.576855
O7    O     O_R   0.355330 0.478200 0.669330 -0.583012
O8    O     O_R   0.644670 0.521800 0.330670 -0.577095
O9    O     O_3   0.744392 0.975434 0.472206 -0.596673
C21   C     C_3   0.781708 0.976808 0.570817 0.100807
H13   H     H_    0.906212 0.005317 0.552397 0.189879
H14   H     H_    0.730454 0.879130 0.618449 0.117341
C22   C     C_3   0.738245 0.078816 0.637182 -0.384994
H15   H     H_    0.786276 0.174613 0.587817 0.223078
H16   H     H_    0.613164 0.047429 0.662198 0.210643
C23   C     C_3   0.796866 0.096027 0.736621 -0.938235
H17   H     H_    0.758476 0.166792 0.784555 0.259910
H18   H     H_    0.922422 0.135062 0.713749 0.247540
H19   H     H_    0.752881 0.000886 0.786416 0.262433
O10   O     O_3   0.254613 0.024382 0.536950 -0.603836
C24   C     C_3   0.194152 0.014133 0.648923 0.072596
H20   H     H_    0.072541 0.997765 0.664053 0.161553
H21   H     H_    0.246182 0.104520 0.686725 0.114672
C25   C     C_3   0.206790 0.895981 0.702387 -0.359942
H22   H     H_    0.158465 0.807234 0.662262 0.232758
H23   H     H_    0.327740 0.914114 0.694332 0.207794
C26   C     C_3   0.122627 0.870702 0.820682 -0.911988
H24   H     H_    0.169974 0.957683 0.862785 0.260624
H25   H     H_    0.135063 0.785298 0.857075 0.255662
H26   H     H_    0.000291 0.848658 0.830930 0.255012

loop_
_geom_bond_atom_site_label_1
_geom_bond_atom_site_label_2
_ccdc_geom_bond_type
C14   H1    S    
C5    C8    S    
C26   H25   S    
C8    C13   A    
C1    O1    A    
C2    C18   S    
Cu1   O8    S    
C2    O2    A    
C1    C17   S    
C19   C20   S    
C21   C22   S    
C23   H19   S    
C3    N1    D    
C12   H3    S    
C20   H7    S    
C22   C23   S    
C4    N2    D    
C5    O7    A    
C26   H26   S    
C18   O9    S    
Cu1   N2    S    
C6    O8    A    
O9    C21   S    
C23   H17   S    
Cu2   N1    S    
C9    C11   A    
C17   O10   S    
C24   H20   S    
Cu2   O6    S    
Cu1   O4    S    
C10   C12   A    
C8    C11   A    
Cu1   O5    S    
Cu2   O3    S    
C17   C19   D    
C9    C16   A    
C23   H18   S    
C22   H15   S    
C6    C7    S    
C18   C20   D    
C10   C15   A    
C13   C15   A    
C3    H10   S    
C14   C16   A    
C7    C12   A    
C24   H21   S    
C4    H9    S    
C25   C26   S    
C1    O3    A    
C26   H24   S    
C15   C16   A    
Cu2   O2    S    
C21   H14   S    
C2    O4    A    
H11   N2    S    
Cu1   O1    S    
O10   C24   S    
C9    H5    S    
C25   H23   S    
H12   N1    S    
C6    O6    A    
C10   H6    S    
C5    O5    A    
C21   H13   S    
C24   C25   S    
C11   H4    S    
Cu1   Cu2   S    
C19   H8    S    
C7    C14   A    
C3    C4    S    
C13   H2    S    
C25   H22   S    
C22   H16   S    
Cu2   O7    S    
