data_mof_unit_43546.cif
_audit_creation_date              2012-12-10T18:03:17-0500
_audit_creation_method            fapswitch 2.2
_symmetry_space_group_name_H-M    P1
_symmetry_Int_Tables_number       1
_space_group_crystal_system       triclinic
_cell_length_a                    10.776654
_cell_length_b                    9.487506
_cell_length_c                    15.309008
_cell_angle_alpha                 89.620571
_cell_angle_beta                  90.272435
_cell_angle_gamma                 90.296085
_cell_volume                      1565.17496128

loop_
_atom_site_label
_atom_site_type_symbol
_atom_type_description
_atom_site_fract_x
_atom_site_fract_y
_atom_site_fract_z
_atom_type_partial_charge
C1    C     C_R   0.262542 0.499735 0.500928 0.823690
C2    C     C_R   0.737515 0.499822 0.501164 0.816169
C3    C     C_R   0.497704 0.500930 0.329872 0.782563
C4    C     C_R   0.500509 0.499737 0.670659 0.791563
C5    C     C_R   0.405136 0.074329 0.461849 -0.027944
C6    C     C_R   0.595023 0.925854 0.537677 -0.020827
C7    C     C_R   0.595435 0.074608 0.537208 -0.028876
C8    C     C_R   0.405442 0.925392 0.461470 -0.034804
C9    C     C_R   0.066330 0.502504 0.582360 0.104729
C10   C     C_R   0.934184 0.478915 0.421720 0.104595
C11   C     C_R   0.935499 0.506527 0.582457 0.101941
C12   C     C_R   0.064320 0.491349 0.420777 0.110686
C13   C     C_R   0.547571 0.613865 0.094518 -0.212972
C14   C     C_R   0.504662 0.374966 0.908293 -0.208298
C15   C     C_R   0.486063 0.627155 0.906051 -0.210280
C16   C     C_R   0.436997 0.392709 0.095579 -0.200021
C17   C     C_R   0.542899 0.621237 0.185395 0.120358
C18   C     C_R   0.502144 0.370250 0.817233 0.123354
C19   C     C_R   0.495545 0.630509 0.815256 0.127276
C20   C     C_R   0.437827 0.389382 0.186636 0.128957
C21   C     C_R   0.492964 0.503871 0.233432 -0.101417
C22   C     C_R   0.499756 0.499944 0.768083 -0.106951
C23   C     C_R   0.493452 0.502248 0.049226 0.060812
C24   C     C_R   0.494141 0.501402 0.952953 0.061841
C25   C     C_R   0.871483 0.497542 0.501688 -0.147349
C26   C     C_R   0.128599 0.499002 0.501292 -0.142878
Cu1   Cu    Cu3+1 0.500000 0.640660 0.500000 0.922024
Cu2   Cu    Cu3+1 0.500000 0.359340 0.500000 0.920512
H1    H     H_    0.329344 0.130216 0.431023 0.123405
H2    H     H_    0.671132 0.870429 0.567830 0.109036
H3    H     H_    0.672463 0.130540 0.566440 0.124690
H4    H     H_    0.330125 0.869324 0.430097 0.118114
H5    H     H_    0.593809 0.697437 0.058555 0.129966
H6    H     H_    0.515681 0.277755 0.944993 0.130968
H7    H     H_    0.473747 0.725245 0.940704 0.129321
H8    H     H_    0.390555 0.308559 0.060575 0.130994
N1    N     N_R   0.500000 0.852070 0.500000 -0.151236
N2    N     N_R   0.500000 0.147930 0.500000 -0.154908
O1    O     O_R   0.319640 0.618740 0.499990 -0.588943
O2    O     O_R   0.680360 0.381260 0.500010 -0.587626
O3    O     O_R   0.680360 0.618740 0.500010 -0.589059
O4    O     O_R   0.319640 0.381260 0.499990 -0.595603
O5    O     O_R   0.499990 0.618780 0.371460 -0.580831
O6    O     O_R   0.500010 0.381220 0.628540 -0.578464
O7    O     O_R   0.500010 0.618780 0.628540 -0.576858
O8    O     O_R   0.499990 0.381220 0.371460 -0.574011
C27   C     C_3   0.587671 0.759966 0.224912 -0.362844
C28   C     C_3   0.717060 0.750218 0.265324 -0.825134
H9    H     H_    0.714585 0.693392 0.328463 0.266889
H10   H     H_    0.781614 0.696975 0.220011 0.236130
H11   H     H_    0.753088 0.858024 0.278214 0.235696
H12   H     H_    0.592674 0.843077 0.173415 0.179746
H13   H     H_    0.519666 0.802915 0.271652 0.221030
C29   C     C_3   0.504712 0.222621 0.778916 -0.362681
C30   C     C_3   0.636521 0.179389 0.755324 -0.829663
H14   H     H_    0.635544 0.070806 0.728784 0.224997
H15   H     H_    0.676693 0.251806 0.705916 0.251796
H16   H     H_    0.696597 0.180706 0.814479 0.240960
H17   H     H_    0.470250 0.144229 0.827576 0.178695
H18   H     H_    0.438814 0.209354 0.723912 0.221179
C31   C     C_3   0.505216 0.777742 0.775174 -0.369134
C32   C     C_3   0.379300 0.833027 0.744446 -0.794402
H19   H     H_    0.391494 0.938667 0.713982 0.232823
H20   H     H_    0.335909 0.762549 0.695668 0.262394
H21   H     H_    0.315723 0.842683 0.800959 0.230189
H22   H     H_    0.541202 0.853579 0.824442 0.177044
H23   H     H_    0.576209 0.784059 0.723261 0.213031
C33   C     C_3   0.373772 0.262948 0.228560 -0.389060
C34   C     C_3   0.461126 0.136907 0.234308 -0.806433
H24   H     H_    0.491895 0.106033 0.168014 0.232120
H25   H     H_    0.543999 0.162324 0.274690 0.274750
H26   H     H_    0.411798 0.046005 0.264489 0.218827
H27   H     H_    0.334772 0.285880 0.293412 0.200505
H28   H     H_    0.291480 0.232116 0.188778 0.180364
C35   C     C_3   0.140600 0.498868 0.667755 -0.392109
C36   C     C_3   0.165185 0.347529 0.697461 -0.852780
H29   H     H_    0.076637 0.289458 0.707322 0.243982
H30   H     H_    0.221215 0.291103 0.648289 0.266624
H31   H     H_    0.217428 0.348377 0.760157 0.238443
H32   H     H_    0.230610 0.554301 0.660656 0.188876
H33   H     H_    0.094129 0.556442 0.720882 0.210928
C37   C     C_3   0.863281 0.434254 0.339506 -0.390006
C38   C     C_3   0.868578 0.274611 0.327899 -0.825503
H34   H     H_    0.965922 0.238115 0.322750 0.236270
H35   H     H_    0.824016 0.220490 0.384254 0.263176
H36   H     H_    0.817868 0.244692 0.267422 0.237995
H37   H     H_    0.764208 0.463294 0.341695 0.197350
H38   H     H_    0.898897 0.487884 0.280223 0.205781
C39   C     C_3   0.863587 0.513880 0.668159 -0.384981
C40   C     C_3   0.848099 0.665737 0.698234 -0.860390
H39   H     H_    0.939189 0.718994 0.706604 0.245368
H40   H     H_    0.793049 0.725513 0.649553 0.251047
H41   H     H_    0.798247 0.666957 0.761544 0.238716
H42   H     H_    0.770144 0.465971 0.661941 0.182987
H43   H     H_    0.908457 0.450466 0.720367 0.207488
C41   C     C_3   0.134135 0.503059 0.334319 -0.400642
C42   C     C_3   0.127023 0.652644 0.297283 -0.844382
H44   H     H_    0.029342 0.684681 0.286005 0.246887
H45   H     H_    0.171129 0.727912 0.343340 0.249869
H46   H     H_    0.177376 0.658107 0.234210 0.239460
H47   H     H_    0.233391 0.477601 0.341818 0.180464
H48   H     H_    0.099425 0.426235 0.285693 0.201856

loop_
_geom_bond_atom_site_label_1
_geom_bond_atom_site_label_2
_ccdc_geom_bond_type
C30   H14   S    
C41   H48   S    
C14   C18   A    
C36   H31   S    
C42   H44   S    
C29   H18   S    
C15   C19   A    
C3    O5    A    
C36   H30   S    
Cu2   O2    S    
C2    O3    A    
C33   H28   S    
C37   H37   S    
C13   C23   A    
C14   C24   A    
C39   H42   S    
C34   H25   S    
C11   C39   S    
C32   H20   S    
C33   C34   S    
C31   H22   S    
C28   H11   S    
C38   H34   S    
Cu1   O1    S    
Cu1   O3    S    
C23   C24   S    
C35   H32   S    
C29   H17   S    
C27   H13   S    
Cu1   O7    S    
C28   H10   S    
C41   H47   S    
C31   C32   S    
C15   H7    S    
C42   H45   S    
C9    C26   A    
C5    H1    S    
C4    O7    A    
C7    H3    S    
C8    H4    S    
C19   C22   A    
C36   H29   S    
C1    O1    A    
C35   H33   S    
C4    O6    A    
C33   H27   S    
C10   C37   S    
C17   C21   A    
C12   C26   A    
C39   H43   S    
C34   H26   S    
C35   C36   S    
C13   H5    S    
C32   H19   S    
C2    O2    A    
C4    C22   S    
C31   H23   S    
C40   H40   S    
C27   C28   S    
Cu2   N2    S    
C16   C20   A    
Cu2   O8    S    
C41   C42   S    
C6    N1    A    
C9    C11   A    
C6    C7    A    
C10   C12   A    
C10   C25   A    
C15   C24   A    
C38   H35   S    
C16   C23   A    
C30   H15   S    
C1    C26   S    
C3    C21   S    
C8    N1    A    
C42   H46   S    
C40   H41   S    
C29   C30   S    
C28   H9    S    
C32   H21   S    
C6    H2    S    
C18   C22   A    
C20   C33   S    
C17   C27   S    
C14   H6    S    
C5    C8    A    
C27   H12   S    
C3    O8    A    
C13   C17   A    
C16   H8    S    
C40   H39   S    
C19   C31   S    
C37   H38   S    
Cu2   O4    S    
C7    N2    A    
Cu2   O6    S    
C2    C25   S    
C34   H24   S    
C18   C29   S    
Cu1   O5    S    
C1    O4    A    
C38   H36   S    
C20   C21   A    
C37   C38   S    
C30   H16   S    
Cu1   Cu2   S    
C11   C25   A    
C12   C41   S    
C9    C35   S    
C39   C40   S    
C5    N2    A    
Cu1   N1    S    
