data_mof_unit_68164.cif
_audit_creation_date              2013-03-05T16:02:16-0500
_audit_creation_method            fapswitch 2.2
_symmetry_space_group_name_H-M    P1
_symmetry_Int_Tables_number       1
_space_group_crystal_system       triclinic
_cell_length_a                    22.590586
_cell_length_b                    7.687484
_cell_length_c                    14.893309
_cell_angle_alpha                 90.028747
_cell_angle_beta                  101.94506
_cell_angle_gamma                 90.087801
_cell_volume                      2530.43369297

loop_
_atom_site_label
_atom_site_type_symbol
_atom_site_description
_atom_site_fract_x
_atom_site_fract_y
_atom_site_fract_z
_atom_type_partial_charge
O1    O     O_R   0.835850 0.638310 0.002120 -0.616305
O2    O     O_R   0.164150 0.361690 0.997880 -0.561823
O3    O     O_R   0.664150 0.138310 0.997880 -0.616288
O4    O     O_R   0.335850 0.861690 0.002120 -0.549251
O5    O     O_R   0.717530 0.306070 0.861970 -0.617018
O6    O     O_R   0.282470 0.693930 0.138030 -0.626312
O7    O     O_R   0.782470 0.806070 0.138030 -0.617703
O8    O     O_R   0.217530 0.193930 0.861970 -0.636892
C1    C     C_R   0.693878 0.474675 0.830973 0.827925
C2    C     C_R   0.292050 0.522649 0.173361 0.906251
C3    C     C_R   0.806265 0.974772 0.169057 0.819392
C4    C     C_R   0.208189 0.022571 0.826845 0.957959
O9    O     O_R   0.838690 0.308440 0.993250 -0.572891
O10   O     O_R   0.161310 0.691560 0.006750 -0.625979
O11   O     O_R   0.661310 0.808440 0.006750 -0.560092
O12   O     O_R   0.338690 0.191560 0.993250 -0.628283
O13   O     O_R   0.786170 0.140510 0.130090 -0.526719
O14   O     O_R   0.213830 0.859490 0.869910 -0.570427
O15   O     O_R   0.713830 0.640510 0.869910 -0.515062
O16   O     O_R   0.286170 0.359490 0.130090 -0.584734
C5    C     C_R   0.862495 0.477168 0.993098 0.832576
C6    C     C_R   0.134800 0.523919 0.999718 0.812693
C7    C     C_R   0.637251 0.977090 0.006091 0.871147
C8    C     C_R   0.365121 0.024129 0.000558 0.843076
O17   O     O_3   0.732630 0.472520 0.044740 -0.334576
O18   O     O_3   0.267370 0.527480 0.955260 -0.343208
O19   O     O_3   0.767370 0.972520 0.955260 -0.328580
O20   O     O_3   0.232630 0.027480 0.044740 -0.355538
V1    V     V_3+5 0.753220 0.196740 0.991700 1.150909
V2    V     V_3+5 0.246780 0.803260 0.008300 1.136810
V3    V     V_3+5 0.746780 0.696740 0.008300 1.155286
V4    V     V_3+5 0.253220 0.303260 0.991700 1.125223
H1    H     H_    0.610847 0.021804 0.312451 0.168534
H2    H     H_    0.410807 0.115412 0.699929 0.131135
H3    H     H_    0.889064 0.521882 0.687011 0.169438
H4    H     H_    0.086347 0.623928 0.299476 0.142784
C9    C     C_R   0.544715 0.023074 0.835076 -0.125306
C10   C     C_R   0.467130 0.016591 0.182267 -0.065211
C11   C     C_R   0.953965 0.516613 0.164335 -0.133516
C12   C     C_R   0.032733 0.517274 0.817469 -0.063581
C13   C     C_R   0.502488 0.060235 0.754808 -0.042382
C14   C     C_R   0.515283 0.018009 0.262247 0.007966
C15   C     C_R   0.995667 0.557568 0.244568 -0.058194
C16   C     C_R   0.984619 0.518126 0.737363 0.007403
C17   C     C_R   0.442972 0.085827 0.760518 -0.260757
C18   C     C_R   0.574790 0.018210 0.252651 -0.330349
C19   C     C_R   0.054871 0.588941 0.238981 -0.212766
C20   C     C_R   0.925105 0.518324 0.746834 -0.332528
C21   C     C_R   0.424360 0.082587 0.843905 -0.115464
C22   C     C_R   0.589751 0.014082 0.168446 -0.196568
C23   C     C_R   0.074324 0.582563 0.156168 -0.114535
C24   C     C_R   0.910095 0.514794 0.830971 -0.195575
C25   C     C_R   0.462238 0.033532 0.924809 0.123382
C26   C     C_R   0.546282 0.003067 0.087705 0.125863
C27   C     C_R   0.037019 0.532105 0.075086 0.113833
C28   C     C_R   0.953466 0.503567 0.911760 0.128574
C29   C     C_R   0.525872 0.010863 0.922102 0.069794
C30   C     C_R   0.482017 0.011025 0.091685 -0.002896
C31   C     C_R   0.973289 0.508504 0.077357 0.057741
C32   C     C_R   0.017789 0.511330 0.908068 -0.001868
C33   C     C_R   0.436878 0.017441 0.006443 -0.306957
C34   C     C_R   0.568567 0.989049 0.004990 -0.284905
C35   C     C_R   0.062829 0.516877 0.993576 -0.297647
C36   C     C_R   0.930981 0.488795 0.994238 -0.275487
H5    H     H_    0.379906 0.124491 0.846637 0.132006
H6    H     H_    0.637069 0.024975 0.167566 0.103074
H7    H     H_    0.119014 0.622599 0.154090 0.121995
H8    H     H_    0.862798 0.525927 0.831789 0.105916
C37   C     C_R   0.187380 0.005667 0.721461 -0.259686
C38   C     C_R   0.847620 0.979160 0.272817 -0.185561
C39   C     C_R   0.313083 0.506575 0.279251 -0.286492
C40   C     C_R   0.652612 0.479320 0.727448 -0.202988
C41   C     C_R   0.215900 0.995527 0.566107 -0.065866
C42   C     C_R   0.847917 0.966168 0.441563 -0.028060
C43   C     C_R   0.284594 0.495315 0.434967 -0.048436
C44   C     C_R   0.652231 0.466124 0.558779 -0.027313
C45   C     C_R   0.230370 0.005861 0.665779 -0.100078
C46   C     C_R   0.817532 0.965210 0.346916 -0.052814
C47   C     C_R   0.270350 0.508405 0.335418 -0.091580
C48   C     C_R   0.682647 0.464768 0.653332 -0.054707
C49   C     C_R   0.125983 0.987177 0.679703 0.004400
C50   C     C_R   0.914394 0.994033 0.300772 0.071848
C51   C     C_R   0.374362 0.486930 0.321089 0.023408
C52   C     C_R   0.585958 0.495499 0.699820 0.052005
C53   C     C_R   0.105424 0.979930 0.578275 0.050212
C54   C     C_R   0.948052 0.987375 0.399888 0.063753
C55   C     C_R   0.394904 0.480403 0.422652 0.043150
C56   C     C_R   0.552243 0.488645 0.600776 0.072075
C57   C     C_R   0.150042 0.988458 0.520090 0.031877
C58   C     C_R   0.911501 0.986019 0.468821 0.058641
C59   C     C_R   0.350363 0.489302 0.481026 0.028349
C60   C     C_R   0.588726 0.486746 0.531730 0.056921
C61   C     C_R   0.040755 0.973101 0.533729 0.065633
C62   C     C_R   0.015965 0.982808 0.437809 0.041908
C63   C     C_R   0.459522 0.473834 0.467136 0.062421
C64   C     C_R   0.484341 0.484142 0.563025 0.045845
C65   C     C_R   0.060534 0.962674 0.387023 -0.306396
C66   C     C_R   0.999806 0.932247 0.584719 -0.163360
C67   C     C_R   0.439811 0.464432 0.613968 -0.307499
C68   C     C_R   0.500379 0.432643 0.416108 -0.162668
C69   C     C_R   0.123907 0.991013 0.420642 -0.003107
C70   C     C_R   0.940863 0.982547 0.564887 -0.081934
C71   C     C_R   0.376518 0.493653 0.580553 0.000029
C72   C     C_R   0.559316 0.483264 0.435738 -0.082494
H9    H     H_    0.045035 0.914840 0.319603 0.156042
H10   H     H_    0.015542 0.863411 0.644776 0.195216
H11   H     H_    0.455275 0.416186 0.681305 0.160434
H12   H     H_    0.484574 0.363659 0.356106 0.194179
C73   C     C_2   0.606742 0.990637 0.821410 0.558472
H13   H     H_    0.635712 0.097783 0.812074 0.067097
O21   O     O_2   0.623822 0.843404 0.812421 -0.585634
C74   C     C_2   0.405570 0.968890 0.195387 0.391257
H14   H     H_    0.380957 0.866893 0.154902 0.099479
O22   O     O_2   0.383916 0.029095 0.256942 -0.600300
C75   C     C_2   0.891664 0.481597 0.177554 0.581892
H15   H     H_    0.858091 0.582381 0.166007 0.066944
O23   O     O_2   0.879028 0.344796 0.209891 -0.598001
C76   C     C_2   0.094315 0.470998 0.804251 0.391951
H16   H     H_    0.119296 0.370049 0.844851 0.099168
O24   O     O_2   0.115635 0.531506 0.742414 -0.602322
C77   C     C_2   0.518673 0.052643 0.662768 0.457814
H17   H     H_    0.491780 0.975287 0.608963 0.014728
O25   O     O_2   0.564284 0.121797 0.647892 -0.618280
C78   C     C_2   0.509395 0.009380 0.359220 0.463724
H18   H     H_    0.543063 0.941011 0.409341 0.005616
O26   O     O_2   0.469816 0.086050 0.386262 -0.585636
C79   C     C_2   0.979067 0.552825 0.336356 0.492440
H19   H     H_    0.006157 0.478956 0.391349 0.008121
O27   O     O_2   0.932840 0.620383 0.349684 -0.611760
C80   C     C_2   0.990512 0.508242 0.640392 0.465622
H20   H     H_    0.957060 0.437991 0.590642 0.004996
O28   O     O_2   0.029766 0.585891 0.612872 -0.586397
C81   C     C_R   0.158027 0.026286 0.345745 0.117438
C82   C     C_R   0.206547 0.138736 0.359817 0.023218
C83   C     C_R   0.250266 0.132477 0.306316 -0.104415
C84   C     C_R   0.239937 0.034028 0.228246 0.034361
C85   C     C_R   0.183781 0.956252 0.199276 -0.116396
C86   C     C_R   0.144141 0.947649 0.258829 -0.296647
H21   H     H_    0.215704 0.208352 0.420199 0.132629
H22   H     H_    0.294626 0.186894 0.331053 0.177472
H23   H     H_    0.276449 0.016371 0.193387 0.187646
H24   H     H_    0.172796 0.885768 0.135852 0.176671
H25   H     H_    0.104133 0.876057 0.235419 0.152498
C87   C     C_R   0.915002 0.012914 0.650595 0.091476
C88   C     C_R   0.880751 0.158757 0.661737 -0.136782
C89   C     C_R   0.855955 0.174147 0.740999 -0.024738
C90   C     C_R   0.865619 0.053386 0.810498 -0.165991
C91   C     C_R   0.902882 0.916732 0.804471 -0.132577
C92   C     C_R   0.928137 0.899695 0.727073 -0.101068
H26   H     H_    0.873178 0.257554 0.609137 0.144509
H27   H     H_    0.832700 0.283458 0.755498 0.145444
H28   H     H_    0.848256 0.073463 0.871901 0.178121
H29   H     H_    0.917241 0.836551 0.864180 0.140467
H30   H     H_    0.964369 0.814081 0.735038 0.146249
C93   C     C_R   0.342461 0.528388 0.655832 0.112386
C94   C     C_R   0.294206 0.641484 0.642979 -0.051859
C95   C     C_R   0.249283 0.628106 0.694502 -0.045700
C96   C     C_R   0.258616 0.523413 0.770420 0.056955
C97   C     C_R   0.314367 0.444249 0.798775 -0.113340
C98   C     C_R   0.355735 0.445943 0.741682 -0.287442
H31   H     H_    0.285230 0.711715 0.583009 0.127426
H32   H     H_    0.205175 0.684047 0.670191 0.169489
H33   H     H_    0.222139 0.503403 0.805134 0.178629
H34   H     H_    0.324104 0.369455 0.860617 0.175947
H35   H     H_    0.395949 0.375401 0.764849 0.153009
C99   C     C_R   0.585143 0.513331 0.349959 0.091440
C100  C     C_R   0.619368 0.659393 0.338602 -0.136366
C101  C     C_R   0.644065 0.674594 0.259211 -0.025254
C102  C     C_R   0.634297 0.553416 0.189795 -0.168243
C103  C     C_R   0.596994 0.416608 0.196011 -0.130877
C104  C     C_R   0.571876 0.399737 0.273555 -0.100787
H36   H     H_    0.626932 0.758569 0.391098 0.144319
H37   H     H_    0.667269 0.784092 0.244498 0.145219
H38   H     H_    0.651578 0.573311 0.128290 0.177364
H39   H     H_    0.582511 0.336103 0.136370 0.140546
H40   H     H_    0.535669 0.313819 0.265853 0.145268
C105  C     C_R   0.947840 0.028001 0.226855 0.119844
C106  C     C_R   0.992389 0.157110 0.239278 -0.074788
C107  C     C_R   0.033607 0.166108 0.182135 -0.098017
C108  C     C_R   0.028005 0.055316 0.107784 -0.158890
C109  C     C_R   0.979131 0.940519 0.087500 -0.116051
C110  C     C_R   0.938889 0.927613 0.146610 -0.109620
H41   H     H_    0.000526 0.233620 0.300940 0.105979
H42   H     H_    0.072675 0.249228 0.199503 0.199502
H43   H     H_    0.063082 0.056726 0.068554 0.140739
H44   H     H_    0.973713 0.856675 0.028182 0.114391
H45   H     H_    0.903288 0.832849 0.131995 0.097032
C111  C     C_R   0.086584 0.004937 0.749024 0.043833
C112  C     C_R   0.045314 0.138335 0.741849 -0.207305
C113  C     C_R   0.011200 0.157654 0.808867 -0.105375
C114  C     C_R   0.022251 0.063710 0.888109 -0.131410
C115  C     C_R   0.061528 0.926217 0.895891 -0.135468
C116  C     C_R   0.090579 0.890984 0.824209 -0.069823
H46   H     H_    0.037356 0.218329 0.681502 0.127678
H47   H     H_    0.971826 0.233925 0.797965 0.170039
H48   H     H_    0.993667 0.086939 0.935980 0.134879
H49   H     H_    0.066856 0.844415 0.955223 0.137744
H50   H     H_    0.118178 0.779722 0.830192 0.185990
C117  C     C_R   0.552698 0.530313 0.773930 0.132060
C118  C     C_R   0.508244 0.659154 0.761358 -0.086615
C119  C     C_R   0.466553 0.667266 0.817828 -0.093539
C120  C     C_R   0.471899 0.556595 0.892144 -0.148972
C121  C     C_R   0.520881 0.442745 0.912900 -0.124860
C122  C     C_R   0.561495 0.430609 0.854362 -0.094649
H51   H     H_    0.500302 0.734978 0.699658 0.097971
H52   H     H_    0.427293 0.749252 0.799779 0.192799
H53   H     H_    0.436608 0.557243 0.931021 0.143445
H54   H     H_    0.526123 0.358860 0.972125 0.113214
H55   H     H_    0.597228 0.336763 0.869704 0.091594
C123  C     C_R   0.413705 0.504195 0.251708 0.049435
C124  C     C_R   0.455057 0.637746 0.258750 -0.209949
C125  C     C_R   0.488990 0.657145 0.191524 -0.106027
C126  C     C_R   0.477663 0.563257 0.112221 -0.133287
C127  C     C_R   0.438342 0.425553 0.104569 -0.134046
C128  C     C_R   0.409478 0.390035 0.176483 -0.063560
H56   H     H_    0.463188 0.717918 0.319098 0.127602
H57   H     H_    0.528381 0.733593 0.202223 0.171027
H58   H     H_    0.506045 0.586892 0.064136 0.135277
H59   H     H_    0.432855 0.344060 0.045081 0.137477
H60   H     H_    0.381754 0.278680 0.170633 0.186281
C129  C     C_2   0.751538 0.952587 0.322062 0.428343
H61   H     H_    0.728656 0.987001 0.253961 -0.021818
O29   O     O_2   0.720469 0.911704 0.376144 -0.673148
C130  C     C_2   0.292305 0.019923 0.719058 0.456669
H62   H     H_    0.312389 0.144690 0.724836 -0.012415
O30   O     O_2   0.316373 0.902710 0.768510 -0.604332
C131  C     C_2   0.748621 0.451704 0.678052 0.430643
H63   H     H_    0.771555 0.485860 0.746189 -0.023811
O31   O     O_2   0.779609 0.411151 0.623820 -0.672804
C132  C     C_2   0.209351 0.533630 0.282011 0.454042
H64   H     H_    0.201126 0.652159 0.245223 -0.005609
O32   O     O_2   0.170464 0.422499 0.273945 -0.619750
C133  C     C_R   0.272854 0.990797 0.520191 0.094486
C134  C     C_R   0.326621 0.089790 0.551099 -0.192960
C135  C     C_R   0.380604 0.057325 0.523617 -0.107651
C136  C     C_R   0.384264 0.921978 0.465410 0.058926
C137  C     C_R   0.331468 0.857214 0.416227 -0.107401
C138  C     C_R   0.278069 0.878947 0.447329 -0.225440
H65   H     H_    0.331921 0.190003 0.599407 0.099919
H66   H     H_    0.419136 0.139265 0.547337 0.139548
H67   H     H_    0.426503 0.873804 0.453281 0.131438
H68   H     H_    0.332122 0.792734 0.353173 0.156217
H69   H     H_    0.240927 0.821380 0.406135 0.126655
C139  C     C_R   0.812282 0.935728 0.513860 0.131919
C140  C     C_R   0.772701 0.063717 0.531727 0.004243
C141  C     C_R   0.737197 0.038755 0.597267 -0.064693
C142  C     C_R   0.750595 0.902267 0.658720 -0.156410
C143  C     C_R   0.797332 0.789775 0.650572 -0.064883
C144  C     C_R   0.823525 0.793144 0.573235 -0.162185
H70   H     H_    0.774212 0.185705 0.498282 0.157254
H71   H     H_    0.703576 0.132422 0.606431 0.152007
H72   H     H_    0.728585 0.892356 0.716535 0.169003
H73   H     H_    0.815890 0.707898 0.707086 0.134860
H74   H     H_    0.857288 0.698152 0.565055 0.134246
C145  C     C_R   0.227614 0.492290 0.480678 0.112760
C146  C     C_R   0.173703 0.589712 0.447917 -0.116393
C147  C     C_R   0.119580 0.557689 0.475194 -0.107234
C148  C     C_R   0.115620 0.423181 0.533782 0.063343
C149  C     C_R   0.168156 0.357671 0.583221 -0.119865
C150  C     C_R   0.221968 0.380733 0.553426 -0.240305
H75   H     H_    0.168117 0.683480 0.395333 0.092262
H76   H     H_    0.080901 0.637637 0.450065 0.127983
H77   H     H_    0.073177 0.374700 0.545153 0.131269
H78   H     H_    0.167045 0.291186 0.645564 0.155438
H79   H     H_    0.258810 0.322576 0.595139 0.135414
C151  C     C_R   0.687729 0.435576 0.486360 0.134320
C152  C     C_R   0.727267 0.563813 0.468332 -0.001966
C153  C     C_R   0.762641 0.539032 0.402634 -0.060605
C154  C     C_R   0.749122 0.402339 0.341202 -0.148568
C155  C     C_R   0.702405 0.289526 0.349515 -0.070675
C156  C     C_R   0.676330 0.292837 0.426970 -0.161254
H80   H     H_    0.725669 0.686026 0.501557 0.157344
H81   H     H_    0.796192 0.633038 0.393275 0.153964
H82   H     H_    0.770961 0.392591 0.283218 0.174028
H83   H     H_    0.683775 0.207477 0.293000 0.135650
H84   H     H_    0.642523 0.197722 0.435199 0.133878

loop_
_geom_bond_atom_site_label_1
_geom_bond_atom_site_label_2
_geom_bond_distance
_ccdc_geom_bond_type
O17   V3    1.854421 S    
C12   C76   1.488457 S    
C85   H24   1.072127 S    
C56   C64   1.520901 A    
O1    C5    1.396614 A    
C95   C96   1.368709 A    
C12   C32   1.457827 A    
C81   C82   1.376390 A    
C27   C31   1.458121 A    
O19   V1    1.854825 S    
C148  H77   1.073811 S    
O13   V1    2.087056 S    
C119  C120  1.381810 A    
C51   C55   1.488439 A    
C63   C64   1.424219 A    
C1    C40   1.628710 S    
C68   C72   1.358974 A    
C4    C37   1.547729 S    
O15   V3    2.086155 S    
C130  H62   1.056235 S    
C76   O24   1.216481 D    
C74   O22   1.216485 D    
C88   C89   1.412465 A    
C3    C38   1.632251 S    
C14   C78   1.479033 S    
C83   C84   1.365806 A    
C23   C27   1.377024 A    
C109  C110  1.393691 A    
C139  C140  1.392597 A    
O7    C3    1.441826 A    
C65   C69   1.431750 A    
C31   C36   1.406582 A    
C22   C26   1.388652 A    
C43   C47   1.454159 A    
C21   H5    1.063881 S    
C154  H82   1.082212 S    
C32   C35   1.456822 A    
O9    V1    2.107698 S    
C94   C95   1.396930 A    
C89   C90   1.374369 A    
C43   C145  1.575948 S    
C86   H25   1.053174 S    
C73   O21   1.212628 D    
C97   C98   1.387605 A    
C26   C30   1.466552 A    
O4    C8    1.414579 A    
C21   C25   1.378726 A    
C38   C46   1.414847 A    
C125  H57   1.049889 S    
C16   C80   1.479459 S    
C123  C128  1.410300 A    
C118  H51   1.071901 S    
C145  C146  1.428064 A    
O1    V3    2.082870 S    
C136  C137  1.357608 A    
H4    C19   1.060030 S    
O2    V4    2.082871 S    
C147  C148  1.368034 A    
C14   C18   1.380979 A    
C13   C77   1.491161 S    
O3    V1    2.081561 S    
C131  H63   1.071829 S    
C114  H48   1.071431 S    
C58   C70   1.447396 A    
C5    C36   1.546162 S    
C54   C62   1.521649 A    
C90   C91   1.361675 A    
C61   C62   1.424459 A    
C6    C35   1.610255 S    
C10   C30   1.456958 A    
C37   C45   1.401517 A    
C112  H46   1.073445 S    
C1    O15   1.433174 A    
C7    C34   1.551176 S    
C55   C59   1.461258 A    
C103  C104  1.394183 A    
C56   C60   1.444907 A    
C2    O16   1.403362 A    
C118  C119  1.387880 A    
C75   O23   1.214864 D    
C55   C63   1.473873 A    
C153  H81   1.076239 S    
O2    C6    1.416235 A    
C102  H38   1.078357 S    
C28   C36   1.427593 A    
C79   H19   1.077901 S    
O14   V2    2.087056 S    
C143  H73   1.065653 S    
C133  C134  1.425382 A    
C141  C142  1.384730 A    
C49   C111  1.502430 S    
C41   C133  1.577573 S    
C88   H26   1.079507 S    
C24   H8    1.074612 S    
C43   C59   1.502827 A    
C141  H71   1.076313 S    
C42   C139  1.490192 S    
C2    C39   1.555093 S    
C30   C33   1.455439 A    
O11   C7    1.405830 A    
C124  H56   1.073395 S    
C100  H36   1.079550 S    
C85   C86   1.386210 A    
C81   C86   1.403591 A    
O12   C8    1.414439 A    
C92   H30   1.038605 S    
C154  C155  1.390193 A    
C76   H16   1.070932 S    
H1    C18   1.075670 S    
O18   V2    2.342741 S    
C127  H59   1.070760 S    
C101  H37   1.038143 S    
C70   C87   1.527737 S    
O10   V2    2.107696 S    
H3    C20   1.075767 S    
C39   C47   1.402200 A    
C74   H14   1.070950 S    
C116  H50   1.052119 S    
C106  C107  1.387067 A    
O5    V1    2.109114 S    
C103  H39   1.075912 S    
C52   C117  1.482579 S    
O17   V1    2.342742 S    
C83   H22   1.077356 S    
C156  H84   1.081692 S    
C68   H12   1.036400 S    
O7    V3    2.107357 S    
C120  C121  1.395576 A    
O19   V3    2.342168 S    
C147  H76   1.071357 S    
O8    V4    2.107356 S    
C102  C103  1.361794 A    
C52   C56   1.514432 A    
O20   V4    2.342169 S    
C91   C92   1.394174 A    
C67   C71   1.431451 A    
C54   C58   1.444588 A    
C15   C79   1.490959 S    
C100  C101  1.412802 A    
C155  C156  1.399863 A    
C140  C141  1.398827 A    
C25   C29   1.457141 A    
C127  C128  1.391281 A    
C87   C88   1.392435 A    
C19   C23   1.393215 A    
C26   C34   1.428071 A    
C62   C65   1.387584 A    
C29   C34   1.410727 A    
O3    C7    1.396012 A    
C142  H72   1.082422 S    
C98   H35   1.053738 S    
C138  H69   1.030419 S    
O6    V2    2.109115 S    
O4    V2    2.081559 S    
C114  C115  1.370533 A    
C27   C35   1.456161 A    
C111  C112  1.376246 A    
C136  H67   1.073615 S    
C122  H55   1.072338 S    
C106  H41   1.073480 S    
C80   O28   1.208201 D    
C133  C138  1.408211 A    
C79   O27   1.219444 D    
C47   C132  1.454798 S    
O5    C1    1.441954 A    
C84   H23   1.070448 S    
C64   C67   1.387861 A    
C129  H61   1.072170 S    
C22   H6    1.074872 S    
C152  H80   1.065772 S    
C45   C130  1.462474 S    
C80   H20   1.085495 S    
C124  C125  1.389166 A    
C17   C21   1.391369 A    
O8    C4    1.416429 A    
C11   C31   1.451410 A    
C146  C147  1.387572 A    
C4    O14   1.402424 A    
O9    C5    1.403580 A    
H2    C17   1.059852 S    
C23   H7    1.061562 S    
C115  H49   1.071228 S    
C153  C154  1.384547 A    
C132  O32   1.212407 D    
C105  C110  1.401190 A    
C77   H17   1.077850 S    
C40   C52   1.481964 A    
C99   C104  1.415723 A    
C113  H47   1.050360 S    
C44   C60   1.416725 A    
C8    C33   1.606086 S    
C137  H68   1.064473 S    
C71   C93   1.509186 S    
C101  C102  1.374512 A    
C131  O31   1.214111 D    
C12   C16   1.438065 A    
C94   H31   1.027702 S    
C149  H78   1.064917 S    
C11   C75   1.485137 S    
C120  H53   1.077951 S    
C72   C99   1.527853 S    
C96   C97   1.384697 A    
C117  C122  1.401710 A    
C113  C114  1.362406 A    
C134  C135  1.387235 A    
C25   C33   1.452573 A    
C149  C150  1.388828 A    
C82   H21   1.029605 S    
C143  C144  1.399837 A    
C78   O26   1.208092 D    
C107  H42   1.075985 S    
O16   V4    2.086155 S    
C112  C113  1.389533 A    
C145  C150  1.408345 A    
C3    O13   1.435158 A    
C135  C136  1.367467 A    
C53   C57   1.460356 A    
C87   C92   1.415920 A    
C57   C69   1.476731 A    
C93   C98   1.403237 A    
C63   C68   1.349344 A    
C9    C73   1.478557 S    
C155  H83   1.065573 S    
C96   H33   1.070523 S    
C44   C48   1.433445 A    
C59   C71   1.478079 A    
C84   C85   1.387024 A    
C130  O30   1.219186 D    
O6    C2    1.418415 A    
C111  C116  1.410251 A    
C109  H44   1.079496 S    
O11   V3    2.110115 S    
C82   C83   1.392311 A    
O18   V4    1.854421 S    
C69   C81   1.505816 S    
O12   V4    2.110117 S    
C89   H27   1.037733 S    
C67   H11   1.058819 S    
C104  H40   1.038198 S    
C18   C22   1.365072 A    
C66   H10   1.037230 S    
C13   C17   1.379041 A    
C151  C156  1.398791 A    
C126  H58   1.070910 S    
C115  C116  1.390713 A    
C42   C58   1.417460 A    
C139  C144  1.398857 A    
C90   H28   1.078197 S    
C150  H79   1.032428 S    
C65   H9    1.058186 S    
C40   C48   1.414742 A    
C66   C70   1.359667 A    
C73   H13   1.078064 S    
C50   C54   1.515065 A    
O10   C6    1.414925 A    
C75   H15   1.073782 S    
C99   C100  1.392430 A    
C15   C19   1.378028 A    
C44   C151  1.489913 S    
C126  C127  1.370311 A    
C137  C138  1.389075 A    
C61   C66   1.349533 A    
C50   C105  1.481531 S    
O20   V2    1.854825 S    
C128  H60   1.052777 S    
C144  H74   1.081637 S    
C148  C149  1.358229 A    
C119  H52   1.076709 S    
C117  C118  1.396424 A    
C110  H45   1.072602 S    
C123  C124  1.376262 A    
C48   C131  1.462967 S    
C9    C13   1.396362 A    
C132  H64   1.060121 S    
C38   C50   1.483680 A    
C9    C29   1.448540 A    
C77   O25   1.219142 D    
C51   C123  1.501747 S    
C37   C49   1.404634 A    
C151  C152  1.392323 A    
C60   C72   1.446615 A    
C46   C129  1.462926 S    
C41   C57   1.504576 A    
C107  C108  1.381421 A    
C10   C14   1.437325 A    
C16   C20   1.380579 A    
C20   C24   1.364473 A    
C53   C61   1.475010 A    
C28   C32   1.466582 A    
C125  C126  1.361926 A    
C11   C15   1.395435 A    
C121  H54   1.079568 S    
C129  O29   1.213975 D    
C105  C106  1.397088 A    
C42   C46   1.434446 A    
C108  H43   1.077518 S    
C152  C153  1.398651 A    
C93   C94   1.377518 A    
C41   C45   1.454538 A    
C97   H34   1.069730 S    
C134  H65   1.043543 S    
C39   C51   1.403964 A    
C121  C122  1.393507 A    
C91   H29   1.075968 S    
C146  H75   1.052982 S    
C10   C74   1.489168 S    
C95   H32   1.077501 S    
C135  H66   1.072435 S    
C49   C53   1.486652 A    
C108  C109  1.395626 A    
C24   C28   1.388351 A    
C142  C143  1.390348 A    
C78   H18   1.085599 S    
C140  H70   1.065879 S    
