data_mof_unit_25624.cif
_audit_creation_date              2012-12-11T14:38:26-0500
_audit_creation_method            fapswitch 2.2
_symmetry_space_group_name_H-M    P1
_symmetry_Int_Tables_number       1
_space_group_crystal_system       triclinic
_cell_length_a                    19.627944
_cell_length_b                    11.081342
_cell_length_c                    19.627605
_cell_angle_alpha                 90.145038
_cell_angle_beta                  97.003834
_cell_angle_gamma                 90.400563
_cell_volume                      4237.09772984

loop_
_atom_site_label
_atom_site_type_symbol
_atom_type_description
_atom_site_fract_x
_atom_site_fract_y
_atom_site_fract_z
_atom_type_partial_charge
C1    C     C_R   0.724195 0.955254 0.360904 0.555413
C2    C     C_3   0.175970 0.483934 0.469251 -0.210913
C3    C     C_2   0.080349 0.762888 0.917459 0.245510
C4    C     C_3   0.324129 0.985259 0.531253 -0.209108
C5    C     C_3   0.675800 0.983578 0.469183 -0.210218
C6    C     C_3   0.762584 0.292102 0.553768 -0.263069
C7    C     C_3   0.236193 0.293420 0.445830 -0.262294
C8    C     C_3   0.263384 0.793283 0.553620 -0.263622
C9    C     C_3   0.736212 0.793230 0.445868 -0.262018
C10   C     C_3   0.762406 0.427311 0.566586 0.066176
C11   C     C_3   0.236802 0.428776 0.433688 0.063394
C12   C     C_3   0.263133 0.928574 0.566390 0.065705
C13   C     C_R   0.275746 0.955197 0.639189 0.543754
C14   C     C_3   0.736753 0.928600 0.433670 0.063003
C15   C     C_3   0.746956 0.392267 0.435088 0.053904
C16   C     C_3   0.252651 0.393175 0.565067 0.055421
C17   C     C_3   0.247521 0.893340 0.434922 0.054653
C18   C     C_3   0.752482 0.893244 0.565083 0.055847
C19   C     C_3   0.807241 0.479724 0.452937 -0.256065
C20   C     C_3   0.192196 0.479145 0.547719 -0.257587
C21   C     C_3   0.308073 0.980608 0.452751 -0.258350
C22   C     C_3   0.691878 0.978799 0.547674 -0.256632
C23   C     C_3   0.764914 0.274783 0.476835 -0.221543
C24   C     C_R   0.224182 0.455345 0.360924 0.555782
C25   C     C_3   0.234651 0.275466 0.522770 -0.221920
C26   C     C_3   0.265349 0.775847 0.476705 -0.221390
C27   C     C_3   0.734536 0.775491 0.522813 -0.222192
C28   C     C_3   0.434928 0.290825 0.971951 -0.215752
C29   C     C_3   0.463203 0.293916 0.047675 -0.201212
C30   C     C_3   0.934907 0.790808 0.971956 -0.216180
C31   C     C_3   0.963191 0.793909 0.047679 -0.200962
C32   C     C_3   0.428516 0.065878 0.970755 -0.231388
C33   C     C_3   0.563606 0.162084 0.028806 -0.226702
C34   C     C_3   0.928528 0.565860 0.970755 -0.231705
C35   C     C_R   0.775441 0.454521 0.639391 0.537401
C36   C     C_3   0.063603 0.662091 0.028812 -0.226981
C37   C     C_3   0.541024 0.165986 0.950992 -0.073693
C38   C     C_3   0.452005 0.063748 0.049607 -0.090954
C39   C     C_3   0.041025 0.666027 0.950999 -0.074099
C40   C     C_3   0.952007 0.563739 0.049609 -0.090756
C41   C     C_R   0.536102 0.180160 0.338575 0.538516
C42   C     C_R   0.463898 0.180355 0.661426 0.539992
C43   C     C_R   0.035059 0.680121 0.337781 0.538111
C44   C     C_R   0.939311 0.683107 0.652144 0.541192
C45   C     C_3   0.460894 0.176635 0.937252 0.032626
C46   C     C_3   0.680574 0.447427 0.457159 -0.232518
C47   C     C_3   0.500672 0.173535 0.069199 0.042281
C48   C     C_3   0.960892 0.676637 0.937255 0.031107
C49   C     C_3   0.000668 0.673533 0.069203 0.042548
C50   C     C_1   0.761080 0.423238 0.903266 -0.003085
C51   C     C_1   0.219560 0.473180 0.085564 -0.003123
C52   C     C_1   0.261082 0.923243 0.903268 -0.002477
C53   C     C_1   0.719561 0.973179 0.085564 -0.003151
C54   C     C_1   0.745621 0.400317 0.032966 0.013628
C55   C     C_1   0.242273 0.435524 0.958561 -0.039396
C56   C     C_1   0.245623 0.900324 0.032968 0.013508
C57   C     C_3   0.318907 0.450236 0.543144 -0.232443
C58   C     C_1   0.742272 0.935526 0.958560 -0.039643
C59   C     C_1   0.752115 0.410113 0.962424 -0.002018
C60   C     C_1   0.230389 0.457046 0.027062 -0.031846
C61   C     C_1   0.252118 0.910120 0.962426 -0.002200
C62   C     C_1   0.730389 0.957046 0.027062 -0.031795
C63   C     C_1   0.741446 0.387566 0.093251 0.019371
C64   C     C_1   0.252069 0.408828 0.900981 -0.014282
C65   C     C_1   0.241448 0.887572 0.093252 0.019439
C66   C     C_1   0.752068 0.908830 0.900979 -0.015338
C67   C     C_R   0.738771 0.359939 0.362127 0.543562
C68   C     C_3   0.181277 0.948870 0.456989 -0.232797
C69   C     C_R   0.261164 0.360438 0.637952 0.540496
C70   C     C_R   0.238974 0.860486 0.361971 0.543375
C71   C     C_R   0.761108 0.860544 0.637987 0.535238
C72   C     C_R   0.705521 0.996187 0.154493 0.554585
C73   C     C_R   0.277721 0.953395 0.836315 0.531236
C74   C     C_R   0.205521 0.496188 0.154493 0.554595
C75   C     C_R   0.777720 0.453393 0.836314 0.530732
C76   C     C_R   0.529031 0.178840 0.142308 0.528277
C77   C     C_R   0.438103 0.182421 0.862859 0.536693
C78   C     C_R   0.029028 0.678839 0.142310 0.527780
C79   C     C_3   0.818651 0.950654 0.543173 -0.232197
C80   C     C_R   0.938103 0.682422 0.862859 0.539094
C81   C     C_R   0.735354 0.356575 0.163034 0.540287
C82   C     C_R   0.263454 0.361166 0.835322 0.538099
C83   C     C_R   0.235354 0.856576 0.163035 0.540148
C84   C     C_R   0.763454 0.861167 0.835322 0.538391
C85   C     C_1   0.485276 0.172751 0.594347 -0.031471
C86   C     C_1   0.514775 0.172564 0.405672 -0.028811
C87   C     C_1   0.960530 0.676118 0.584924 -0.036533
C88   C     C_1   0.007449 0.672521 0.401892 -0.026978
C89   C     C_1   0.504450 0.169397 0.464892 -0.068479
C90   C     C_3   0.823156 0.483852 0.531332 -0.207109
C91   C     C_1   0.495629 0.169480 0.535133 -0.068940
C92   C     C_1   0.990611 0.670461 0.458853 -0.064447
C93   C     C_1   0.974688 0.672173 0.526956 -0.068021
C94   C     C_3   0.690375 0.471100 0.534508 -0.237940
C95   C     C_3   0.309091 0.473338 0.465851 -0.238354
C96   C     C_3   0.191011 0.971989 0.534336 -0.238441
C97   C     C_3   0.809018 0.973187 0.465851 -0.237453
C98   C     C_2   0.392215 0.058497 0.091352 0.198149
C99   C     C_2   0.580359 0.262798 0.917427 0.243981
C100  C     C_2   0.892212 0.558489 0.091347 0.198074
Cr1   Cr    Cr6+3 0.765780 0.160710 0.267420 1.014207
Cr2   Cr    Cr6+3 0.383970 0.323720 0.751490 1.022427
Cr3   Cr    Cr6+3 0.116030 0.823720 0.248510 1.021536
Cr4   Cr    Cr6+3 0.883970 0.823720 0.751490 1.021016
Cr5   Cr    Cr6+3 0.234220 0.160710 0.732580 1.027155
Cr6   Cr    Cr6+3 0.265780 0.660710 0.267420 1.014176
Cr7   Cr    Cr6+3 0.734220 0.660710 0.732580 1.019804
Cr8   Cr    Cr6+3 0.612200 0.009560 0.248850 1.010842
Cr9   Cr    Cr6+3 0.387800 0.009560 0.751150 1.012060
Cr10  Cr    Cr6+3 0.112200 0.509560 0.248850 1.010873
Cr11  Cr    Cr6+3 0.887800 0.509560 0.751150 1.013722
Cr12  Cr    Cr6+3 0.616030 0.323720 0.248510 1.021510
H1    H     H_    0.682226 0.565887 0.545211 0.132699
H2    H     H_    0.129170 0.427452 0.454896 0.139454
H3    H     H_    0.370869 0.929837 0.545445 0.140541
H4    H     H_    0.629076 0.926933 0.454770 0.139519
H5    H     H_    0.853655 0.449827 0.430243 0.131294
H6    H     H_    0.145897 0.447508 0.570331 0.132423
H7    H     H_    0.354378 0.950187 0.430054 0.130567
H8    H     H_    0.645591 0.946805 0.570182 0.130454
H9    H     H_    0.377833 0.289833 0.966827 0.130523
H10   H     H_    0.499605 0.371680 0.055647 0.168454
H11   H     H_    0.877813 0.789779 0.966839 0.130693
H12   H     H_    0.318014 0.567959 0.455201 0.131075
H13   H     H_    0.999591 0.871677 0.055645 0.168546
H14   H     H_    0.450086 0.375738 0.947578 0.188728
H15   H     H_    0.421244 0.311920 0.079497 0.174071
H16   H     H_    0.950043 0.875732 0.947581 0.188627
H17   H     H_    0.921236 0.811910 0.079506 0.174026
H18   H     H_    0.371702 0.069880 0.959649 0.150389
H19   H     H_    0.601998 0.234390 0.045105 0.153695
H20   H     H_    0.871715 0.569828 0.959640 0.150458
H21   H     H_    0.101999 0.734385 0.045122 0.153620
H22   H     H_    0.555540 0.078473 0.928882 0.090349
H23   H     H_    0.182402 0.066460 0.545346 0.132416
H24   H     H_    0.481676 0.979399 0.061147 0.096500
H25   H     H_    0.055558 0.578537 0.928874 0.091401
H26   H     H_    0.981680 0.479394 0.061155 0.096586
H27   H     H_    0.589981 0.075057 0.041568 0.092465
H28   H     H_    0.444480 0.980477 0.947530 0.127977
H29   H     H_    0.089972 0.575056 0.041563 0.092570
H30   H     H_    0.944513 0.480469 0.947533 0.127987
H31   H     H_    0.649335 0.422964 0.558427 0.117708
H32   H     H_    0.349812 0.425225 0.441854 0.118684
H33   H     H_    0.150093 0.923186 0.558090 0.119254
H34   H     H_    0.818172 0.067629 0.454940 0.130936
H35   H     H_    0.849748 0.924685 0.442071 0.119508
H36   H     H_    0.636644 0.383725 0.444739 0.146229
H37   H     H_    0.362956 0.387940 0.555458 0.146237
H38   H     H_    0.137158 0.885612 0.444401 0.146127
H39   H     H_    0.862845 0.888848 0.555712 0.139516
H40   H     H_    0.667738 0.532951 0.429150 0.118995
H41   H     H_    0.331599 0.536162 0.571343 0.117881
H42   H     H_    0.168722 0.034608 0.429124 0.118852
H43   H     H_    0.831077 0.036792 0.571215 0.118793
H44   H     H_    0.341583 0.075318 0.550023 0.107305
H45   H     H_    0.818693 0.251523 0.470337 0.132433
H46   H     H_    0.658040 0.073136 0.450925 0.106901
H47   H     H_    0.839333 0.573978 0.549862 0.094083
H48   H     H_    0.158363 0.573634 0.451025 0.106119
H49   H     H_    0.294796 0.069515 0.431215 0.112042
H50   H     H_    0.705082 0.067738 0.569857 0.109899
H51   H     H_    0.793725 0.568710 0.431586 0.112577
H52   H     H_    0.205649 0.568142 0.569793 0.110861
H53   H     H_    0.807280 0.247128 0.583318 0.129145
H54   H     H_    0.190999 0.248012 0.416536 0.129680
H55   H     H_    0.308256 0.748394 0.582944 0.128993
H56   H     H_    0.181083 0.250161 0.529662 0.132395
H57   H     H_    0.691077 0.747684 0.416545 0.129534
H58   H     H_    0.714982 0.253350 0.569719 0.108576
H59   H     H_    0.283252 0.255125 0.428950 0.110539
H60   H     H_    0.215988 0.754160 0.569854 0.109378
H61   H     H_    0.783330 0.754840 0.429122 0.111162
H62   H     H_    0.731011 0.201995 0.456935 0.124897
H63   H     H_    0.269081 0.203771 0.541795 0.124237
H64   H     H_    0.231132 0.703232 0.457037 0.124827
H65   H     H_    0.768920 0.704118 0.542001 0.120373
H66   H     H_    0.392503 0.993059 0.132426 0.117000
H67   H     H_    0.319008 0.752104 0.469984 0.132582
H68   H     H_    0.609247 0.238618 0.875713 0.109335
H69   H     H_    0.892501 0.493067 0.132429 0.116956
H70   H     H_    0.109265 0.738748 0.875761 0.113104
H71   H     H_    0.680998 0.749914 0.529678 0.132770
H72   H     H_    0.870201 0.429270 0.545655 0.140982
O1    O     O_R   0.783100 0.287550 0.345460 -0.530380
O2    O     O_R   0.454350 0.284910 0.836260 -0.493030
O3    O     O_R   0.045650 0.784910 0.163740 -0.520227
O4    O     O_R   0.954350 0.784910 0.836260 -0.488227
O5    O     O_R   0.677950 0.374280 0.185410 -0.487232
O6    O     O_R   0.322050 0.374280 0.814590 -0.514795
O7    O     O_R   0.177950 0.874280 0.185410 -0.487285
O8    O     O_R   0.822050 0.874280 0.814590 -0.514208
O9    O     O_3   0.664670 0.164660 0.254930 -0.279479
O10   O     O_3   0.335330 0.164660 0.745070 -0.278292
O11   O     O_3   0.164670 0.664660 0.254930 -0.278968
O12   O     O_R   0.216900 0.287550 0.654540 -0.529898
O13   O     O_3   0.835330 0.664660 0.745070 -0.292445
O14   O     O_R   0.760020 0.037400 0.337700 -0.508794
O15   O     O_R   0.239980 0.037400 0.662300 -0.512716
O16   O     O_R   0.260020 0.537400 0.337700 -0.508656
O17   O     O_R   0.739980 0.537400 0.662300 -0.514382
O18   O     O_R   0.666600 0.921990 0.332020 -0.521087
O19   O     O_R   0.333400 0.921990 0.667980 -0.524255
O20   O     O_R   0.166600 0.421990 0.332020 -0.520939
O21   O     O_R   0.833400 0.421990 0.667980 -0.528294
O22   O     O_R   0.557260 0.082670 0.312540 -0.501757
O23   O     O_R   0.283100 0.787550 0.345460 -0.530465
O24   O     O_R   0.442740 0.082670 0.687460 -0.495240
O25   O     O_R   0.057260 0.582670 0.312540 -0.501983
O26   O     O_R   0.942740 0.582670 0.687460 -0.486470
O27   O     O_R   0.548410 0.285740 0.316480 -0.510476
O28   O     O_R   0.451590 0.285740 0.683520 -0.508891
O29   O     O_R   0.048410 0.785740 0.316480 -0.510574
O30   O     O_R   0.951590 0.785740 0.683520 -0.500923
O31   O     O_R   0.680500 0.375040 0.327000 -0.503245
O32   O     O_R   0.319500 0.375040 0.673000 -0.507029
O33   O     O_R   0.180500 0.875040 0.327000 -0.502890
O34   O     O_R   0.716900 0.787550 0.654540 -0.529955
O35   O     O_R   0.819500 0.875040 0.673000 -0.517757
O36   O     O_R   0.780350 0.286720 0.192720 -0.525606
O37   O     O_R   0.219650 0.286720 0.807280 -0.496528
O38   O     O_R   0.280350 0.786720 0.192720 -0.525735
O39   O     O_R   0.719650 0.786720 0.807280 -0.496390
O40   O     O_R   0.757470 0.036630 0.196110 -0.486854
O41   O     O_R   0.242530 0.036630 0.803890 -0.483030
O42   O     O_R   0.257470 0.536630 0.196110 -0.486916
O43   O     O_R   0.742530 0.536630 0.803890 -0.482421
O44   O     O_R   0.663840 0.921160 0.179280 -0.493108
O45   O     O_R   0.554710 0.081900 0.170950 -0.528579
O46   O     O_R   0.336160 0.921160 0.820720 -0.522156
O47   O     O_R   0.163840 0.421160 0.179280 -0.493102
O48   O     O_R   0.836160 0.421160 0.820720 -0.521853
O49   O     O_2   0.344246 0.128340 0.080882 -0.517783
O50   O     O_2   0.579708 0.368010 0.936000 -0.506381
O51   O     O_2   0.844238 0.628317 0.080863 -0.517761
O52   O     O_2   0.079666 0.868090 0.936044 -0.506239
O53   O     O_R   0.445290 0.081900 0.829050 -0.511265
O54   O     O_R   0.054710 0.581900 0.170950 -0.528819
O55   O     O_R   0.945290 0.581900 0.829050 -0.505542
O56   O     O_R   0.545650 0.284910 0.163740 -0.520015

loop_
_geom_bond_atom_site_label_1
_geom_bond_atom_site_label_2
_ccdc_geom_bond_type
C95   H12   S    
C58   C62   S    
Cr5   O12   S    
C46   H40   S    
C39   H25   S    
C17   C26   S    
Cr11  O48   S    
C7    H59   S    
C8    C26   S    
C32   C45   S    
C4    H3    S    
C9    H57   S    
C1    O14   A    
C51   C74   S    
C38   C98   S    
C36   H21   S    
C27   H71   S    
C32   H18   S    
C85   C91   T    
Cr3   O7    S    
C23   H62   S    
C26   H67   S    
C7    C11   S    
C41   C86   S    
Cr2   O2    S    
C71   O34   A    
C63   C81   S    
C34   C40   S    
C50   C59   T    
C80   O55   A    
C83   O7    A    
C28   C29   S    
C47   C76   S    
C32   H28   S    
C68   H42   S    
C52   C61   T    
C30   C31   S    
C22   H50   S    
C65   C83   S    
C54   C63   T    
C10   C94   S    
C11   C95   S    
C40   C49   S    
C72   O40   A    
C87   C93   T    
C11   C24   S    
C90   H47   S    
C71   O35   A    
C49   C78   S    
C20   H52   S    
Cr10  O20   S    
Cr4   O13   S    
Cr12  O31   S    
C41   O22   A    
Cr8   O18   S    
Cr12  O5    S    
C83   O38   A    
C67   O31   A    
C58   C66   T    
C34   H30   S    
C5    C22   S    
C88   C92   T    
Cr1   O9    S    
C18   C79   S    
Cr12  O56   S    
C57   H37   S    
C64   C82   S    
C46   H36   S    
Cr6   O42   S    
C9    H61   S    
C10   C35   S    
Cr5   O41   S    
C89   C91   S    
C44   C87   S    
C5    C14   S    
Cr11  O21   S    
C8    C12   S    
C54   C59   S    
C33   H19   S    
C15   C23   S    
C6    H53   S    
C3    C39   S    
C95   H32   S    
C78   O54   A    
C55   C60   S    
C82   O6    A    
C77   O53   A    
C77   O2    A    
C97   H35   S    
C69   O32   A    
Cr3   O11   S    
C31   C49   S    
Cr1   O1    S    
C1    O18   A    
Cr2   O10   S    
C20   H6    S    
C73   O46   A    
C94   H1    S    
C28   H14   S    
C96   H23   S    
Cr7   O39   S    
Cr8   O45   S    
C25   H56   S    
Cr5   O10   S    
Cr4   O4    S    
C30   H16   S    
C28   C45   S    
C70   O33   A    
C21   H49   S    
C16   C69   S    
C2    C20   S    
Cr12  O27   S    
Cr9   O19   S    
Cr3   O3    S    
Cr8   O22   S    
C52   C73   S    
Cr6   O23   S    
C82   O37   A    
C99   O50   D    
Cr1   O14   S    
C35   O17   A    
Cr8   O44   S    
C35   O21   A    
C70   O23   A    
C81   O36   A    
C57   H41   S    
C86   C89   T    
C69   O12   A    
Cr11  O55   S    
C13   O19   A    
C40   H26   S    
C66   C84   S    
C41   O27   A    
C2    H48   S    
Cr9   O24   S    
C15   C19   S    
C9    C14   S    
Cr4   O35   S    
C40   C100  S    
C96   H33   S    
C8    H55   S    
C3    O52   D    
Cr7   O34   S    
Cr9   O46   S    
C25   H63   S    
C46   C94   S    
C26   H64   S    
C16   C20   S    
C15   C67   S    
C29   H10   S    
C80   O4    A    
Cr9   O10   S    
C43   C88   S    
C42   C85   S    
C19   H51   S    
C12   C13   S    
C42   O24   A    
C100  H69   S    
C81   O5    A    
C38   C47   S    
Cr3   O33   S    
Cr1   O40   S    
Cr2   O32   S    
C4    H44   S    
C7    H54   S    
C29   C47   S    
Cr6   O16   S    
C38   H24   S    
C29   H15   S    
C5    H4    S    
C72   O44   A    
C18   C71   S    
C33   C47   S    
C44   O30   A    
C51   C60   T    
Cr10  O25   S    
C4    C12   S    
C94   H31   S    
C56   C65   T    
C37   C45   S    
C43   O29   A    
C37   C99   S    
C19   H5    S    
C42   O28   A    
C9    C27   S    
C14   C97   S    
Cr7   O13   S    
C98   H66   S    
C6    H58   S    
C79   H39   S    
C30   C48   S    
C16   C25   S    
C36   H29   S    
Cr3   O29   S    
C24   O20   A    
C17   C68   S    
C13   O15   A    
C18   C22   S    
C79   C97   S    
C36   C39   S    
C18   C27   S    
C27   H65   S    
C90   H72   S    
C74   O47   A    
C84   O39   A    
C22   H8    S    
C6    C10   S    
C45   C77   S    
Cr10  O54   S    
Cr7   O17   S    
Cr6   O11   S    
C1    C14   S    
C55   C64   T    
Cr9   O53   S    
C68   C96   S    
C32   C38   S    
C7    C25   S    
C76   O56   A    
C48   C80   S    
C75   O43   A    
Cr11  O26   S    
Cr4   O30   S    
C99   H68   S    
C21   H7    S    
C19   C90   S    
C50   C75   S    
Cr11  O13   S    
C73   O41   A    
C4    C21   S    
C2    H2    S    
Cr1   O36   S    
Cr2   O28   S    
Cr6   O38   S    
C98   O49   D    
C33   H27   S    
Cr5   O37   S    
C6    C23   S    
C23   H45   S    
C92   C93   S    
Cr2   O6    S    
C33   C37   S    
C84   O8    A    
C44   O26   A    
C16   C57   S    
C75   O48   A    
C43   O25   A    
C3    H70   S    
C17   C21   S    
Cr12  O9    S    
Cr10  O11   S    
C68   H38   S    
Cr10  O47   S    
C79   H43   S    
C34   H20   S    
C97   H34   S    
C8    H60   S    
Cr7   O43   S    
Cr5   O15   S    
C10   C90   S    
C34   C48   S    
C30   H11   S    
C24   O16   A    
C53   C62   T    
C74   O42   A    
C5    H46   S    
C57   C95   S    
C76   O45   A    
C31   H13   S    
C37   H22   S    
C12   C96   S    
C100  O51   D    
C2    C11   S    
C78   O3    A    
C28   H9    S    
C15   C46   S    
Cr8   O9    S    
C53   C72   S    
C17   C70   S    
C56   C61   S    
C36   C49   S    
C67   O1    A    
C39   C48   S    
C31   H17   S    
Cr4   O8    S    
