data_mof_unit_9754.cif
_audit_creation_date              2012-12-11T14:13:29-0500
_audit_creation_method            fapswitch 2.2
_symmetry_space_group_name_H-M    P1
_symmetry_Int_Tables_number       1
_space_group_crystal_system       triclinic
_cell_length_a                    17.703804
_cell_length_b                    17.739966
_cell_length_c                    17.563054
_cell_angle_alpha                 89.728509
_cell_angle_beta                  89.683903
_cell_angle_gamma                 88.867021
_cell_volume                      5514.71703645

loop_
_atom_site_label
_atom_site_type_symbol
_atom_type_description
_atom_site_fract_x
_atom_site_fract_y
_atom_site_fract_z
_atom_type_partial_charge
C1    C     C_R   0.606222 0.304050 0.096491 -0.207108
C2    C     C_R   0.181248 0.086693 0.629726 -0.243200
C3    C     C_3   0.664424 0.086832 0.819226 -0.081128
C4    C     C_3   0.907688 0.344261 0.194061 -0.071664
C5    C     C_3   0.383754 0.119677 0.237990 -0.088204
C6    C     C_3   0.092590 0.657275 0.205337 -0.094214
C7    C     C_3   0.644242 0.902896 0.182525 -0.072121
C8    C     C_3   0.261053 0.225441 0.412626 -0.346491
C9    C     C_3   0.746361 0.332650 0.383886 -0.340425
C10   C     C_3   0.706180 0.801671 0.394726 -0.326362
C11   C     C_3   0.253613 0.668289 0.399272 -0.325196
C12   C     C_3   0.332226 0.747949 0.603667 -0.330740
C13   C     C_R   0.892594 0.194475 0.596893 -0.100908
C14   C     C_3   0.771607 0.736633 0.576972 -0.351199
C15   C     C_3   0.666184 0.240751 0.625330 -0.343485
C16   C     C_3   0.207758 0.285714 0.602723 -0.340492
C17   C     C_3   0.614939 0.763940 0.714107 -0.410288
C18   C     C_3   0.146279 0.682856 0.899287 -0.008646
C19   C     C_3   0.372453 0.233454 0.733132 -0.405481
C20   C     C_3   0.854660 0.325762 0.905773 -0.052769
C21   C     C_3   0.672244 0.146344 0.103541 -0.051059
C22   C     C_3   0.207538 0.369653 0.263017 -0.403673
C23   C     C_3   0.315080 0.851946 0.101188 -0.009520
C24   C     C_R   0.819440 0.913301 0.630785 -0.221474
C25   C     C_3   0.756708 0.626122 0.273662 -0.394854
C26   C     C_3   0.089413 0.212070 0.172261 -0.080149
C27   C     C_3   0.686413 0.104174 0.279748 -0.160720
C28   C     C_3   0.914389 0.754032 0.190509 -0.068296
C29   C     C_3   0.323329 0.886051 0.284009 -0.253906
C30   C     C_3   0.113350 0.677180 0.716771 -0.252042
C31   C     C_3   0.766118 0.901938 0.818044 -0.091694
C32   C     C_3   0.893437 0.312764 0.727906 -0.177950
C33   C     C_3   0.238369 0.083735 0.813235 -0.065241
C34   C     C_R   0.085031 0.178320 0.366647 -0.244342
C35   C     C_R   0.195755 0.891954 0.408225 -0.079814
C36   C     C_R   0.912668 0.818545 0.370752 -0.237967
C37   C     C_R   0.804508 0.108295 0.407821 -0.097479
C38   C     C_R   0.596398 0.688096 0.118150 0.605076
C39   C     C_R   0.308178 0.607280 0.108880 0.637837
C40   C     C_R   0.403020 0.311467 0.117333 0.632233
C41   C     C_R   0.692283 0.605422 0.102886 -0.184258
C42   C     C_R   0.692663 0.391788 0.105190 0.631908
C43   C     C_R   0.608668 0.307065 0.895955 0.628886
C44   C     C_R   0.311138 0.402758 0.883292 0.607857
C45   C     C_R   0.391848 0.692001 0.892335 0.635946
C46   C     C_R   0.686043 0.594038 0.877387 0.628785
C47   C     C_R   0.080053 0.163613 0.644765 0.667026
C48   C     C_R   0.814127 0.101168 0.622887 0.602787
C49   C     C_R   0.920568 0.836574 0.644982 0.693516
C50   C     C_R   0.187950 0.895497 0.617724 0.588858
C51   C     C_R   0.104719 0.811671 0.383077 0.587526
C52   C     C_R   0.395633 0.695071 0.102478 -0.196053
C53   C     C_R   0.836048 0.919821 0.355501 0.667105
C54   C     C_R   0.896263 0.188010 0.381613 0.600234
C55   C     C_R   0.161071 0.076764 0.353538 0.692321
C56   C     C_R   0.680606 0.314507 0.117200 -0.254184
C57   C     C_R   0.672407 0.674964 0.131903 -0.143404
C58   C     C_R   0.322287 0.682696 0.125930 -0.296391
C59   C     C_R   0.327646 0.324945 0.134945 -0.159915
C60   C     C_R   0.671223 0.668022 0.855690 -0.144287
C61   C     C_R   0.686204 0.319172 0.884871 -0.266572
C62   C     C_R   0.323911 0.326615 0.870483 -0.150176
C63   C     C_R   0.307675 0.393750 0.103316 -0.190715
C64   C     C_R   0.316204 0.677701 0.875637 -0.290955
C65   C     C_R   0.176089 0.816827 0.624668 -0.167921
C66   C     C_R   0.149172 0.140509 0.675139 -0.180190
C67   C     C_R   0.826313 0.179344 0.633698 -0.143867
C68   C     C_R   0.852197 0.860682 0.677321 -0.212015
C69   C     C_R   0.135967 0.143507 0.319358 -0.209350
C70   C     C_R   0.183484 0.823531 0.376175 -0.168637
C71   C     C_R   0.858606 0.850466 0.325413 -0.184866
C72   C     C_R   0.817438 0.176114 0.373783 -0.158966
C73   C     C_2   0.771589 0.693262 0.763539 0.375481
C74   C     C_R   0.604973 0.690576 0.891549 -0.185071
C75   C     C_2   0.282445 0.787417 0.803498 0.439062
C76   C     C_2   0.213763 0.292019 0.798951 0.417103
C77   C     C_2   0.725323 0.205245 0.819588 0.449352
C78   C     C_2   0.791663 0.277303 0.189462 0.446183
C79   C     C_2   0.299923 0.222190 0.223007 0.380717
C80   C     C_2   0.212570 0.715604 0.198851 0.435554
C81   C     C_2   0.707872 0.786628 0.199553 0.422866
C82   C     C_2   0.250904 0.197800 0.283913 0.326133
C83   C     C_2   0.785057 0.267040 0.274884 0.258706
C84   C     C_2   0.745000 0.812305 0.267388 0.314510
C85   C     C_R   0.696375 0.393629 0.904682 -0.194419
C86   C     C_2   0.221285 0.727477 0.283848 0.249435
C87   C     C_2   0.271189 0.779785 0.718296 0.246871
C88   C     C_2   0.797093 0.744587 0.705496 0.347003
C89   C     C_2   0.735177 0.208554 0.733991 0.242299
C90   C     C_2   0.190518 0.253472 0.730949 0.313218
C91   C     C_2   0.703647 0.711071 0.794458 0.452807
C92   C     C_2   0.257029 0.731199 0.848448 0.502347
C93   C     C_2   0.284849 0.277561 0.820721 0.449816
C94   C     C_2   0.747377 0.265390 0.859945 0.487329
C95   C     C_2   0.733292 0.254343 0.146722 0.480053
C96   C     C_R   0.394052 0.307473 0.898757 -0.186917
C97   C     C_2   0.279528 0.287884 0.189056 0.466684
C98   C     C_2   0.268145 0.741277 0.153007 0.508687
C99   C     C_2   0.720256 0.713941 0.182779 0.433798
C100  C     C_2   0.179594 0.181654 0.263578 0.461927
C101  C     C_2   0.774064 0.196943 0.304807 0.425770
C102  C     C_2   0.821390 0.814144 0.263744 0.443803
C103  C     C_2   0.230828 0.798604 0.310591 0.451802
C104  C     C_2   0.200238 0.770109 0.690867 0.453721
C105  C     C_2   0.810779 0.815482 0.728924 0.462068
C106  C     C_2   0.804822 0.221133 0.703423 0.428036
C107  C     C_R   0.304462 0.604250 0.898367 -0.197885
C108  C     C_2   0.185291 0.177707 0.736900 0.441647
C109  C     C_3   0.528315 0.756372 0.205138 -0.303244
C110  C     C_3   0.229002 0.537254 0.176764 -0.333438
C111  C     C_3   0.480582 0.272867 0.211982 -0.311663
C112  C     C_3   0.763620 0.460691 0.181279 -0.301238
C113  C     C_3   0.540552 0.231128 0.824122 -0.303281
C114  C     C_3   0.246553 0.471828 0.794848 -0.301344
C115  C     C_3   0.461689 0.769885 0.822704 -0.325750
C116  C     C_3   0.722075 0.513946 0.783605 -0.302010
C117  C     C_3   0.018102 0.160838 0.760620 -0.191870
C118  C     C_R   0.107698 0.804432 0.592408 -0.085890
C119  C     C_3   0.852794 0.049852 0.736690 -0.292713
C120  C     C_3   0.977407 0.808454 0.759756 -0.227428
C121  C     C_3   0.152482 0.939356 0.735025 -0.260812
C122  C     C_3   0.059680 0.844520 0.265479 -0.256147
C123  C     C_3   0.838701 0.982616 0.240629 -0.213520
C124  C     C_3   0.942166 0.154232 0.264257 -0.301062
C125  C     C_3   0.186479 0.016041 0.239901 -0.214069
C126  C     C_3   0.875282 0.611295 0.751099 -0.103356
C127  C     C_3   0.340174 0.907614 0.798574 -0.088415
C128  C     C_3   0.098420 0.358845 0.807575 -0.079655
H1    H     H_    0.577909 0.252449 0.085885 0.198561
H2    H     H_    0.236430 0.059694 0.633564 0.181743
H3    H     H_    0.218847 0.691266 0.447238 0.153963
H4    H     H_    0.299215 0.695327 0.609749 0.108889
H5    H     H_    0.390763 0.730772 0.589298 0.170676
H6    H     H_    0.309765 0.782083 0.555078 0.155183
H7    H     H_    0.744227 0.793290 0.584353 0.129998
H8    H     H_    0.727575 0.692751 0.570654 0.149570
H9    H     H_    0.804624 0.739123 0.522664 0.185912
H10   H     H_    0.697663 0.294473 0.630817 0.105780
H11   H     H_    0.605967 0.256469 0.618632 0.167938
H12   H     H_    0.684985 0.211560 0.572277 0.161121
H13   H     H_    0.911574 0.248203 0.576313 0.104756
H14   H     H_    0.251393 0.240205 0.605701 0.115350
H15   H     H_    0.235118 0.339466 0.587109 0.164294
H16   H     H_    0.169128 0.271017 0.555690 0.172353
H17   H     H_    0.569979 0.808645 0.715186 0.193201
H18   H     H_    0.587754 0.707889 0.717746 0.138122
H19   H     H_    0.644035 0.769974 0.658992 0.155931
H20   H     H_    0.148379 0.660436 0.958461 0.166555
H21   H     H_    0.159024 0.636739 0.858013 0.056756
H22   H     H_    0.086596 0.699604 0.887339 0.132485
H23   H     H_    0.422458 0.195108 0.734004 0.186289
H24   H     H_    0.762742 0.937081 0.633194 0.178685
H25   H     H_    0.391647 0.292888 0.733552 0.137401
H26   H     H_    0.344056 0.220902 0.679489 0.158752
H27   H     H_    0.843631 0.349663 0.963078 0.174156
H28   H     H_    0.840857 0.367741 0.860083 0.070300
H29   H     H_    0.916205 0.314939 0.900390 0.137745
H30   H     H_    0.650469 0.157800 0.045427 0.175937
H31   H     H_    0.629553 0.161190 0.148538 0.070902
H32   H     H_    0.681364 0.084656 0.108721 0.130756
H33   H     H_    0.162031 0.412652 0.254376 0.186272
H34   H     H_    0.262044 0.398483 0.271915 0.137492
H35   H     H_    0.061009 0.234667 0.362288 0.184361
H36   H     H_    0.190585 0.339085 0.314626 0.151159
H37   H     H_    0.337429 0.849533 0.041962 0.166782
H38   H     H_    0.361533 0.840116 0.142434 0.058464
H39   H     H_    0.297720 0.911436 0.112699 0.133264
H40   H     H_    0.793413 0.575021 0.274823 0.183679
H41   H     H_    0.696352 0.609268 0.270238 0.135373
H42   H     H_    0.768211 0.653226 0.328164 0.157481
H43   H     H_    0.063962 0.242613 0.221626 0.126267
H44   H     H_    0.051279 0.168076 0.151001 0.119270
H45   H     H_    0.095380 0.254162 0.125816 0.188295
H46   H     H_    0.248103 0.911665 0.431174 0.105894
H47   H     H_    0.689145 0.074117 0.335080 0.163006
H48   H     H_    0.675651 0.057800 0.239355 0.149304
H49   H     H_    0.637382 0.144262 0.279187 0.068937
H50   H     H_    0.926054 0.725921 0.246189 0.117040
H51   H     H_    0.965936 0.779589 0.166791 0.137229
H52   H     H_    0.899317 0.709678 0.149434 0.182958
H53   H     H_    0.322836 0.908502 0.342309 0.158270
H54   H     H_    0.333574 0.936328 0.247715 0.165594
H55   H     H_    0.371541 0.846034 0.277784 0.096568
H56   H     H_    0.092863 0.676507 0.657725 0.155235
H57   H     H_    0.939502 0.763367 0.367229 0.182574
H58   H     H_    0.062044 0.666784 0.751703 0.167639
H59   H     H_    0.153777 0.629635 0.724691 0.095320
H60   H     H_    0.739462 0.926916 0.766229 0.126931
H61   H     H_    0.803815 0.943278 0.844864 0.126920
H62   H     H_    0.719878 0.891392 0.859322 0.179390
H63   H     H_    0.919104 0.313168 0.670747 0.153971
H64   H     H_    0.941770 0.323845 0.765663 0.151792
H65   H     H_    0.851867 0.360009 0.732491 0.073969
H66   H     H_    0.267075 0.069803 0.758368 0.116964
H67   H     H_    0.209005 0.034507 0.836894 0.133892
H68   H     H_    0.751604 0.089957 0.431742 0.096462
H69   H     H_    0.282720 0.096562 0.855166 0.185841
H70   H     H_    0.574122 0.750087 0.247833 0.129525
H71   H     H_    0.485135 0.713295 0.217171 0.125907
H72   H     H_    0.500289 0.812628 0.214630 0.161831
H73   H     H_    0.749082 0.582411 0.096022 0.206570
H74   H     H_    0.226053 0.575266 0.226066 0.168433
H75   H     H_    0.277345 0.498948 0.189852 0.133344
H76   H     H_    0.175811 0.505792 0.173578 0.189921
H77   H     H_    0.436278 0.278048 0.256454 0.126065
H78   H     H_    0.512041 0.326438 0.209524 0.131464
H79   H     H_    0.520944 0.227169 0.229434 0.160842
H80   H     H_    0.763973 0.418739 0.227601 0.180399
H81   H     H_    0.714054 0.497958 0.193290 0.126967
H82   H     H_    0.816815 0.492736 0.184236 0.187678
H83   H     H_    0.582528 0.228327 0.777866 0.183025
H84   H     H_    0.422189 0.747810 0.094272 0.198953
H85   H     H_    0.502724 0.279548 0.809648 0.124534
H86   H     H_    0.508772 0.177773 0.824163 0.188316
H87   H     H_    0.252713 0.426101 0.752079 0.130588
H88   H     H_    0.291326 0.513574 0.784356 0.125482
H89   H     H_    0.191314 0.501443 0.784017 0.161296
H90   H     H_    0.422990 0.775152 0.774293 0.170041
H91   H     H_    0.497040 0.719765 0.808433 0.135182
H92   H     H_    0.496589 0.821081 0.825189 0.194096
H93   H     H_    0.716189 0.557002 0.738155 0.121345
H94   H     H_    0.668353 0.482816 0.788069 0.129007
H95   H     H_    0.250890 0.415790 0.095296 0.216481
H96   H     H_    0.767384 0.473149 0.766121 0.160690
H97   H     H_    0.032038 0.099419 0.760260 0.102727
H98   H     H_    0.961844 0.166667 0.786366 0.217548
H99   H     H_    0.055087 0.190543 0.800615 0.174865
H100  H     H_    0.905269 0.078497 0.719565 0.160553
H101  H     H_    0.869925 0.990271 0.742533 0.163209
H102  H     H_    0.836125 0.071185 0.793604 0.174118
H103  H     H_    0.959703 0.867123 0.774963 0.120637
H104  H     H_    0.034619 0.802714 0.782665 0.223668
H105  H     H_    0.942456 0.766596 0.790427 0.181469
H106  H     H_    0.584215 0.747827 0.898210 0.208761
H107  H     H_    0.103341 0.902612 0.724766 0.162719
H108  H     H_    0.129785 0.997664 0.736665 0.161569
H109  H     H_    0.173739 0.923143 0.791890 0.204575
H110  H     H_    0.094032 0.895171 0.276190 0.155280
H111  H     H_    0.000554 0.864930 0.262006 0.165469
H112  H     H_    0.077812 0.823161 0.209178 0.209168
H113  H     H_    0.901567 0.976885 0.243154 0.107751
H114  H     H_    0.824251 0.036143 0.211873 0.218755
H115  H     H_    0.815421 0.940661 0.201213 0.171800
H116  H     H_    0.899803 0.109569 0.271157 0.182401
H117  H     H_    0.748012 0.421639 0.916525 0.195160
H118  H     H_    0.997578 0.124606 0.268323 0.159501
H119  H     H_    0.934094 0.177057 0.205814 0.172749
H120  H     H_    0.127349 0.033292 0.225650 0.118800
H121  H     H_    0.191510 0.958312 0.218748 0.222068
H122  H     H_    0.227885 0.049293 0.206749 0.180794
H123  H     H_    0.917393 0.651805 0.729320 0.154966
H124  H     H_    0.846230 0.583859 0.702745 0.131180
H125  H     H_    0.906893 0.566417 0.782375 0.135210
H126  H     H_    0.304762 0.954210 0.776749 0.154688
H127  H     H_    0.373206 0.884613 0.750917 0.158922
H128  H     H_    0.417081 0.250916 0.906601 0.209599
H129  H     H_    0.381475 0.933435 0.837769 0.130000
H130  H     H_    0.066991 0.312150 0.782096 0.136310
H131  H     H_    0.112642 0.400113 0.762335 0.141243
H132  H     H_    0.059746 0.387159 0.848754 0.127755
H133  H     H_    0.711276 0.052903 0.795843 0.155195
H134  H     H_    0.623392 0.103634 0.774937 0.167077
H135  H     H_    0.633458 0.049131 0.858588 0.126786
H136  H     H_    0.947188 0.300108 0.214282 0.155213
H137  H     H_    0.887339 0.380749 0.241012 0.164607
H138  H     H_    0.941766 0.381506 0.156432 0.128871
H139  H     H_    0.251849 0.577278 0.906570 0.199599
H140  H     H_    0.342933 0.078052 0.259970 0.148616
H141  H     H_    0.411007 0.148990 0.286206 0.134785
H142  H     H_    0.428825 0.087661 0.207309 0.131116
H143  H     H_    0.044804 0.691301 0.227370 0.155330
H144  H     H_    0.116520 0.625180 0.253169 0.159260
H145  H     H_    0.067859 0.615211 0.166239 0.128643
H146  H     H_    0.691650 0.935225 0.205396 0.130274
H147  H     H_    0.602540 0.892437 0.228675 0.141447
H148  H     H_    0.616399 0.939009 0.138788 0.128313
H149  H     H_    0.207259 0.257014 0.403584 0.122004
H150  H     H_    0.087717 0.752099 0.569924 0.110237
H151  H     H_    0.306982 0.265645 0.423803 0.156519
H152  H     H_    0.252719 0.190964 0.464817 0.184774
H153  H     H_    0.693244 0.300691 0.375251 0.107033
H154  H     H_    0.729375 0.392080 0.393548 0.169103
H155  H     H_    0.774816 0.311727 0.436585 0.160220
H156  H     H_    0.738498 0.747663 0.391119 0.110131
H157  H     H_    0.648014 0.789088 0.415645 0.165514
H158  H     H_    0.733694 0.836738 0.438445 0.163030
H159  H     H_    0.306116 0.701549 0.392916 0.107960
H160  H     H_    0.271233 0.610274 0.414766 0.170940
N1    N     N_R   0.574080 0.369570 0.076720 -0.078508
N2    N     N_R   0.130430 0.074080 0.576720 -0.071905
N3    N     N_R   0.925920 0.130430 0.576720 -0.071904
N4    N     N_R   0.869570 0.925920 0.576720 -0.075660
N5    N     N_R   0.074080 0.130430 0.423280 -0.074103
N6    N     N_R   0.130430 0.925920 0.423280 -0.074745
N7    N     N_R   0.925920 0.869570 0.423280 -0.072161
N8    N     N_R   0.869570 0.074080 0.423280 -0.067462
N9    N     N_R   0.574050 0.630410 0.076720 -0.102574
N10   N     N_R   0.369590 0.574050 0.076720 -0.100034
N11   N     N_R   0.425950 0.369590 0.076720 -0.108293
N12   N     N_R   0.630430 0.574080 0.076720 -0.091951
N13   N     N_R   0.630410 0.425950 0.076720 -0.104454
N14   N     N_R   0.574050 0.369590 0.923280 -0.103549
N15   N     N_R   0.369590 0.425950 0.923280 -0.103668
N16   N     N_R   0.425950 0.630410 0.923280 -0.100903
N17   N     N_R   0.630410 0.574050 0.923280 -0.108921
N18   N     N_R   0.074050 0.130410 0.576720 -0.107559
N19   N     N_R   0.869590 0.074050 0.576720 -0.111806
N20   N     N_R   0.925950 0.869590 0.576720 -0.098584
N21   N     N_R   0.130410 0.925950 0.576720 -0.109372
N22   N     N_R   0.074050 0.869590 0.423280 -0.109234
N23   N     N_R   0.425920 0.630430 0.076720 -0.075043
N24   N     N_R   0.869590 0.925950 0.423280 -0.109786
N25   N     N_R   0.925950 0.130410 0.423280 -0.107836
N26   N     N_R   0.130410 0.074050 0.423280 -0.100245
N27   N     N_R   0.369570 0.425920 0.076720 -0.092445
N28   N     N_R   0.574080 0.630430 0.923280 -0.091376
N29   N     N_R   0.630430 0.425920 0.923280 -0.079743
N30   N     N_R   0.425920 0.369570 0.923280 -0.092572
N31   N     N_R   0.369570 0.574080 0.923280 -0.075479
N32   N     N_R   0.074080 0.869570 0.576720 -0.075720
Ni1   Ni    Ni4+2 0.500000 0.370760 0.000000 0.227766
Ni2   Ni    Ni4+2 0.629240 0.500000 0.000000 0.225648
Ni3   Ni    Ni4+2 0.500000 0.629240 0.000000 0.239894
Ni4   Ni    Ni4+2 0.370760 0.500000 0.000000 0.238215
Ni5   Ni    Ni4+2 0.000000 0.870760 0.500000 0.196061
Ni6   Ni    Ni4+2 0.129240 0.000000 0.500000 0.192955
Ni7   Ni    Ni4+2 1.000000 0.129240 0.500000 0.184455
Ni8   Ni    Ni4+2 0.870760 0.000000 0.500000 0.184079
O1    O     O_3   0.554615 0.753418 0.129141 -0.581924
O2    O     O_3   0.791396 0.058700 0.684575 -0.640789
O3    O     O_3   0.977021 0.793988 0.680114 -0.637451
O4    O     O_3   0.212642 0.933402 0.680735 -0.648413
O5    O     O_3   0.066661 0.785526 0.320756 -0.648391
O6    O     O_3   0.804151 0.979141 0.314213 -0.623371
O7    O     O_3   0.935586 0.213555 0.318861 -0.644348
O8    O     O_3   0.203005 0.019360 0.319058 -0.638170
O9    O     O_3   0.823270 0.646412 0.801812 -0.588897
O10   O     O_3   0.293858 0.856781 0.840539 -0.578669
O11   O     O_3   0.163723 0.333024 0.846230 -0.588564
O12   O     O_3   0.237744 0.575954 0.107508 -0.597980
O13   O     O_3   0.691051 0.148013 0.861938 -0.585418
O14   O     O_3   0.849535 0.313554 0.149491 -0.590066
O15   O     O_3   0.349239 0.171291 0.186601 -0.586529
O16   O     O_3   0.142140 0.705117 0.163207 -0.577904
O17   O     O_3   0.669247 0.834805 0.148465 -0.589591
O18   O     O_3   0.282724 0.176153 0.353133 -0.639476
O19   O     O_3   0.798173 0.328551 0.322177 -0.630857
O20   O     O_3   0.700937 0.843433 0.325916 -0.636051
O21   O     O_3   0.208756 0.666361 0.332784 -0.636218
O22   O     O_3   0.332575 0.793275 0.669858 -0.636404
O23   O     O_3   0.450226 0.253539 0.140536 -0.580865
O24   O     O_3   0.822000 0.716014 0.635945 -0.639738
O25   O     O_3   0.674462 0.190353 0.687661 -0.626174
O26   O     O_3   0.163913 0.296242 0.669566 -0.638981
O27   O     O_3   0.664848 0.777345 0.774412 -0.626589
O28   O     O_3   0.193652 0.746392 0.892696 -0.555710
O29   O     O_3   0.325231 0.214242 0.794602 -0.633492
O30   O     O_3   0.815555 0.257105 0.898459 -0.566376
O31   O     O_3   0.741752 0.183514 0.113225 -0.566666
O32   O     O_3   0.208207 0.321011 0.200017 -0.614919
O33   O     O_3   0.251962 0.804026 0.108467 -0.556190
O34   O     O_3   0.760731 0.426758 0.109312 -0.592631
O35   O     O_3   0.781076 0.672893 0.213676 -0.637510
O36   O     O_3   0.160910 0.178620 0.186603 -0.630761
O37   O     O_3   0.754375 0.138792 0.256735 -0.625173
O38   O     O_3   0.856422 0.809708 0.192397 -0.647669
O39   O     O_3   0.254610 0.854015 0.260662 -0.638014
O40   O     O_3   0.144042 0.746466 0.740110 -0.636312
O41   O     O_3   0.806849 0.833684 0.806023 -0.632319
O42   O     O_3   0.862520 0.243224 0.750807 -0.626374
O43   O     O_3   0.186406 0.144758 0.809207 -0.646221
O44   O     O_3   0.574803 0.238367 0.895528 -0.590140
O45   O     O_3   0.246450 0.445012 0.870593 -0.580925
O46   O     O_3   0.423539 0.762262 0.892534 -0.598953
O47   O     O_3   0.743035 0.545674 0.853906 -0.582198
O48   O     O_3   0.020272 0.194358 0.686551 -0.630055

loop_
_geom_bond_atom_site_label_1
_geom_bond_atom_site_label_2
_ccdc_geom_bond_type
N10   Ni4   S    
C51   O5    S    
C127  H126  S    
C107  N31   A    
C17   O27   S    
C77   C89   S    
C128  H132  S    
C47   O48   S    
C49   C68   A    
C1    C56   A    
C1    H1    S    
C102  O38   S    
C72   C101  S    
C9    H155  S    
C110  H76   S    
C45   N16   A    
C10   H156  S    
C116  H93   S    
C6    H145  S    
C80   C86   S    
N20   Ni5   S    
C123  O6    S    
C3    H133  S    
C89   C106  D    
C65   C118  A    
C124  H116  S    
N2    Ni6   S    
N5    N26   A    
C36   C71   A    
C46   C60   A    
C26   H44   S    
C21   H31   S    
C10   H157  S    
N21   Ni6   S    
C15   H11   S    
C124  O7    S    
C114  O45   S    
C5    O15   S    
C114  H88   S    
C96   N30   A    
C118  H150  S    
C22   H33   S    
C61   C94   S    
C81   C99   D    
C26   H45   S    
C91   O27   S    
C4    H137  S    
C118  N32   A    
C31   O41   S    
C32   H63   S    
C126  H123  S    
C54   N25   A    
N18   Ni7   S    
C88   O24   S    
C73   C88   S    
C38   C57   A    
C14   H9    S    
N11   Ni1   S    
C9    O19   S    
C1    N1    A    
C28   H52   S    
C34   C69   A    
C27   O37   S    
C52   C58   A    
C23   H39   S    
C71   C102  S    
C33   H66   S    
C19   H25   S    
C109  H71   S    
N19   Ni8   S    
C53   C71   A    
C43   C61   A    
C120  O3    S    
C12   H4    S    
N30   Ni1   S    
C16   H16   S    
C5    H141  S    
C79   C97   D    
C27   H48   S    
N23   Ni3   S    
C59   C63   A    
C44   N15   A    
C110  H74   S    
C81   O17   S    
C30   H59   S    
C78   O14   S    
C125  H121  S    
C17   H18   S    
C11   H159  S    
C112  H81   S    
C12   O22   S    
C18   O28   S    
C14   O24   S    
C39   N10   A    
C63   N27   A    
C48   C67   A    
C124  H118  S    
C119  H101  S    
C85   N29   A    
C69   C100  S    
C62   C93   S    
C52   H84   S    
C125  H120  S    
C18   H22   S    
C56   C95   S    
C84   C102  D    
N12   Ni2   S    
C58   C98   S    
C49   N20   A    
C120  H104  S    
C123  H115  S    
C8    H149  S    
N1    Ni1   S    
N9    Ni3   S    
C31   H62   S    
C25   O35   S    
C5    H142  S    
N17   N28   A    
C112  O34   S    
C120  H105  S    
C41   N12   A    
C8    O18   S    
C14   H7    S    
C57   C99   S    
C77   C94   D    
C92   O28   S    
C23   H37   S    
N29   Ni2   S    
C122  H112  S    
N24   Ni8   S    
N6    N22   A    
C19   H23   S    
C99   O35   S    
C82   O18   S    
C51   N22   A    
C12   H6    S    
C85   H117  S    
C19   O29   S    
C44   O45   S    
C119  H100  S    
C25   H40   S    
C43   N14   A    
C117  H98   S    
N2    N18   A    
C97   O32   S    
C29   H54   S    
C63   H95   S    
C96   H128  S    
N14   Ni1   S    
C7    H148  S    
C55   N26   A    
N16   N31   A    
C39   C58   A    
C45   O46   S    
N27   Ni4   S    
C3    O13   S    
C22   H36   S    
N7    N24   A    
C4    H136  S    
C121  H108  S    
N25   Ni7   S    
C122  O5    S    
C55   C69   A    
C98   O33   S    
C106  O42   S    
C75   C87   S    
N5    Ni7   S    
C115  H92   S    
C74   H106  S    
C68   C105  S    
C7    O17   S    
C111  H79   S    
C123  H113  S    
C8    H151  S    
C22   O32   S    
C83   C101  D    
C6    H143  S    
C48   N19   A    
C32   H65   S    
C2    C66   A    
C79   C82   S    
C45   C64   A    
C113  O44   S    
C11   O21   S    
C90   C108  D    
C88   C105  D    
C122  H110  S    
C76   O11   S    
C9    H154  S    
C128  O11   S    
C116  H94   S    
C50   C65   A    
C50   N21   A    
C20   O30   S    
C93   O29   S    
N13   Ni2   S    
C89   O25   S    
C42   N13   A    
C25   H42   S    
C20   H27   S    
C50   O4    S    
N1    N13   A    
C21   H30   S    
C10   H158  S    
C125  O8    S    
C7    H146  S    
N15   N30   A    
C42   O34   S    
C119  O2    S    
C22   H34   S    
N21   N32   A    
C41   C57   A    
C4    H138  S    
C32   H64   S    
C126  H124  S    
C36   H57   S    
C24   H24   S    
C42   C56   A    
C78   C83   S    
C127  H129  S    
C115  H90   S    
C13   H13   S    
C20   H28   S    
C111  H77   S    
C47   C66   A    
C116  O47   S    
C53   O6    S    
N3    Ni7   S    
C16   O26   S    
C109  H70   S    
C113  H86   S    
C109  O1    S    
C46   O47   S    
N17   Ni2   S    
C21   O31   S    
C128  H131  S    
C16   H15   S    
C113  H83   S    
C27   H47   S    
N26   Ni6   S    
C32   O42   S    
C90   O26   S    
C110  H75   S    
C38   O1    S    
C112  H82   S    
C116  H96   S    
C17   H17   S    
C76   C93   D    
C78   C95   D    
C3    H134  S    
C79   O15   S    
N7    Ni5   S    
N32   Ni5   S    
C94   O30   S    
C24   N4    A    
C26   H43   S    
C20   H29   S    
N3    N19   A    
C21   H32   S    
C127  H127  S    
C64   C92   S    
C41   H73   S    
C87   O22   S    
N15   Ni4   S    
C15   H12   S    
N31   Ni4   S    
N8    Ni8   S    
C80   C98   D    
C70   C103  S    
C114  H87   S    
C40   N11   A    
C27   H49   S    
C66   C108  S    
C67   C106  S    
C31   H61   S    
C18   H20   S    
C74   N28   A    
C77   O13   S    
C2    N2    A    
C14   H8    S    
C15   O25   S    
C73   O9    S    
C2    H2    S    
C95   O31   S    
N28   Ni3   S    
C28   H51   S    
C100  O36   S    
C24   C68   A    
C87   C104  D    
C48   O2    S    
C35   N6    A    
C33   H67   S    
C5    H140  S    
C37   C72   A    
C26   O36   S    
C19   H26   S    
C109  H72   S    
C28   O38   S    
C62   C96   A    
C121  O4    S    
C76   C90   S    
N6    Ni6   S    
C86   O21   S    
C43   O44   S    
C113  H85   S    
C115  O46   S    
C23   H38   S    
C117  H97   S    
C29   H53   S    
C30   H58   S    
C125  H122  S    
C17   H19   S    
C11   H160  S    
C7    H147  S    
N10   N23   A    
C112  H80   S    
C40   O23   S    
C54   O7    S    
C53   N24   A    
C119  H102  S    
C29   O39   S    
C36   N7    A    
C35   C70   A    
C121  H107  S    
C31   H60   S    
C75   O10   S    
C51   C70   A    
C126  H125  S    
C18   H21   S    
C83   O19   S    
C127  O10   S    
N4    N20   A    
N11   N27   A    
C15   H10   S    
N16   Ni3   S    
C40   C59   A    
C111  O23   S    
C55   O8    S    
C115  H91   S    
C86   C103  D    
C120  H103  S    
C8    H152  S    
N14   N29   A    
C6    H144  S    
C37   H68   S    
C73   C91   D    
C34   H35   S    
C84   O20   S    
C44   C62   A    
C128  H130  S    
C16   H14   S    
C34   N5    A    
C122  H111  S    
C46   N17   A    
C33   H69   S    
C9    H153  S    
C61   C85   A    
C75   C92   D    
C108  O43   S    
C105  O41   S    
C39   O12   S    
C13   N3    A    
C37   N8    A    
C3    H135  S    
C12   H5    S    
C107  H139  S    
C59   C97   S    
N9    N12   A    
C4    O14   S    
C114  H89   S    
C101  O37   S    
C23   O33   S    
C81   C84   S    
C6    O16   S    
C64   C107  A    
C103  O39   S    
C13   C67   A    
C60   C91   S    
C25   H41   S    
C117  H99   S    
N8    N25   A    
C29   H55   S    
C35   H46   S    
C30   H56   S    
C11   H3    S    
C49   O3    S    
C52   N23   A    
C82   C100  D    
C124  H119  S    
C10   O20   S    
N22   Ni5   S    
C111  H78   S    
C121  H109  S    
C60   C74   A    
C47   N18   A    
C33   O43   S    
C54   C72   A    
C38   N9    A    
C80   O16   S    
C117  O48   S    
C104  O40   S    
C65   C104  S    
C28   H50   S    
C123  H114  S    
C110  O12   S    
N4    Ni8   S    
C30   O40   S    
C126  O9    S    
