data_mof_unit_52243.cif
_audit_creation_date              2012-12-11T14:03:47-0500
_audit_creation_method            fapswitch 2.2
_symmetry_space_group_name_H-M    P1
_symmetry_Int_Tables_number       1
_space_group_crystal_system       triclinic
_cell_length_a                    19.08231
_cell_length_b                    11.078382
_cell_length_c                    18.727427
_cell_angle_alpha                 89.303393
_cell_angle_beta                  90.315932
_cell_angle_gamma                 89.839269
_cell_volume                      3958.62991686

loop_
_atom_site_label
_atom_site_type_symbol
_atom_type_description
_atom_site_fract_x
_atom_site_fract_y
_atom_site_fract_z
_atom_type_partial_charge
C1    C     C_R   0.239683 0.466349 0.647623 0.562707
C2    C     C_R   0.760066 0.464820 0.352052 0.571070
C3    C     C_R   0.739864 0.965711 0.647936 0.564317
C4    C     C_R   0.260203 0.965237 0.352203 0.574724
C5    C     C_2   0.258513 0.786370 0.522759 -0.072248
C6    C     C_2   0.742753 0.789858 0.478704 -0.072090
C7    C     C_2   0.757875 0.286489 0.522678 -0.070801
C8    C     C_2   0.237405 0.311076 0.472758 -0.056233
C9    C     C_R   0.997285 0.661123 0.429205 -0.055036
C10   C     C_R   0.989028 0.670337 0.578614 -0.039281
C11   C     C_R   0.500588 0.161365 0.427617 -0.049387
C12   C     C_R   0.491573 0.170000 0.577005 -0.041394
C13   C     C_R   0.012365 0.883713 0.425541 -0.022956
C14   C     C_R   0.994075 0.893436 0.572135 -0.020561
C15   C     C_R   0.515200 0.383294 0.423744 -0.017716
C16   C     C_R   0.496566 0.393537 0.570342 -0.026836
C17   C     C_R   0.016145 0.993177 0.459964 -0.087513
C18   C     C_R   0.005011 0.998848 0.532904 -0.097170
C19   C     C_R   0.518459 0.492956 0.457930 -0.089334
C20   C     C_R   0.507093 0.498877 0.530843 -0.100760
C21   C     C_R   0.994798 0.779425 0.538872 0.037855
C22   C     C_R   0.000731 0.774670 0.463672 0.022012
C23   C     C_R   0.497688 0.279318 0.537317 0.036368
C24   C     C_R   0.503817 0.274595 0.462115 0.031670
C25   C     C_R   0.974254 0.562943 0.543065 0.018264
C26   C     C_R   0.993505 0.554188 0.471536 0.016801
C27   C     C_R   0.478111 0.062396 0.541010 0.021377
C28   C     C_R   0.498379 0.054485 0.469776 0.022720
C29   C     C_R   0.950292 0.459170 0.579944 -0.061642
C30   C     C_R   0.008207 0.437805 0.445239 -0.031681
C31   C     C_R   0.453331 0.958165 0.576820 -0.063721
C32   C     C_R   0.513521 0.938852 0.442916 -0.029467
C33   C     C_R   0.958495 0.345891 0.550598 -0.049822
C34   C     C_R   0.992610 0.335464 0.485672 -0.020510
C35   C     C_R   0.461226 0.845466 0.546533 -0.052344
C36   C     C_R   0.496233 0.835873 0.481992 -0.019489
C37   C     C_2   0.256392 0.932612 0.914909 -0.142158
C38   C     C_2   0.763547 0.891399 0.069627 -0.096200
C39   C     C_2   0.756398 0.432617 0.914904 -0.142163
C40   C     C_2   0.263537 0.391431 0.069634 -0.094859
C41   C     C_2   0.272349 0.993871 0.065954 -0.032475
C42   C     C_2   0.755176 0.890398 0.913241 -0.102415
C43   C     C_2   0.772356 0.493887 0.065950 -0.032826
C44   C     C_2   0.255164 0.390422 0.913253 -0.102379
C45   C     C_R   0.210906 0.834879 0.639373 0.549716
C46   C     C_R   0.787730 0.837011 0.360760 0.556052
C47   C     C_R   0.710976 0.334805 0.639387 0.548583
C48   C     C_R   0.274117 0.370037 0.353900 0.555300
C49   C     C_2   0.229035 0.055785 0.021661 0.251386
C50   C     C_2   0.815948 0.901135 0.949134 0.255637
C51   C     C_2   0.729040 0.555798 0.021657 0.251248
C52   C     C_2   0.315937 0.401139 0.949145 0.255290
C53   C     C_2   0.219815 0.020639 0.946349 -0.135425
C54   C     C_2   0.817115 0.866764 0.025527 -0.110390
C55   C     C_2   0.719832 0.520663 0.946339 -0.135440
C56   C     C_2   0.317096 0.366751 0.025533 -0.109892
C57   C     C_2   0.989132 0.657167 0.912380 0.301483
C58   C     C_2   0.020368 0.671358 0.093033 0.257450
C59   C     C_2   0.489136 0.157121 0.912377 0.301238
C60   C     C_2   0.520282 0.171407 0.092942 0.257874
C61   C     C_2   0.010245 0.602844 0.035854 0.265661
C62   C     C_2   0.034562 0.650328 0.967034 0.298102
C63   C     C_2   0.510258 0.102696 0.035833 0.266054
C64   C     C_2   0.534588 0.150120 0.967001 0.298201
C65   C     C_R   0.026568 0.656552 0.647291 0.501990
C66   C     C_R   0.970817 0.654161 0.355026 0.502492
C67   C     C_R   0.527004 0.156531 0.646862 0.502323
C68   C     C_R   0.471631 0.154247 0.354423 0.506520
C69   C     C_R   0.240242 0.461726 0.848915 0.540003
C70   C     C_R   0.775579 0.519593 0.141716 0.595328
C71   C     C_R   0.740245 0.961716 0.848909 0.539151
C72   C     C_R   0.275578 0.019590 0.141716 0.594002
C73   C     C_R   0.228582 0.875610 0.851459 0.570274
C74   C     C_R   0.774535 0.869023 0.144946 0.555936
C75   C     C_R   0.728585 0.375617 0.851455 0.569859
C76   C     C_R   0.274529 0.369037 0.144950 0.550812
C77   C     C_R   0.023324 0.652505 0.844217 0.548440
C78   C     C_R   0.974107 0.653637 0.153144 0.564201
C79   C     C_R   0.523306 0.152501 0.844200 0.549074
C80   C     C_R   0.474078 0.153645 0.153105 0.562204
C81   C     C_2   0.230165 0.869042 0.566186 0.265284
C82   C     C_2   0.766170 0.873367 0.432018 0.271308
C83   C     C_2   0.731434 0.369970 0.566771 0.273334
C84   C     C_2   0.253267 0.401187 0.426306 0.264155
C85   C     C_2   0.236785 0.875709 0.405000 0.328533
C86   C     C_2   0.762685 0.875907 0.595729 0.307554
C87   C     C_2   0.736820 0.375064 0.405028 0.322760
C88   C     C_2   0.261205 0.380649 0.592662 0.301590
C89   C     C_2   0.281952 0.821345 0.450566 0.293652
C90   C     C_2   0.716983 0.827935 0.548789 0.269563
C91   C     C_2   0.781966 0.321787 0.450838 0.284837
C92   C     C_2   0.214224 0.337790 0.545472 0.256963
Cr1   Cr    Cr6+3 0.113970 0.508630 0.747920 1.003639
Cr2   Cr    Cr6+3 0.886030 0.508630 0.252080 1.021920
Cr3   Cr    Cr6+3 0.613970 0.008630 0.747920 1.003152
Cr4   Cr    Cr6+3 0.386030 0.008630 0.252080 1.027169
Cr5   Cr    Cr6+3 0.269200 0.666740 0.749850 1.019076
Cr6   Cr    Cr6+3 0.730800 0.666740 0.250150 1.008787
Cr7   Cr    Cr6+3 0.769200 0.166740 0.749850 1.018626
Cr8   Cr    Cr6+3 0.230800 0.166740 0.250150 1.011276
Cr9   Cr    Cr6+3 0.112300 0.820070 0.749800 1.010694
Cr10  Cr    Cr6+3 0.887700 0.820070 0.250200 0.984657
Cr11  Cr    Cr6+3 0.612300 0.320070 0.749800 1.010079
Cr12  Cr    Cr6+3 0.387700 0.320070 0.250200 0.989797
H1    H     H_    0.269815 0.695757 0.542466 0.120347
H2    H     H_    0.737809 0.696139 0.463231 0.110530
H3    H     H_    0.766435 0.194351 0.541282 0.110300
H4    H     H_    0.237905 0.217642 0.455887 0.108245
H5    H     H_    0.022060 0.887235 0.369057 0.131703
H6    H     H_    0.983550 0.903118 0.628318 0.129119
H7    H     H_    0.525037 0.385875 0.367227 0.129835
H8    H     H_    0.485831 0.403650 0.626426 0.127791
H9    H     H_    0.942304 0.266347 0.580153 0.093033
H10   H     H_    0.004646 0.248333 0.465208 0.084488
H11   H     H_    0.443730 0.765623 0.574972 0.093654
H12   H     H_    0.507565 0.749091 0.460688 0.085326
O1    O     O_R   0.043230 0.549300 0.667990 -0.500386
O2    O     O_R   0.956770 0.549300 0.332010 -0.511895
O3    O     O_R   0.543230 0.049300 0.667990 -0.501341
O4    O     O_R   0.456770 0.049300 0.332010 -0.511448
O5    O     O_R   0.262920 0.788600 0.824420 -0.493019
O6    O     O_R   0.737080 0.788600 0.175580 -0.468272
O7    O     O_R   0.762920 0.288600 0.824420 -0.493198
O8    O     O_R   0.237080 0.288600 0.175580 -0.471830
O9    O     O_R   0.167530 0.905110 0.830340 -0.499467
O10   O     O_R   0.832470 0.905110 0.169660 -0.523888
O11   O     O_R   0.667530 0.405110 0.830340 -0.499513
O12   O     O_R   0.332470 0.405110 0.169660 -0.526560
O13   O     O_R   0.054010 0.748440 0.822860 -0.477352
O14   O     O_R   0.945990 0.748440 0.177140 -0.510182
O15   O     O_R   0.554010 0.248440 0.822860 -0.476793
O16   O     O_R   0.445990 0.248440 0.177140 -0.511376
O17   O     O_3   0.165160 0.665150 0.749190 -0.259501
O18   O     O_3   0.834840 0.665150 0.250810 -0.289482
O19   O     O_3   0.665160 0.165150 0.749190 -0.258898
O20   O     O_3   0.334840 0.165150 0.250810 -0.275682
O21   O     O_R   0.178620 0.457600 0.674100 -0.488882
O22   O     O_R   0.821380 0.457600 0.325900 -0.481249
O23   O     O_R   0.678620 0.957600 0.674100 -0.491160
O24   O     O_R   0.321380 0.957600 0.325900 -0.480402
O25   O     O_R   0.284680 0.542100 0.669460 -0.529373
O26   O     O_R   0.715320 0.542100 0.330540 -0.524724
O27   O     O_R   0.784680 0.042100 0.669460 -0.528076
O28   O     O_R   0.215320 0.042100 0.330540 -0.519489
O29   O     O_R   0.262860 0.790390 0.676650 -0.537104
O30   O     O_R   0.737140 0.790390 0.323350 -0.528657
O31   O     O_R   0.762860 0.290390 0.676650 -0.536997
O32   O     O_R   0.237140 0.290390 0.323350 -0.533147
O33   O     O_R   0.167460 0.907030 0.670940 -0.506517
O34   O     O_R   0.832540 0.907030 0.329060 -0.502630
O35   O     O_R   0.667460 0.407030 0.670940 -0.509953
O36   O     O_R   0.332540 0.407030 0.329060 -0.511335
O37   O     O_R   0.053950 0.750220 0.675100 -0.537408
O38   O     O_R   0.946050 0.750220 0.324900 -0.532500
O39   O     O_R   0.553950 0.250220 0.675100 -0.537159
O40   O     O_R   0.446050 0.250220 0.324900 -0.519783
O41   O     O_R   0.043300 0.547370 0.827390 -0.539233
O42   O     O_R   0.956700 0.547370 0.172610 -0.495769
O43   O     O_R   0.543300 0.047370 0.827390 -0.539032
O44   O     O_R   0.456700 0.047370 0.172610 -0.496778
O45   O     O_R   0.178690 0.455820 0.821860 -0.519131
O46   O     O_R   0.821310 0.455820 0.178140 -0.513293
O47   O     O_R   0.678690 0.955820 0.821860 -0.519406
O48   O     O_R   0.321310 0.955820 0.178140 -0.514884
O49   O     O_R   0.284750 0.540170 0.828860 -0.454061
O50   O     O_R   0.715250 0.540170 0.171140 -0.511489
O51   O     O_R   0.784750 0.040170 0.828860 -0.454828
O52   O     O_R   0.215250 0.040170 0.171140 -0.512622
O53   O     O_3   0.352455 0.816287 0.435216 -0.586201
C93   C     C_3   0.365767 0.706346 0.400346 -0.088862
H13   H     H_    0.326378 0.686059 0.357940 0.135010
H14   H     H_    0.368834 0.631068 0.440016 0.175948
H15   H     H_    0.417175 0.712564 0.373306 0.113209
O54   O     O_3   0.645396 0.837913 0.558205 -0.578966
C94   C     C_3   0.623820 0.738347 0.600279 -0.103172
H16   H     H_    0.654013 0.729776 0.651125 0.104402
H17   H     H_    0.627402 0.653580 0.569387 0.165768
H18   H     H_    0.568754 0.751618 0.616239 0.128205
O55   O     O_3   0.852527 0.317861 0.435950 -0.582711
C95   C     C_3   0.866535 0.208936 0.400230 -0.092932
H19   H     H_    0.826861 0.187681 0.358277 0.130129
H20   H     H_    0.871060 0.133365 0.439518 0.180273
H21   H     H_    0.917496 0.217323 0.372496 0.115354
O56   O     O_3   0.142941 0.344255 0.558138 -0.586803
C96   C     C_3   0.123883 0.241054 0.598344 -0.102459
H22   H     H_    0.155784 0.230045 0.647921 0.107028
H23   H     H_    0.127208 0.158840 0.565128 0.167316
H24   H     H_    0.069224 0.251308 0.616432 0.128002
H25   H     H_    0.176567 0.062624 0.917447 0.144868
H26   H     H_    0.865668 0.830260 0.047530 0.156013
H27   H     H_    0.676597 0.562665 0.917425 0.144717
H28   H     H_    0.365638 0.330193 0.047532 0.156215
H29   H     H_    0.305043 0.920432 0.048123 0.078965
H30   H     H_    0.711446 0.842088 0.937038 0.076837
H31   H     H_    0.805060 0.420463 0.048117 0.078999
H32   H     H_    0.211429 0.342129 0.937052 0.076778
H33   H     H_    0.303440 0.893551 0.938052 0.116137
H34   H     H_    0.712809 0.921460 0.050765 0.063065
H35   H     H_    0.803436 0.393534 0.938055 0.116252
H36   H     H_    0.212811 0.421568 0.050772 0.062884
O57   O     O_3   0.965191 0.504186 0.038576 -0.551716
C97   C     C_3   0.998747 0.402551 0.009493 -0.124755
H37   H     H_    0.051506 0.387452 0.033768 0.088432
H38   H     H_    0.002735 0.410681 0.950483 0.141291
H39   H     H_    0.966679 0.321521 0.021518 0.131349
O58   O     O_3   0.102168 0.696209 0.958446 -0.548019
C98   C     C_3   0.152273 0.613462 0.984733 -0.101959
H40   H     H_    0.141335 0.520722 0.965697 0.090028
H41   H     H_    0.154843 0.614899 0.043908 0.116951
H42   H     H_    0.204515 0.640536 0.964510 0.150259
O59   O     O_3   0.465261 0.003960 0.038609 -0.551779
C99   C     C_3   0.498771 0.902414 0.009366 -0.124833
H43   H     H_    0.551622 0.887380 0.033444 0.088502
H44   H     H_    0.502542 0.910611 0.950344 0.141406
H45   H     H_    0.466791 0.821318 0.021481 0.131244
O60   O     O_3   0.602201 0.195981 0.958405 -0.548008
C100  C     C_3   0.652298 0.113357 0.984840 -0.101961
H46   H     H_    0.641413 0.020571 0.965855 0.090059
H47   H     H_    0.654785 0.114942 0.044018 0.117037
H48   H     H_    0.704559 0.140433 0.964668 0.150377
O61   O     O_3   0.059744 0.776675 0.086984 -0.591954
C101  C     C_3   0.101221 0.792427 0.148745 -0.132891
H49   H     H_    0.124001 0.706087 0.169640 0.073513
H50   H     H_    0.070435 0.837905 0.190769 0.127740
H51   H     H_    0.145743 0.851661 0.134614 0.172509
O62   O     O_3   0.918103 0.631373 0.921929 -0.578128
C102  C     C_3   0.878948 0.652600 0.858735 -0.126966
H52   H     H_    0.822525 0.653421 0.872107 0.147137
H53   H     H_    0.887882 0.579038 0.819947 0.104651
H54   H     H_    0.890990 0.742002 0.834006 0.133487
O63   O     O_3   0.559489 0.276896 0.086730 -0.592277
C103  C     C_3   0.600846 0.293324 0.148499 -0.132465
H55   H     H_    0.623444 0.207192 0.169912 0.073510
H56   H     H_    0.570007 0.339610 0.190169 0.128098
H57   H     H_    0.645499 0.352135 0.134176 0.172654
O64   O     O_3   0.418096 0.131450 0.921959 -0.578672
C104  C     C_3   0.378934 0.152536 0.858754 -0.126394
H58   H     H_    0.322515 0.153441 0.872145 0.147278
H59   H     H_    0.387837 0.078841 0.820048 0.105610
H60   H     H_    0.390992 0.241857 0.833923 0.134367
O65   O     O_3   0.166638 0.844466 0.406417 -0.600448
C105  C     C_3   0.147699 0.801361 0.337807 -0.158656
H61   H     H_    0.103915 0.737293 0.343054 0.107659
H62   H     H_    0.190506 0.750727 0.310765 0.087360
H63   H     H_    0.129644 0.877057 0.302975 0.140706
O66   O     O_3   0.832100 0.837954 0.595476 -0.607940
C106  C     C_3   0.851630 0.799843 0.665599 -0.146904
H64   H     H_    0.887720 0.722373 0.662466 0.106566
H65   H     H_    0.807129 0.766927 0.698971 0.065866
H66   H     H_    0.878741 0.873983 0.693805 0.156126
O67   O     O_3   0.667280 0.340116 0.405606 -0.604110
C107  C     C_3   0.650153 0.294536 0.337143 -0.163659
H67   H     H_    0.608717 0.225843 0.342639 0.109097
H68   H     H_    0.694650 0.248492 0.310087 0.080705
H69   H     H_    0.630078 0.368420 0.302097 0.140373
O68   O     O_3   0.330415 0.342315 0.589646 -0.606824
C108  C     C_3   0.351427 0.299422 0.658387 -0.142881
H70   H     H_    0.385715 0.220184 0.652578 0.108171
H71   H     H_    0.307562 0.266935 0.692786 0.065415
H72   H     H_    0.380599 0.370628 0.687090 0.153197
O69   O     O_3   0.225633 0.988534 0.544162 -0.581037
C109  C     C_3   0.277175 0.055766 0.580708 -0.104683
H73   H     H_    0.316618 0.001337 0.610966 0.100842
H74   H     H_    0.251314 0.115004 0.619536 0.126699
H75   H     H_    0.306506 0.111426 0.541563 0.159855
O70   O     O_3   0.762022 0.994579 0.448144 -0.596017
C110  C     C_3   0.697218 0.037691 0.421598 -0.130245
H76   H     H_    0.652953 0.977132 0.435452 0.142856
H77   H     H_    0.699652 0.050775 0.362783 0.122768
H78   H     H_    0.685024 0.124398 0.446892 0.168977
O71   O     O_3   0.730875 0.490422 0.546225 -0.587740
C111  C     C_3   0.779724 0.554063 0.588501 -0.106888
H79   H     H_    0.814554 0.497246 0.622848 0.104288
H80   H     H_    0.751210 0.614813 0.624497 0.127191
H81   H     H_    0.814227 0.607692 0.552975 0.160977
O72   O     O_3   0.246874 0.520572 0.445335 -0.615098
C112  C     C_3   0.176714 0.554432 0.432511 -0.146562
H82   H     H_    0.139404 0.492247 0.458493 0.164897
H83   H     H_    0.165594 0.559106 0.374268 0.103418
H84   H     H_    0.166535 0.642418 0.457087 0.183771
H85   H     H_    0.027978 0.072689 0.428743 0.093958
H86   H     H_    0.005278 0.084614 0.559481 0.077097
H87   H     H_    0.530035 0.572334 0.426538 0.094539
H88   H     H_    0.506774 0.584828 0.557174 0.078142
H89   H     H_    0.034054 0.424986 0.394589 0.108666
H90   H     H_    0.930243 0.464984 0.633748 0.096970
H91   H     H_    0.538981 0.927275 0.391940 0.106305
H92   H     H_    0.431927 0.963196 0.630124 0.098522
O73   O     O_3   0.190957 0.152623 0.047998 -0.554834
C113  C     C_3   0.118238 0.131879 0.040957 -0.117310
H93   H     H_    0.103651 0.035343 0.049305 0.155817
H94   H     H_    0.099091 0.165075 0.988161 0.085211
H95   H     H_    0.090749 0.184340 0.082425 0.134125
O74   O     O_3   0.875166 0.943419 0.912817 -0.546420
C114  C     C_3   0.928374 0.985643 0.958730 -0.105655
H96   H     H_    0.956885 0.908912 0.984390 0.155173
H97   H     H_    0.907467 0.048923 0.999193 0.107627
H98   H     H_    0.967050 0.036452 0.926247 0.131034
O75   O     O_3   0.690959 0.652627 0.048003 -0.555012
C115  C     C_3   0.618239 0.631991 0.040853 -0.117493
H99   H     H_    0.603602 0.535451 0.049079 0.155557
H100  H     H_    0.599170 0.665368 0.988068 0.085224
H101  H     H_    0.590723 0.684357 0.082344 0.134396
O76   O     O_3   0.375159 0.443422 0.912833 -0.545957
C116  C     C_3   0.428388 0.485550 0.958752 -0.105500
H102  H     H_    0.456876 0.408768 0.984385 0.155423
H103  H     H_    0.407509 0.548815 0.999237 0.107439
H104  H     H_    0.467078 0.536348 0.926280 0.131113

loop_
_geom_bond_atom_site_label_1
_geom_bond_atom_site_label_2
_ccdc_geom_bond_type
C29   H90   S    
C80   O16   A    
C87   C91   D    
C113  H95   S    
C31   H92   S    
C32   H91   S    
C94   H17   S    
C5    H1    S    
C12   C23   A    
C71   O47   A    
C14   C21   A    
Cr7   O27   S    
O71   C111  S    
C29   C33   A    
C41   H29   S    
C19   C20   A    
C111  H79   S    
C98   H42   S    
C105  H62   S    
C35   H11   S    
C8    C92   S    
C47   C83   S    
C58   C61   D    
C21   C22   A    
Cr4   O4    S    
C70   O46   A    
C41   C49   D    
C95   H20   S    
C9    C26   A    
Cr7   O51   S    
C10   C21   A    
C25   C29   A    
C44   H32   S    
C105  H63   S    
C97   H37   S    
C12   C27   A    
C27   C31   A    
C2    O22   A    
C28   C32   A    
C3    O27   A    
C86   C90   D    
O58   C98   S    
Cr3   O3    S    
C40   C76   S    
Cr8   O8    S    
C55   H27   S    
C50   O74   S    
C67   O3    A    
Cr3   O47   S    
C102  H52   S    
Cr12  O12   S    
Cr1   O45   S    
C16   C20   A    
C103  H56   S    
C6    H2    S    
C77   O13   A    
C73   O5    A    
C84   O72   S    
C115  H99   S    
C106  H66   S    
Cr7   O31   S    
Cr5   O29   S    
C45   C81   S    
Cr10  O14   S    
C4    O28   A    
Cr9   O17   S    
C19   H87   S    
C90   O54   S    
Cr3   O23   S    
Cr12  O36   S    
C25   C26   A    
C89   O53   S    
C94   H16   S    
C46   O30   A    
C111  H81   S    
C49   C53   S    
C31   C35   A    
C51   C55   S    
C99   H43   S    
C62   O58   S    
C5    C89   S    
C107  H67   S    
C7    C83   D    
C81   O69   S    
C60   O63   S    
Cr5   O17   S    
C114  H97   S    
C87   O67   S    
Cr3   O43   S    
C32   C36   A    
C67   O39   A    
Cr1   O17   S    
O69   C109  S    
C110  H78   S    
C96   H23   S    
C93   H13   S    
O56   C96   S    
C43   H31   S    
O65   C105  S    
O54   C94   S    
C103  H55   S    
Cr5   O5    S    
C46   C82   S    
C78   O42   A    
C116  H103  S    
C30   H89   S    
Cr9   O9    S    
C23   C24   A    
C38   H34   S    
C39   C75   S    
Cr11  O11   S    
C115  H101  S    
C37   C53   D    
C44   C52   D    
C71   O51   A    
C112  H82   S    
Cr6   O26   S    
C72   O52   A    
Cr1   O1    S    
C58   O61   S    
O73   C113  S    
C47   O31   A    
C30   C34   A    
C76   O8    A    
C92   O56   S    
C101  H51   S    
C100  H46   S    
C6    C90   S    
Cr4   O48   S    
O61   C101  S    
C99   H45   S    
C79   O15   A    
C17   C18   A    
C2    C87   S    
C101  H50   S    
Cr6   O50   S    
C42   C50   D    
C107  H69   S    
C10   C25   A    
C15   C24   A    
C102  H53   S    
C26   C30   A    
C16   C23   A    
C2    O26   A    
C7    H3    S    
C3    O23   A    
C36   H12   S    
C1    O21   A    
C11   C68   S    
C38   C74   S    
C65   O37   A    
Cr6   O6    S    
C39   H35   S    
O66   C106  S    
C60   C80   S    
Cr12  O20   S    
Cr4   O44   S    
C63   O59   S    
Cr10  O10   S    
Cr4   O24   S    
C110  H76   S    
C109  H73   S    
C33   H9    S    
C13   C17   A    
C108  H72   S    
C104  H59   S    
C78   O14   A    
C68   O4    A    
Cr2   O2    S    
C73   O9    A    
C75   O11   A    
C61   C62   S    
C69   O49   A    
C63   C64   S    
O72   C112  S    
C111  H80   S    
O62   C102  S    
C104  H60   S    
C98   H41   S    
C65   O1    A    
Cr11  O15   S    
Cr8   O20   S    
Cr9   O13   S    
C56   H28   S    
C35   C36   A    
C109  H75   S    
C51   O75   S    
O67   C107  S    
Cr4   O20   S    
C100  H48   S    
C15   C19   A    
C50   C54   S    
C97   H38   S    
C79   O43   A    
O74   C114  S    
C80   O44   A    
C14   H6    S    
C113  H93   S    
O53   C93   S    
C14   C18   A    
C39   C55   D    
C40   C56   D    
C97   H39   S    
C54   H26   S    
Cr10  O38   S    
Cr11  O35   S    
C17   H85   S    
C1    C88   S    
Cr2   O42   S    
C3    C86   S    
C115  H100  S    
C94   H18   S    
C106  H65   S    
C98   H40   S    
C57   C77   S    
C59   C79   S    
C114  H96   S    
C66   O38   A    
C85   C89   D    
C40   H36   S    
O75   C115  S    
C5    C81   D    
O59   C99   S    
C38   C54   D    
C7    C91   S    
C85   O65   S    
C105  H61   S    
C72   O48   A    
Cr7   O19   S    
C44   C69   S    
C82   O70   S    
C83   O71   S    
Cr5   O25   S    
Cr10  O34   S    
Cr11  O39   S    
C74   O6    A    
C47   O35   A    
C48   O36   A    
Cr8   O28   S    
C76   O12   A    
C45   O29   A    
C100  H47   S    
C95   H19   S    
C16   H8    S    
C107  H68   S    
C8    C84   D    
C110  H77   S    
C43   C51   D    
C96   H22   S    
C93   H14   S    
C11   C28   A    
Cr5   O49   S    
C42   C71   S    
C13   C22   A    
C1    O25   A    
C58   C78   S    
O55   C95   S    
C116  H102  S    
Cr12  O16   S    
C20   H88   S    
C93   H15   S    
C6    C82   D    
O57   C97   S    
C52   O76   S    
C49   O73   S    
C59   O64   S    
C57   C62   D    
C88   O68   S    
O64   C104  S    
C59   C64   D    
C60   C63   D    
C75   O7    A    
C69   O45   A    
C108  H70   S    
C70   O50   A    
C9    C22   A    
C11   C24   A    
C42   H30   S    
Cr11  O19   S    
C9    C66   S    
C61   O57   S    
C88   C92   D    
C91   O55   S    
C13   H5    S    
C37   H33   S    
Cr2   O46   S    
C113  H94   S    
C95   H21   S    
C86   O66   S    
C8    H4    S    
C114  H98   S    
C12   C67   S    
C15   H7    S    
O60   C100  S    
C96   H24   S    
C109  H74   S    
C4    C85   S    
Cr6   O30   S    
C103  H57   S    
C48   C84   S    
C108  H71   S    
Cr10  O18   S    
C4    O24   A    
C18   H86   S    
Cr9   O37   S    
C116  H104  S    
O68   C108  S    
Cr3   O19   S    
C33   C34   A    
Cr12  O40   S    
Cr1   O41   S    
C41   C72   S    
C57   O62   S    
O76   C116  S    
C46   O34   A    
C43   C70   S    
C112  H83   S    
C112  H84   S    
C27   C28   A    
Cr7   O7    S    
C10   C65   S    
C37   C73   S    
C64   O60   S    
C99   H44   S    
C68   O40   A    
C106  H64   S    
C34   H10   S    
Cr6   O18   S    
Cr8   O52   S    
C74   O10   A    
C53   H25   S    
Cr8   O32   S    
Cr2   O22   S    
C48   O32   A    
Cr9   O33   S    
Cr2   O18   S    
C45   O33   A    
C101  H49   S    
Cr1   O21   S    
O70   C110  S    
C102  H54   S    
C66   O2    A    
O63   C103  S    
C104  H58   S    
C52   C56   S    
C77   O41   A    
