data_mof_unit_35524.cif
_audit_creation_date              2012-12-10T17:55:04-0500
_audit_creation_method            fapswitch 2.2
_symmetry_space_group_name_H-M    P1
_symmetry_Int_Tables_number       1
_space_group_crystal_system       triclinic
_cell_length_a                    8.680931
_cell_length_b                    10.920808
_cell_length_c                    9.672291
_cell_angle_alpha                 89.145602
_cell_angle_beta                  94.909919
_cell_angle_gamma                 94.6326
_cell_volume                      910.581115764

loop_
_atom_site_label
_atom_site_type_symbol
_atom_type_description
_atom_site_fract_x
_atom_site_fract_y
_atom_site_fract_z
_atom_type_partial_charge
C1    C     C_R   0.509447 0.263258 0.501981 0.764082
C2    C     C_R   0.490584 0.736747 0.498022 0.764184
C3    C     C_R   0.205488 0.482675 0.469210 0.844280
C4    C     C_R   0.794517 0.517293 0.530785 0.844108
C5    C     C_2   0.038909 0.456416 0.471705 -0.035146
C6    C     C_2   0.961087 0.543562 0.528246 -0.035109
C7    C     C_R   0.544732 0.067555 0.382984 -0.056900
C8    C     C_R   0.455371 0.932458 0.617040 -0.057008
C9    C     C_R   0.513796 0.940482 0.374293 -0.082958
C10   C     C_R   0.486307 0.059530 0.625727 -0.082965
C11   C     C_R   0.481508 0.871029 0.494755 -0.146979
C12   C     C_R   0.518569 0.128981 0.505260 -0.146933
C13   C     C_R   0.405642 0.417246 0.068137 0.057651
C14   C     C_R   0.594374 0.582742 0.931866 0.057684
C15   C     C_R   0.397543 0.421860 0.920004 0.228366
C16   C     C_R   0.602464 0.578132 0.079999 0.228412
Cu1   Cu    Cu3+1 0.500000 0.500020 0.640660 0.950765
Cu2   Cu    Cu3+1 0.500000 0.499980 0.359340 0.950685
N1    N     N_R   0.500040 0.500030 0.852080 -0.213797
N2    N     N_R   0.499960 0.499970 0.147920 -0.213791
O1    O     O_R   0.499990 0.319660 0.618740 -0.596698
O2    O     O_R   0.500010 0.680340 0.381260 -0.596688
O3    O     O_R   0.499990 0.319630 0.381170 -0.571349
O4    O     O_R   0.500010 0.680370 0.618830 -0.571287
O5    O     O_R   0.274840 0.500010 0.591370 -0.597395
O6    O     O_R   0.725160 0.499990 0.408630 -0.597559
O7    O     O_R   0.274830 0.499980 0.353800 -0.577469
O8    O     O_R   0.725170 0.500020 0.646200 -0.577430
C17   C     C_3   0.976850 0.320938 0.476982 -0.495590
C18   C     C_3   0.044127 0.241138 0.374747 -0.757993
H1    H     H_    0.024817 0.280313 0.268668 0.273966
H2    H     H_    0.169165 0.234699 0.405946 0.250819
H3    H     H_    0.985493 0.146924 0.376333 0.243271
H4    H     H_    0.004335 0.283692 0.582600 0.207039
H5    H     H_    0.849333 0.308042 0.454724 0.231752
C19   C     C_3   0.023037 0.679057 0.522832 -0.495477
C20   C     C_3   0.956371 0.758726 0.625553 -0.757931
H6    H     H_    0.831342 0.765450 0.594597 0.250941
H7    H     H_    0.975751 0.719268 0.731481 0.273913
H8    H     H_    0.015252 0.852859 0.624156 0.243288
H9    H     H_    0.150611 0.692038 0.544373 0.231537
H10   H     H_    0.994811 0.716360 0.417390 0.206970
C21   C     C_1   0.616041 0.132118 0.269042 0.294516
N3    N     N_1   0.673758 0.183198 0.178762 -0.260451
C22   C     C_1   0.384101 0.867899 0.731005 0.294626
N4    N     N_1   0.326416 0.816824 0.821305 -0.260375
C23   C     C_1   0.498943 0.886420 0.237177 0.289866
N5    N     N_1   0.484375 0.845327 0.126859 -0.270388
C24   C     C_1   0.501191 0.113597 0.762842 0.289851
N6    N     N_1   0.515784 0.154695 0.873157 -0.270389
C25   C     C_1   0.330854 0.311055 0.131215 0.328699
N7    N     N_1   0.273530 0.221155 0.174861 -0.315505
C26   C     C_1   0.669230 0.688906 0.868799 0.328709
N8    N     N_1   0.726625 0.778788 0.825182 -0.315572
C27   C     C_3   0.261767 0.348138 0.842002 -0.363601
C28   C     C_3   0.110899 0.408852 0.856227 -0.826296
H11   H     H_    0.088405 0.415322 0.967050 0.240802
H12   H     H_    0.117425 0.502825 0.810655 0.279799
H13   H     H_    0.011235 0.353440 0.803149 0.243060
H14   H     H_    0.248153 0.252898 0.883089 0.189512
H15   H     H_    0.277485 0.334132 0.732847 0.250324
C29   C     C_3   0.738264 0.651818 0.158008 -0.363700
C30   C     C_3   0.889094 0.591037 0.143823 -0.826280
H16   H     H_    0.882461 0.497050 0.189334 0.279844
H17   H     H_    0.911657 0.584599 0.033011 0.240790
H18   H     H_    0.988764 0.646372 0.196977 0.243102
H19   H     H_    0.751949 0.747051 0.116910 0.189529
H20   H     H_    0.722516 0.665856 0.267151 0.250266

loop_
_geom_bond_atom_site_label_1
_geom_bond_atom_site_label_2
_ccdc_geom_bond_type
C2    O2    A    
C4    O6    A    
C21   N3    T    
C30   H17   S    
C15   N1    A    
C1    O1    A    
C17   C18   S    
C7    C21   S    
C10   C24   S    
C17   H5    S    
C5    C17   S    
C23   N5    T    
C18   H3    S    
C28   H13   S    
C29   H20   S    
C16   N2    A    
Cu1   O5    S    
Cu2   O6    S    
C3    C5    S    
C27   C28   S    
C3    O7    A    
Cu1   Cu2   S    
C30   H18   S    
C20   H7    S    
C13   C25   S    
C27   H14   S    
C18   H2    S    
C9    C11   A    
C19   H9    S    
C29   C30   S    
C1    C12   S    
C10   C12   A    
C29   H19   S    
C8    C11   A    
C5    C6    D    
C2    C11   S    
C27   H15   S    
C4    C6    S    
C19   C20   S    
Cu1   N1    S    
C20   H6    S    
C6    C19   S    
C1    O3    A    
C20   H8    S    
Cu2   N2    S    
C13   C15   A    
C2    O4    A    
C18   H1    S    
C14   C16   A    
C7    C12   A    
C9    C23   S    
C25   N7    T    
Cu1   O4    S    
C22   N4    T    
C3    O5    A    
C14   C26   S    
C28   H11   S    
C8    C10   A    
C24   N6    T    
C7    C9    A    
C8    C22   S    
C13   N2    A    
C4    O8    A    
Cu2   O2    S    
Cu1   O8    S    
C19   H10   S    
C14   N1    A    
C16   C29   S    
Cu1   O1    S    
Cu2   O7    S    
Cu2   O3    S    
C26   N8    T    
C28   H12   S    
C30   H16   S    
C17   H4    S    
C15   C27   S    
