data_mof_unit_37304.cif
_audit_creation_date              2013-03-05T16:11:03-0500
_audit_creation_method            fapswitch 2.2
_symmetry_space_group_name_H-M    P1
_symmetry_Int_Tables_number       1
_space_group_crystal_system       triclinic
_cell_length_a                    10.97276
_cell_length_b                    9.875741
_cell_length_c                    10.619292
_cell_angle_alpha                 90.315465
_cell_angle_beta                  78.058244
_cell_angle_gamma                 90.756496
_cell_volume                      1125.74371794

loop_
_atom_site_label
_atom_site_type_symbol
_atom_site_description
_atom_site_fract_x
_atom_site_fract_y
_atom_site_fract_z
_atom_type_partial_charge
O1    O     O_R   0.317570 0.620260 0.500070 -0.545219
O2    O     O_R   0.317570 0.379740 0.500070 -0.586648
C1    C     C_R   0.260032 0.500180 0.502936 0.790444
O3    O     O_R   0.499850 0.620240 0.316900 -0.559199
O4    O     O_R   0.499850 0.379760 0.316900 -0.518937
C2    C     C_R   0.499043 0.499806 0.261068 0.848700
Cu1   Cu    Cu3+1 0.499860 0.642410 0.500060 1.045745
Cu2   Cu    Cu3+1 0.499860 0.357590 0.500060 1.053559
O5    O     O_R   0.682190 0.620260 0.500030 -0.517527
O6    O     O_R   0.682190 0.379740 0.500030 -0.576439
O7    O     O_R   0.499910 0.620280 0.683200 -0.572788
O8    O     O_R   0.499910 0.379720 0.683200 -0.513527
C3    C     C_R   0.738728 0.500740 0.501499 0.789608
C4    C     C_R   0.498013 0.500696 0.739951 0.825435
C5    C     C_3   0.449312 0.617716 0.056182 -0.169963
C6    C     C_3   0.428281 0.395763 0.057397 -0.110205
C7    C     C_3   0.380392 0.513447 0.987188 0.174966
H1    H     H_    0.409613 0.712764 0.102972 0.157558
H2    H     H_    0.371855 0.309362 0.105570 0.145602
C8    C     C_3   0.495896 0.503143 0.878374 -0.027914
C9    C     C_3   0.565992 0.607349 0.946077 -0.219444
C10   C     C_3   0.545440 0.386145 0.947438 -0.126268
C11   C     C_3   0.615262 0.490177 0.016807 -0.114889
C12   C     C_3   0.498390 0.499989 0.124095 -0.016779
H3    H     H_    0.621329 0.695658 0.901028 0.165931
H4    H     H_    0.588227 0.293445 0.899175 0.180253
H5    H     H_    0.711917 0.480027 0.031693 0.160045
C13   C     C_3   0.048086 0.589595 0.618804 -0.269058
C14   C     C_3   0.063385 0.361701 0.524488 -0.400848
H6    H     H_    0.077748 0.695986 0.601917 0.238797
H7    H     H_    0.120698 0.297853 0.450174 0.195496
H8    H     H_    0.070943 0.557637 0.711434 0.183821
H9    H     H_    0.062968 0.328501 0.624470 0.175114
C15   C     C_3   0.904463 0.576387 0.628834 -0.094803
C16   C     C_3   0.928191 0.355067 0.509179 -0.086519
H10   H     H_    0.866231 0.510788 0.713242 0.144583
H11   H     H_    0.872437 0.303257 0.595799 0.145810
H12   H     H_    0.141943 0.661566 0.356395 0.177298
H13   H     H_    0.136949 0.492426 0.297581 0.162978
H14   H     H_    0.931281 0.683926 0.385732 0.231131
H15   H     H_    0.931122 0.533704 0.293966 0.164026
C17   C     C_3   0.095911 0.561271 0.377872 -0.438609
C18   C     C_3   0.120321 0.503710 0.505969 0.055053
C19   C     C_3   0.876955 0.502770 0.504566 0.113543
C20   C     C_3   0.954346 0.575083 0.383584 -0.295319
C21   C     C_3   0.594406 0.082699 0.568844 -0.273659
C22   C     C_3   0.579790 0.921558 0.585856 -0.315837
H16   H     H_    0.598016 0.135197 0.659557 0.232815
H17   H     H_    0.544311 0.897762 0.688196 0.214017
H18   H     H_    0.689297 0.101670 0.513032 0.178188
H19   H     H_    0.673174 0.876380 0.564860 0.216941
C23   C     C_3   0.373300 0.078186 0.573320 0.489843
C24   C     C_3   0.369798 0.910243 0.550804 0.485177
C25   C     C_3   0.540593 0.080373 0.367233 0.230349
C26   C     C_3   0.552539 0.914812 0.369403 0.278981
N1    N     N_3   0.500250 0.143650 0.502780 -0.256875
N2    N     N_3   0.500250 0.856350 0.502780 -0.266827
H20   H     H_    0.462646 0.098167 0.318290 0.071942
H21   H     H_    0.497694 0.878743 0.299862 0.081637
C27   C     C_3   0.244587 0.531079 0.979047 -0.768517
H22   H     H_    0.220300 0.466821 0.902265 0.277950
H23   H     H_    0.183526 0.502309 0.071893 0.199987
H24   H     H_    0.227106 0.638451 0.959841 0.275907
S1    S     S_3+6 0.330269 0.141381 0.746910 0.057356
O9    O     O_2   0.299132 0.288487 0.749505 -0.319790
O10   O     O_2   0.210718 0.081876 0.821202 -0.186013
O11   O     O_3   0.439824 0.118081 0.834180 -0.555111
H25   H     H_    0.396189 0.128435 0.925108 0.383076
S2    S     S_3+6 0.286393 0.827790 0.706039 0.051896
O12   O     O_2   0.152813 0.871081 0.728978 -0.273731
O13   O     O_2   0.277904 0.677392 0.715911 -0.325728
O14   O     O_3   0.345948 0.872635 0.834527 -0.475129
H26   H     H_    0.398617 0.796968 0.850954 0.345509
S3    S     S_3+6 0.671275 0.164932 0.247684 0.037452
O15   O     O_2   0.703125 0.309825 0.267973 -0.304582
O16   O     O_2   0.796118 0.100110 0.227910 -0.224631
O17   O     O_3   0.625147 0.155610 0.106412 -0.546613
H27   H     H_    0.702423 0.164644 0.039474 0.373509
S4    S     S_3+6 0.703195 0.841340 0.286428 0.063306
O18   O     O_2   0.725651 0.886534 0.148282 -0.246153
O19   O     O_2   0.806599 0.889880 0.349365 -0.315301
O20   O     O_3   0.718244 0.673237 0.271452 -0.516187
H28   H     H_    0.787093 0.658264 0.196315 0.341633
C28   C     C_3   0.260009 0.129414 0.523433 -0.775106
H29   H     H_    0.211735 0.204657 0.585969 0.273514
H30   H     H_    0.281616 0.161382 0.421364 0.194291
H31   H     H_    0.177613 0.061245 0.541889 0.212889
C29   C     C_3   0.291335 0.871986 0.442816 -0.855142
H32   H     H_    0.326547 0.790355 0.375474 0.243217
H33   H     H_    0.192051 0.850423 0.483478 0.247395
H34   H     H_    0.295215 0.949524 0.367605 0.158736
C30   C     C_3   0.844161 0.715307 0.661945 -0.839240
H35   H     H_    0.876894 0.760335 0.745388 0.265473
H36   H     H_    0.869076 0.786497 0.580097 0.263424
H37   H     H_    0.741860 0.704660 0.691927 0.228133
C31   C     C_3   0.922428 0.261979 0.394364 -0.663101
H38   H     H_    0.956058 0.310977 0.299783 0.249498
H39   H     H_    0.976301 0.167857 0.397523 0.221394
H40   H     H_    0.828243 0.225577 0.404701 0.293246

loop_
_geom_bond_atom_site_label_1
_geom_bond_atom_site_label_2
_geom_bond_distance
_ccdc_geom_bond_type
C5    H1    1.110781 S    
C26   H21   1.099887 S    
C28   H31   1.105041 S    
C24   S2    1.894434 S    
Cu2   N1    2.113245 S    
S4    O20   1.673942 S    
Cu1   Cu2   2.812808 S    
C22   H17   1.101439 S    
O17   H27   0.990709 S    
C19   C20   1.557017 S    
Cu1   O7    1.958369 S    
C1    C18   1.527524 S    
S3    O16   1.494349 D    
C27   H24   1.107580 S    
C16   H11   1.116344 S    
C28   H30   1.107326 S    
H12   C17   1.108976 S    
O4    C2    1.329406 A    
O7    C4    1.326781 A    
C31   H40   1.073787 S    
C14   H9    1.112019 S    
C7    C8    1.532295 S    
C27   H23   1.107448 S    
S2    O13   1.489897 D    
O5    C3    1.342346 A    
C25   C26   1.642680 S    
C6    C7    1.539653 S    
S3    O17   1.681302 S    
C31   H39   1.112492 S    
C11   C12   1.532787 S    
C11   H5    1.110055 S    
C13   C15   1.561155 S    
C6    C12   1.532807 S    
C25   S3    1.895251 S    
C14   C18   1.524763 S    
O3    Cu1   1.956138 S    
H13   C17   1.111230 S    
C21   H16   1.099127 S    
H14   C20   1.106571 S    
C25   N1    1.546631 S    
S3    O15   1.493542 D    
O11   H25   0.990430 S    
S1    O11   1.681543 S    
C4    C8    1.465398 S    
C13   H8    1.112528 S    
C15   C19   1.584176 S    
C28   H29   1.064493 S    
O3    C2    1.326776 A    
C23   S1    1.909318 S    
S4    O19   1.503271 D    
C24   N2    1.518990 S    
C22   H19   1.102343 S    
C16   C31   1.534199 S    
C30   H37   1.105375 S    
C27   H22   1.103768 S    
O1    C1    1.333613 A    
C17   C20   1.549751 S    
S1    O10   1.498340 D    
S2    O14   1.685108 S    
C22   N2    1.500762 S    
C26   S4    1.859431 S    
C29   H34   1.103579 S    
Cu2   O8    1.955976 S    
C2    C12   1.456062 S    
C31   H38   1.107414 S    
C30   H36   1.108059 S    
C8    C9    1.538629 S    
C16   C19   1.574810 S    
C5    C12   1.532428 S    
C29   H33   1.104017 S    
C9    C11   1.545829 S    
C17   C18   1.551969 S    
C23   C24   1.675479 S    
C25   H20   1.105201 S    
C5    C7    1.539306 S    
C9    H3    1.108393 S    
C21   C22   1.604783 S    
C6    C10   1.551111 S    
O1    Cu1   2.009254 S    
O2    Cu2   2.014996 S    
C8    C10   1.536031 S    
O14   H26   0.988631 S    
O6    C3    1.340628 A    
O4    Cu2   1.958534 S    
C14   C16   1.525939 S    
C21   H18   1.100542 S    
C13   C18   1.548200 S    
S1    O9    1.495604 D    
C26   N2    1.527282 S    
O2    C1    1.351209 A    
O8    C4    1.333615 A    
C14   H7    1.102478 S    
C6    H2    1.110359 S    
C13   H6    1.100424 S    
C30   H35   1.111333 S    
C24   C29   1.610669 S    
C15   H10   1.114775 S    
S2    O12   1.502718 D    
C15   C30   1.538193 S    
C7    C27   1.522736 S    
S4    O18   1.505573 D    
Cu1   O5    2.015390 S    
C5    C9    1.549006 S    
C29   H32   1.094589 S    
Cu2   O6    2.009648 S    
O20   H28   0.990677 S    
C10   H4    1.108064 S    
C21   N1    1.497644 S    
H15   C20   1.109485 S    
C10   C11   1.545837 S    
C23   C28   1.540788 S    
Cu1   N2    2.112814 S    
C3    C19   1.523662 S    
C23   N1    1.571380 S    
