data_mof_unit_60888.cif
_audit_creation_date              2012-12-10T18:52:20-0500
_audit_creation_method            fapswitch 2.2
_symmetry_space_group_name_H-M    P1
_symmetry_Int_Tables_number       1
_space_group_crystal_system       triclinic
_cell_length_a                    37.287172
_cell_length_b                    30.266312
_cell_length_c                    21.605235
_cell_angle_alpha                 90.00002
_cell_angle_beta                  54.294382
_cell_angle_gamma                 90.000036
_cell_volume                      19799.2182746

loop_
_atom_site_label
_atom_site_type_symbol
_atom_type_description
_atom_site_fract_x
_atom_site_fract_y
_atom_site_fract_z
_atom_type_partial_charge
C1    C     C_R   0.086171 0.499952 0.412536 0.881096
C2    C     C_R   0.913829 0.499952 0.587464 0.881096
C3    C     C_R   0.586171 0.999952 0.412537 0.880992
C4    C     C_R   0.413828 0.999952 0.587463 0.880993
C5    C     C_R   0.033215 0.530069 0.684202 0.101653
C6    C     C_R   0.966785 0.530070 0.315797 0.101652
C7    C     C_R   0.533222 0.030066 0.684195 0.101561
C8    C     C_R   0.466778 0.030066 0.315806 0.101561
C9    C     C_R   0.004788 0.500495 0.681455 -0.114824
C10   C     C_R   0.995212 0.500495 0.318545 -0.114826
C11   C     C_R   0.504790 0.000495 0.681452 -0.115174
C12   C     C_R   0.495210 0.000495 0.318548 -0.115174
C13   C     C_R   0.975914 0.472887 0.742583 -0.184513
C14   C     C_R   0.024084 0.472886 0.257418 -0.184509
C15   C     C_R   0.475912 0.972893 0.742585 -0.184851
C16   C     C_R   0.524089 0.972893 0.257415 -0.184851
C17   C     C_R   0.974039 0.474720 0.807935 -0.201379
C18   C     C_R   0.025960 0.474718 0.192066 -0.201379
C19   C     C_R   0.474036 0.974727 0.807937 -0.201327
C20   C     C_R   0.525965 0.974728 0.192062 -0.201326
C21   C     C_R   0.000802 0.504399 0.812976 -0.111019
C22   C     C_R   0.999197 0.504399 0.187024 -0.111018
C23   C     C_R   0.500804 0.004402 0.812973 -0.112197
C24   C     C_R   0.499196 0.004402 0.187027 -0.112198
C25   C     C_R   0.203684 0.470614 0.258832 -0.191187
C26   C     C_R   0.796316 0.470612 0.741164 -0.191188
C27   C     C_R   0.703685 0.970628 0.258810 -0.191344
C28   C     C_R   0.296315 0.970628 0.741189 -0.191345
C29   C     C_R   0.157887 0.469764 0.303251 0.155072
C30   C     C_R   0.842113 0.469763 0.696746 0.155074
C31   C     C_R   0.657887 0.969775 0.303235 0.154897
C32   C     C_R   0.342113 0.969775 0.696765 0.154897
C33   C     C_R   0.133963 0.499939 0.363973 -0.068261
C34   C     C_R   0.866037 0.499939 0.636027 -0.068262
C35   C     C_R   0.633963 0.999940 0.363973 -0.068480
C36   C     C_R   0.366037 0.999940 0.636027 -0.068480
C37   C     C_R   0.156132 0.530814 0.378628 -0.225004
C38   C     C_R   0.843868 0.530815 0.621375 -0.225006
C39   C     C_R   0.656132 0.030807 0.378641 -0.225196
C40   C     C_R   0.343868 0.030807 0.621359 -0.225196
C41   C     C_R   0.201876 0.531351 0.334033 -0.166919
C42   C     C_R   0.798124 0.531352 0.665970 -0.166921
C43   C     C_R   0.701876 0.031345 0.334044 -0.167078
C44   C     C_R   0.298124 0.031345 0.665956 -0.167076
C45   C     C_R   0.002015 0.500044 0.618041 0.875826
C46   C     C_R   0.997985 0.500044 0.381959 0.875828
C47   C     C_R   0.502016 0.000044 0.618039 0.875897
C48   C     C_R   0.497984 0.000044 0.381960 0.875898
C49   C     C_R   0.225718 0.501258 0.274032 0.068360
C50   C     C_R   0.774282 0.501258 0.725967 0.068363
C51   C     C_R   0.725718 0.001264 0.274025 0.068113
C52   C     C_R   0.274282 0.001264 0.725974 0.068113
C53   C     C_R   0.297002 0.501080 0.146955 -0.172421
C54   C     C_R   0.702998 0.501073 0.853044 -0.172420
C55   C     C_R   0.797002 0.001121 0.146950 -0.172507
C56   C     C_R   0.202997 0.001120 0.853050 -0.172505
C57   C     C_R   0.342734 0.500565 0.101286 -0.187022
C58   C     C_R   0.657265 0.500558 0.898714 -0.187023
C59   C     C_R   0.842735 0.000606 0.101281 -0.188857
C60   C     C_R   0.157265 0.000605 0.898719 -0.188858
C61   C     C_R   0.365602 0.500961 0.134681 -0.036113
C62   C     C_R   0.634398 0.500961 0.865319 -0.036112
C63   C     C_R   0.865602 0.000962 0.134679 -0.036162
C64   C     C_R   0.134398 0.000962 0.865321 -0.036162
C65   C     C_R   0.342240 0.502269 0.214247 -0.193330
C66   C     C_R   0.657760 0.502276 0.785754 -0.193330
C67   C     C_R   0.842238 0.002233 0.214247 -0.191518
C68   C     C_R   0.157762 0.002234 0.785753 -0.191518
C69   C     C_R   0.296431 0.502845 0.259927 -0.172569
C70   C     C_R   0.703569 0.502852 0.740073 -0.172570
C71   C     C_R   0.796429 0.002812 0.259926 -0.172609
C72   C     C_R   0.203571 0.002812 0.740074 -0.172608
C73   C     C_R   0.273741 0.501999 0.226349 0.125838
C74   C     C_R   0.726258 0.501999 0.773651 0.125840
C75   C     C_R   0.773741 0.002004 0.226344 0.125842
C76   C     C_R   0.226259 0.002004 0.773656 0.125842
C77   C     C_R   1.000000 0.634131 1.000000 -0.018825
C78   C     C_R   0.500000 0.134131 1.000000 -0.018886
C79   C     C_R   0.037065 0.702947 0.941085 -0.172720
C80   C     C_R   0.962935 0.702947 0.058915 -0.172721
C81   C     C_R   0.537065 0.202947 0.941085 -0.172714
C82   C     C_R   0.462935 0.202947 0.058915 -0.172713
C83   C     C_R   0.500000 0.726044 0.000000 0.108962
C84   C     C_R   1.000000 0.226051 0.000000 0.108331
C85   C     C_R   0.037178 0.657144 0.941298 -0.192756
C86   C     C_R   0.962822 0.657144 0.058702 -0.192756
C87   C     C_R   0.537178 0.157144 0.941299 -0.192745
C88   C     C_R   0.462822 0.157144 0.058701 -0.192745
C89   C     C_R   1.000000 0.725879 1.000000 0.110464
C90   C     C_R   0.500000 0.225879 1.000000 0.110409
C91   C     C_R   1.000000 0.413708 0.000000 0.871953
C92   C     C_R   0.500000 0.913705 0.000000 0.871849
C93   C     C_R   0.000137 0.501883 0.879812 0.874039
C94   C     C_R   0.999863 0.501883 0.120188 0.874039
C95   C     C_R   0.500138 0.001885 0.879812 0.874005
C96   C     C_R   0.499862 0.001885 0.120188 0.874005
C97   C     C_R   0.489158 0.296781 0.065059 -0.174178
C98   C     C_R   0.510842 0.296781 0.934941 -0.174178
C99   C     C_R   0.989158 0.796781 0.065058 -0.174187
C100  C     C_R   0.010842 0.796781 0.934941 -0.174187
C101  C     C_R   0.000000 0.586229 0.000000 0.837454
C102  C     C_R   0.500000 0.086230 1.000000 0.837605
C103  C     C_R   0.500000 0.413679 1.000000 0.871941
C104  C     C_R   0.000000 0.913679 1.000000 0.871951
C105  C     C_R   0.413644 0.500216 0.086484 0.871966
C106  C     C_R   0.586356 0.500216 0.913516 0.871965
C107  C     C_R   0.913644 0.000216 0.086483 0.871984
C108  C     C_R   0.086356 0.000216 0.913516 0.871983
C109  C     C_R   0.489379 0.342587 0.064953 -0.188019
C110  C     C_R   0.510621 0.342587 0.935047 -0.188019
C111  C     C_R   0.989379 0.842587 0.064952 -0.188045
C112  C     C_R   0.010620 0.842587 0.935047 -0.188045
C113  C     C_R   0.500000 0.586314 0.000000 0.869887
C114  C     C_R   0.000000 0.086316 0.000000 0.870044
C115  C     C_R   0.037947 0.296889 0.980073 -0.171999
C116  C     C_R   0.962052 0.296889 0.019927 -0.171999
C117  C     C_R   0.538107 0.796877 0.943988 -0.172349
C118  C     C_R   0.461893 0.796877 0.056012 -0.172349
C119  C     C_R   0.500000 0.634281 0.000000 -0.032109
C120  C     C_R   1.000000 0.134285 0.000000 -0.033010
C121  C     C_R   0.038055 0.342689 0.979610 -0.186467
C122  C     C_R   0.961945 0.342689 0.020390 -0.186468
C123  C     C_R   0.538214 0.842679 0.944245 -0.185982
C124  C     C_R   0.461786 0.842679 0.055755 -0.185982
C125  C     C_R   1.000000 0.365745 0.000000 -0.033153
C126  C     C_R   0.500000 0.865738 0.000000 -0.034566
C127  C     C_R   0.500000 0.273851 1.000000 0.110304
C128  C     C_R   1.000000 0.773851 1.000000 0.110355
C129  C     C_R   0.500000 0.365672 1.000000 -0.033300
C130  C     C_R   1.000000 0.865672 1.000000 -0.033263
C131  C     C_R   1.000000 0.273984 0.000000 0.108374
C132  C     C_R   0.500000 0.773975 0.000000 0.109052
C133  C     C_R   0.487267 0.703142 0.066158 -0.173082
C134  C     C_R   0.512733 0.703142 0.933842 -0.173083
C135  C     C_R   0.987570 0.203147 0.959047 -0.173284
C136  C     C_R   0.012429 0.203147 0.040953 -0.173285
C137  C     C_R   0.487527 0.657340 0.066047 -0.188576
C138  C     C_R   0.512473 0.657340 0.933952 -0.188577
C139  C     C_R   0.987823 0.157346 0.958648 -0.188577
C140  C     C_R   0.012177 0.157346 0.041352 -0.188578
C141  C     C_R   0.065228 0.555852 0.620705 -0.173263
C142  C     C_R   0.934773 0.555853 0.379294 -0.173263
C143  C     C_R   0.565237 0.055844 0.620694 -0.173624
C144  C     C_R   0.434762 0.055843 0.379307 -0.173623
C145  C     C_R   0.090839 0.586550 0.626928 -0.140375
C146  C     C_R   0.909163 0.586553 0.373069 -0.140374
C147  C     C_R   0.590854 0.086539 0.626911 -0.140306
C148  C     C_R   0.409145 0.086537 0.373090 -0.140306
C149  C     C_R   0.085115 0.592149 0.696070 -0.138181
C150  C     C_R   0.914887 0.592152 0.303927 -0.138182
C151  C     C_R   0.585132 0.092138 0.696051 -0.138324
C152  C     C_R   0.414867 0.092137 0.303950 -0.138324
C153  C     C_R   0.054908 0.565941 0.758479 -0.172611
C154  C     C_R   0.945094 0.565943 0.241519 -0.172610
C155  C     C_R   0.554921 0.065934 0.758464 -0.172944
C156  C     C_R   0.445079 0.065934 0.241536 -0.172944
C157  C     C_R   0.029784 0.533426 0.752460 0.101419
C158  C     C_R   0.970217 0.533427 0.247539 0.101418
C159  C     C_R   0.529791 0.033423 0.752452 0.101421
C160  C     C_R   0.470208 0.033423 0.247548 0.101421
H1    H     H_    0.066049 0.639766 0.895339 0.147844
H2    H     H_    0.933951 0.639766 0.104661 0.147844
H3    H     H_    0.566049 0.139766 0.895339 0.147856
H4    H     H_    0.433951 0.139766 0.104660 0.147856
H5    H     H_    0.138022 0.554239 0.425048 0.146043
H6    H     H_    0.861978 0.554241 0.574957 0.146046
H7    H     H_    0.638022 0.054224 0.425073 0.146107
H8    H     H_    0.361978 0.054224 0.574928 0.146107
H9    H     H_    0.218654 0.555498 0.345720 0.137307
H10   H     H_    0.781346 0.555500 0.654285 0.137307
H11   H     H_    0.718655 0.055484 0.345743 0.137682
H12   H     H_    0.281345 0.055484 0.654258 0.137681
H13   H     H_    0.279751 0.500939 0.120395 0.139558
H14   H     H_    0.720248 0.500927 0.879605 0.139556
H15   H     H_    0.779752 0.001008 0.120388 0.139462
H16   H     H_    0.220248 0.001006 0.879611 0.139461
H17   H     H_    0.360091 0.499780 0.039985 0.160330
H18   H     H_    0.639909 0.499766 0.960015 0.160330
H19   H     H_    0.860093 0.999850 0.039979 0.159826
H20   H     H_    0.139907 0.999848 0.960021 0.159826
H21   H     H_    0.359270 0.502662 0.241172 0.157349
H22   H     H_    0.640730 0.502675 0.758829 0.157349
H23   H     H_    0.859267 0.002594 0.241175 0.157907
H24   H     H_    0.140733 0.002595 0.758825 0.157907
H25   H     H_    0.278703 0.503210 0.321337 0.133981
H26   H     H_    0.721296 0.503222 0.678663 0.133980
H27   H     H_    0.778699 0.003148 0.321337 0.134005
H28   H     H_    0.221300 0.003150 0.678663 0.134004
H29   H     H_    0.480958 0.359874 0.115716 0.155802
H30   H     H_    0.519042 0.359874 0.884284 0.155802
H31   H     H_    0.980959 0.859874 0.115715 0.155770
H32   H     H_    0.019041 0.859874 0.884284 0.155770
H33   H     H_    0.065951 0.720515 0.895544 0.133979
H34   H     H_    0.934049 0.720515 0.104456 0.133979
H35   H     H_    0.565951 0.220516 0.895545 0.134043
H36   H     H_    0.434049 0.220516 0.104455 0.134043
H37   H     H_    0.480998 0.279207 0.115446 0.134354
H38   H     H_    0.519002 0.279207 0.884554 0.134354
H39   H     H_    0.980999 0.779207 0.115446 0.134310
H40   H     H_    0.019001 0.779207 0.884554 0.134310
H41   H     H_    0.067496 0.279295 0.964199 0.136310
H42   H     H_    0.932504 0.279295 0.035801 0.136310
H43   H     H_    0.567773 0.779279 0.900731 0.135706
H44   H     H_    0.432227 0.779279 0.099269 0.135705
H45   H     H_    0.954249 0.450272 0.740111 0.188799
H46   H     H_    0.045749 0.450270 0.259890 0.188801
H47   H     H_    0.454243 0.950281 0.740117 0.189225
H48   H     H_    0.545758 0.950282 0.259883 0.189225
H49   H     H_    0.067673 0.360007 0.964001 0.156501
H50   H     H_    0.932327 0.360007 0.035999 0.156502
H51   H     H_    0.567959 0.859995 0.900592 0.157251
H52   H     H_    0.432040 0.859995 0.099408 0.157251
H53   H     H_    0.477604 0.720740 0.117412 0.136603
H54   H     H_    0.522396 0.720740 0.882588 0.136603
H55   H     H_    0.978149 0.220741 0.926904 0.137249
H56   H     H_    0.021851 0.220741 0.073096 0.137249
H57   H     H_    0.477639 0.640022 0.117638 0.155478
H58   H     H_    0.522361 0.640022 0.882362 0.155478
H59   H     H_    0.978168 0.140034 0.926630 0.156279
H60   H     H_    0.021832 0.140034 0.073370 0.156279
H61   H     H_    0.071263 0.552239 0.565600 0.142728
H62   H     H_    0.928737 0.552241 0.434399 0.142730
H63   H     H_    0.571269 0.052232 0.565591 0.142753
H64   H     H_    0.428730 0.052232 0.434410 0.142752
H65   H     H_    0.114964 0.606290 0.578074 0.132586
H66   H     H_    0.885039 0.606293 0.421922 0.132586
H67   H     H_    0.614980 0.106275 0.578055 0.132816
H68   H     H_    0.385019 0.106274 0.421947 0.132816
H69   H     H_    0.104387 0.616638 0.701241 0.133031
H70   H     H_    0.895616 0.616642 0.298755 0.133030
H71   H     H_    0.604407 0.116624 0.701217 0.133214
H72   H     H_    0.395591 0.116623 0.298784 0.133214
H73   H     H_    0.051178 0.571886 0.811295 0.145975
H74   H     H_    0.948824 0.571887 0.188703 0.145974
H75   H     H_    0.551192 0.071879 0.811279 0.146178
H76   H     H_    0.448807 0.071879 0.188722 0.146179
H77   H     H_    0.952032 0.452437 0.854460 0.164015
H78   H     H_    0.047966 0.452436 0.145541 0.164014
H79   H     H_    0.452023 0.952451 0.854466 0.166356
H80   H     H_    0.547978 0.952451 0.145533 0.166357
H81   H     H_    0.222156 0.447318 0.212307 0.157665
H82   H     H_    0.777844 0.447315 0.787686 0.157663
H83   H     H_    0.722158 0.947342 0.212271 0.157812
H84   H     H_    0.277842 0.947341 0.787728 0.157811
O1    O     O_R   0.065470 0.536950 0.434540 -0.632472
O2    O     O_R   0.934530 0.536950 0.565460 -0.632474
O3    O     O_R   0.565470 0.036950 0.434540 -0.632405
O4    O     O_R   0.434530 0.036950 0.565460 -0.632404
O5    O     O_R   0.434530 0.500010 0.117180 -0.627898
O6    O     O_R   0.565470 0.500010 0.882820 -0.627898
O7    O     O_R   0.934530 0.000010 0.117180 -0.625942
O8    O     O_R   0.065470 0.000010 0.882820 -0.625942
O9    O     O_R   0.434520 0.500010 0.013750 -0.624014
O10   O     O_R   0.565480 0.500010 0.986250 -0.624015
O11   O     O_R   0.934520 0.000010 0.013750 -0.625974
O12   O     O_R   0.065480 0.000010 0.986250 -0.625975
O13   O     O_R   0.500010 0.565480 0.051720 -0.624521
O14   O     O_R   0.499990 0.565480 0.948280 -0.624521
O15   O     O_R   0.000010 0.065480 0.051720 -0.624659
O16   O     O_R   0.999990 0.065480 0.948280 -0.624658
O17   O     O_R   0.065460 0.463040 0.434540 -0.589570
O18   O     O_R   0.934540 0.463040 0.565460 -0.589569
O19   O     O_R   0.565460 0.963040 0.434540 -0.589774
O20   O     O_R   0.434540 0.963040 0.565460 -0.589775
O21   O     O_R   0.000010 0.536950 0.591610 -0.625579
O22   O     O_R   0.999990 0.536950 0.408390 -0.625579
O23   O     O_R   0.500010 0.036950 0.591610 -0.625459
O24   O     O_R   0.499990 0.036950 0.408390 -0.625459
O25   O     O_R   1.000000 0.463040 0.591610 -0.605171
O26   O     O_R   0.000000 0.463040 0.408390 -0.605170
O27   O     O_R   0.500000 0.963040 0.591610 -0.605366
O28   O     O_R   0.500000 0.963040 0.408390 -0.605365
O29   O     O_R   0.963040 0.434520 0.036950 -0.622088
O30   O     O_R   0.036960 0.434520 0.963050 -0.622089
O31   O     O_R   0.463040 0.934520 0.036950 -0.622198
O32   O     O_R   0.536960 0.934520 0.963050 -0.622199
O33   O     O_R   0.963030 0.499980 0.945350 -0.616168
O34   O     O_R   0.036970 0.499980 0.054650 -0.616167
O35   O     O_R   0.463030 0.999980 0.945350 -0.614018
O36   O     O_R   0.536970 0.999980 0.054650 -0.614018
O37   O     O_R   0.036950 0.500000 0.871430 -0.623166
O38   O     O_R   0.963050 0.500000 0.128570 -0.623165
O39   O     O_R   0.536950 0.000000 0.871430 -0.625401
O40   O     O_R   0.463050 0.000000 0.128570 -0.625401
O41   O     O_R   0.963030 0.565450 0.036970 -0.630511
O42   O     O_R   0.036970 0.565450 0.963030 -0.630511
O43   O     O_R   0.463030 0.065450 0.036970 -0.630478
O44   O     O_R   0.536970 0.065450 0.963030 -0.630477
O45   O     O_R   0.499990 0.434540 0.051720 -0.624479
O46   O     O_R   0.500010 0.434540 0.948280 -0.624478
O47   O     O_R   0.999990 0.934540 0.051720 -0.624472
O48   O     O_R   0.000010 0.934540 0.948280 -0.624471
Zn1   Zn    Zn3+2 1.000000 0.549350 0.500000 0.958494
Zn2   Zn    Zn3+2 0.500000 0.049350 0.500000 0.958540
Zn3   Zn    Zn3+2 0.000000 0.450640 0.500000 1.027102
Zn4   Zn    Zn3+2 0.500000 0.950640 0.500000 1.026546
Zn5   Zn    Zn3+2 0.950640 0.499980 0.049350 0.956436
Zn6   Zn    Zn3+2 0.049360 0.499980 0.950650 0.956436
Zn7   Zn    Zn3+2 0.450640 0.999980 0.049350 0.956165
Zn8   Zn    Zn3+2 0.549360 0.999980 0.950650 0.956165
Zn9   Zn    Zn3+2 0.500000 0.500010 0.069060 0.949644
Zn10  Zn    Zn3+2 0.500000 0.500010 0.930940 0.949645
Zn11  Zn    Zn3+2 1.000000 0.000010 0.069060 0.949543
Zn12  Zn    Zn3+2 1.000000 0.000010 0.930940 0.949543
I1    I     I_    0.128244 0.424286 0.270627 -0.394623
I2    I     I_    0.871756 0.424282 0.729366 -0.394620
I3    I     I_    0.628243 0.924306 0.270602 -0.392493
I4    I     I_    0.371757 0.924306 0.729397 -0.392493

loop_
_geom_bond_atom_site_label_1
_geom_bond_atom_site_label_2
_ccdc_geom_bond_type
C104  O48   A    
C4    C36   S    
C111  H31   S    
C55   C59   A    
C142  C146  A    
C77   C101  S    
C105  O9    A    
C136  C140  A    
C133  C137  A    
C96   O40   A    
C154  C158  A    
C26   C50   A    
C7    C159  A    
C29   C33   A    
C85   H1    S    
C117  C132  A    
C149  C153  A    
C80   C86   A    
C42   H10   S    
C2    O18   A    
C54   C74   A    
C11   C15   A    
C140  H60   S    
O5    Zn9   S    
C12   C16   A    
C31   I3    S    
C70   C74   A    
O19   Zn4   S    
C151  C155  A    
C92   O32   A    
C61   C105  S    
C93   O33   A    
C141  C145  A    
C94   O38   A    
C2    C34   S    
C45   O21   A    
C66   H22   S    
C41   C49   A    
O31   Zn7   S    
C25   C29   A    
C27   C31   A    
C96   O36   A    
C28   C32   A    
C62   C66   A    
C123  C126  A    
C145  H65   S    
C110  H30   S    
C17   C21   A    
O23   Zn2   S    
C135  C139  A    
C44   H12   S    
C111  C130  A    
C91   O29   A    
C68   C72   A    
C154  H74   S    
O44   Zn8   S    
C101  O41   A    
C118  C124  A    
C116  C122  A    
C81   C90   A    
C98   C127  A    
C143  C147  A    
C95   O39   A    
C14   H46   S    
O36   Zn8   S    
C49   C73   S    
C113  O14   A    
C69   H25   S    
C79   C85   A    
O16   Zn12  S    
C47   O23   A    
C68   H24   S    
C43   H11   S    
C91   C125  S    
C118  H44   S    
C71   H27   S    
C134  H54   S    
O37   Zn6   S    
C57   C61   A    
C99   C128  A    
C62   C106  S    
O40   Zn7   S    
C59   C63   A    
C150  H70   S    
C60   C64   A    
C106  O6    A    
C24   C96   S    
C30   I2    S    
C88   H4    S    
C54   H14   S    
O34   Zn6   S    
C21   C93   S    
C115  H41   S    
C23   C95   S    
O24   Zn2   S    
O25   Zn3   S    
C61   C65   A    
C137  H57   S    
C1    O1    A    
C28   H84   S    
C141  H61   S    
C78   C87   A    
C84   C135  A    
C115  C121  A    
C148  H68   S    
C7    C143  A    
C53   H13   S    
C66   C70   A    
O14   Zn10  S    
C5    C9    A    
C108  O8    A    
O22   Zn1   S    
C64   C68   A    
C50   C74   S    
C103  O45   A    
C81   H35   S    
O35   Zn7   S    
C110  C129  A    
C102  O44   A    
C9    C13   A    
C151  H71   S    
C23   C159  A    
O7    Zn11  S    
C122  H50   S    
C120  C140  A    
C114  O15   A    
C4    O20   A    
C55   C75   A    
C44   C52   A    
C77   C85   A    
C46   O26   A    
C146  C150  A    
C22   C94   S    
C6    C158  A    
C27   C51   A    
C64   C108  S    
C30   C34   A    
C155  C159  A    
C97   H37   S    
C156  C160  A    
C10   C14   A    
C147  H67   S    
C37   H5    S    
O6    Zn10  S    
C147  C151  A    
C121  C125  A    
C19   H79   S    
C94   O34   A    
C97   C109  A    
C3    C35   S    
C8    C12   A    
C99   C111  A    
O21   Zn1   S    
C107  O11   A    
C58   H18   S    
C67   H23   S    
C42   C50   A    
C100  H40   S    
C26   C30   A    
O17   Zn3   S    
C109  C129  A    
O33   Zn5   S    
C124  C126  A    
C100  C128  A    
C119  C138  A    
C91   O30   A    
C148  C152  A    
C52   C76   S    
C27   H83   S    
C25   H81   S    
C79   H33   S    
C13   C17   A    
C149  H69   S    
C122  C125  A    
O8    Zn12  S    
C57   H17   S    
C156  H76   S    
C82   C88   A    
C37   C41   A    
O29   Zn5   S    
C79   C89   A    
C118  C132  A    
C70   H26   S    
C139  H59   S    
C40   C44   A    
C48   O28   A    
C104  C130  S    
C112  C130  A    
C15   H47   S    
C18   H78   S    
O38   Zn5   S    
C152  H72   S    
C58   C62   A    
C9    C45   S    
C98   C110  A    
C78   C102  S    
O45   Zn9   S    
C106  O10   A    
C11   C47   S    
C12   C48   S    
O47   Zn11  S    
C15   C19   A    
O3    Zn2   S    
O43   Zn7   S    
C80   C89   A    
C83   C134  A    
C113  C119  S    
C90   C127  S    
C69   C73   A    
C6    C142  A    
C82   H36   S    
C144  C148  A    
C104  O47   A    
C18   C22   A    
C108  O12   A    
C3    O3    A    
O9    Zn10  S    
O32   Zn8   S    
C53   C57   A    
C65   H21   S    
C22   C158  A    
C33   C37   A    
C56   C60   A    
C35   C39   A    
C112  H32   S    
C46   O22   A    
C24   C160  A    
C153  H73   S    
C92   O31   A    
C103  C129  S    
C81   C87   A    
O28   Zn4   S    
C56   H16   S    
C100  C112  A    
C5    C157  A    
C72   H28   S    
C40   H8    S    
C31   C35   A    
C8    C160  A    
C32   C36   A    
C78   C88   A    
C38   H6    S    
C32   I4    S    
O41   Zn5   S    
C92   C126  S    
C6    C10   A    
C60   H20   S    
C124  H52   S    
O2    Zn1   S    
C82   C90   A    
C107  O7    A    
C20   H80   S    
C59   H19   S    
C2    O2    A    
C105  O5    A    
C83   C132  S    
C43   C51   A    
C41   H9    S    
C65   C69   A    
C101  O42   A    
C67   C71   A    
C153  C157  A    
C25   C49   A    
C99   H39   S    
C145  C149  A    
O20   Zn4   S    
C114  O16   A    
C114  C120  S    
C89   C128  S    
C87   H3    S    
C56   C76   A    
C14   C18   A    
C19   C23   A    
C97   C127  A    
C93   O37   A    
C1    C33   S    
C115  C131  A    
C7    C11   A    
C152  C156  A    
C51   C75   S    
C38   C42   A    
O30   Zn6   S    
C143  H63   S    
O46   Zn10  S    
C48   O24   A    
O11   Zn12  S    
C4    O4    A    
O12   Zn11  S    
O26   Zn3   S    
O39   Zn8   S    
C135  H55   S    
C20   C24   A    
C109  H29   S    
C123  H51   S    
C10   C46   S    
O48   Zn12  S    
C86   H2    S    
C83   C133  A    
C121  H49   S    
C16   C20   A    
C63   C67   A    
C95   O35   A    
C98   H38   S    
O4    Zn2   S    
C119  C137  A    
C36   C40   A    
O1    Zn1   S    
C103  O46   A    
C39   C43   A    
C102  O43   A    
C47   O27   A    
C5    C141  A    
C155  H75   S    
C72   C76   A    
C8    C144  A    
C120  C139  A    
C29   I1    S    
C55   H15   S    
O10   Zn9   S    
C1    O17   A    
C77   C86   A    
C3    O19   A    
C63   C107  S    
C54   C58   A    
C113  O13   A    
C34   C38   A    
C21   C157  A    
C53   C73   A    
C16   H48   S    
C134  C138  A    
C116  H42   S    
C26   H82   S    
C80   H34   S    
C84   C131  S    
C133  H53   S    
C117  C123  A    
C71   C75   A    
C28   C52   A    
O13   Zn9   S    
C116  C131  A    
O15   Zn11  S    
C45   O25   A    
C13   H45   S    
C39   H7    S    
O27   Zn4   S    
C144  H64   S    
C138  H58   S    
C150  C154  A    
O18   Zn3   S    
O42   Zn6   S    
C136  H56   S    
C117  H43   S    
C146  H66   S    
C142  H62   S    
C84   C136  A    
C17   H77   S    
