data_mof_unit_64458.cif
_audit_creation_date              2012-12-10T16:50:19-0500
_audit_creation_method            fapswitch 2.2
_symmetry_space_group_name_H-M    P1
_symmetry_Int_Tables_number       1
_space_group_crystal_system       triclinic
_cell_length_a                    26.238726
_cell_length_b                    26.245706
_cell_length_c                    22.274825
_cell_angle_alpha                 89.999214
_cell_angle_beta                  53.984374
_cell_angle_gamma                 89.997824
_cell_volume                      12407.5738964

loop_
_atom_site_label
_atom_site_type_symbol
_atom_type_description
_atom_site_fract_x
_atom_site_fract_y
_atom_site_fract_z
_atom_type_partial_charge
C1    C     C_R   0.650533 0.750065 0.699047 0.815104
C2    C     C_R   0.650532 0.249935 0.699048 0.814431
C3    C     C_R   0.150533 0.250065 0.699047 0.815095
C4    C     C_R   0.150532 0.749935 0.699048 0.814434
C5    C     C_2   0.949662 0.758951 0.487458 -0.141646
C6    C     C_2   0.949716 0.241051 0.487453 -0.144045
C7    C     C_2   0.449666 0.258947 0.487446 -0.141646
C8    C     C_2   0.449716 0.741051 0.487455 -0.144039
C9    C     C_3   0.031438 0.734140 0.043202 -0.388543
C10   C     C_3   0.031356 0.266132 0.043203 -0.388582
C11   C     C_3   0.532168 0.236820 0.043201 -0.388529
C12   C     C_3   0.531357 0.766130 0.043203 -0.388582
C13   C     C_3   0.965729 0.803829 0.042984 -0.388781
C14   C     C_3   0.966013 0.196106 0.042982 -0.388958
C15   C     C_3   0.463046 0.303119 0.042978 -0.388737
C16   C     C_3   0.466010 0.696106 0.042982 -0.388962
C17   C     C_3   0.008813 0.803794 0.956878 -0.388801
C18   C     C_3   0.009097 0.196141 0.956876 -0.388644
C19   C     C_3   0.506130 0.303085 0.956872 -0.388676
C20   C     C_3   0.509095 0.696141 0.956876 -0.388647
C21   C     C_1   0.110841 0.749911 0.778475 -0.132581
C22   C     C_1   0.110843 0.250089 0.778474 -0.132486
C23   C     C_1   0.610842 0.249912 0.778475 -0.132585
C24   C     C_1   0.610843 0.750089 0.778474 -0.132481
C25   C     C_3   0.963423 0.750002 0.073148 0.345350
C26   C     C_3   0.963425 0.249997 0.073148 0.345311
C27   C     C_3   0.463424 0.250002 0.073148 0.345354
C28   C     C_3   0.463425 0.749997 0.073148 0.345314
C29   C     C_3   0.074522 0.734105 0.957095 -0.386955
C30   C     C_3   0.074440 0.266167 0.957096 -0.386986
C31   C     C_3   0.575252 0.236786 0.957095 -0.387125
C32   C     C_3   0.574441 0.766165 0.957096 -0.386981
C33   C     C_3   0.036619 0.749944 0.926862 0.345509
C34   C     C_3   0.036621 0.250056 0.926861 0.345414
C35   C     C_3   0.536619 0.249944 0.926862 0.345523
C36   C     C_3   0.536621 0.750056 0.926861 0.345411
C37   C     C_3   0.981353 0.711968 0.956883 -0.390705
C38   C     C_3   0.981158 0.287825 0.956884 -0.390759
C39   C     C_3   0.483308 0.209996 0.956889 -0.390680
C40   C     C_3   0.481159 0.787826 0.956884 -0.390759
C41   C     C_3   0.938269 0.712002 0.042989 -0.388485
C42   C     C_3   0.938073 0.287790 0.042989 -0.388248
C43   C     C_3   0.440225 0.210031 0.042995 -0.388539
C44   C     C_3   0.438075 0.787791 0.042989 -0.388252
C45   C     C_R   0.849520 0.750020 0.300957 0.827560
C46   C     C_R   0.849520 0.249979 0.300958 0.827932
C47   C     C_R   0.349520 0.250020 0.300957 0.827563
C48   C     C_R   0.349520 0.749979 0.300958 0.827927
C49   C     C_1   0.077432 0.749916 0.845286 -0.126256
C50   C     C_1   0.077434 0.250084 0.845285 -0.126071
C51   C     C_1   0.577432 0.249916 0.845286 -0.126258
C52   C     C_1   0.577434 0.750084 0.845285 -0.126067
C53   C     C_1   0.922612 0.750031 0.154723 -0.125514
C54   C     C_1   0.922612 0.249968 0.154723 -0.125475
C55   C     C_1   0.422612 0.250031 0.154723 -0.125512
C56   C     C_1   0.422612 0.749968 0.154723 -0.125479
C57   C     C_1   0.889205 0.750038 0.221532 -0.134781
C58   C     C_1   0.889205 0.249961 0.221533 -0.134914
C59   C     C_1   0.389205 0.250038 0.221532 -0.134778
C60   C     C_1   0.389205 0.749961 0.221533 -0.134918
C61   C     C_2   0.742550 0.028048 0.456775 -0.164198
C62   C     C_2   0.740658 0.971953 0.458386 -0.165281
C63   C     C_2   0.242551 0.528048 0.456775 -0.164194
C64   C     C_2   0.240660 0.471953 0.458385 -0.165288
C65   C     C_2   0.748133 0.056074 0.502990 -0.286844
C66   C     C_2   0.752439 0.943924 0.499322 -0.287747
C67   C     C_2   0.248134 0.556074 0.502990 -0.286848
C68   C     C_2   0.252439 0.443924 0.499322 -0.287745
C69   C     C_2   0.800646 0.471941 0.456944 -0.162357
C70   C     C_2   0.800911 0.528056 0.458460 -0.163438
C71   C     C_2   0.300646 0.971941 0.456944 -0.162358
C72   C     C_2   0.300911 0.028056 0.458460 -0.163441
C73   C     C_2   0.748886 0.443884 0.502929 -0.291561
C74   C     C_2   0.748290 0.556117 0.499499 -0.292086
C75   C     C_2   0.248886 0.943884 0.502929 -0.291557
C76   C     C_2   0.248290 0.056117 0.499499 -0.292083
C77   C     C_R   0.749937 0.611397 0.499883 0.855568
C78   C     C_R   0.749998 0.388603 0.500242 0.857239
C79   C     C_R   0.249937 0.111397 0.499883 0.855563
C80   C     C_R   0.249998 0.888603 0.500242 0.857238
C81   C     C_R   0.750265 0.888668 0.499856 0.853368
C82   C     C_R   0.749815 0.111331 0.500239 0.854573
C83   C     C_R   0.250265 0.388668 0.499856 0.853382
C84   C     C_R   0.249815 0.611331 0.500239 0.854573
C85   C     C_R   0.610931 0.750705 0.500992 0.858905
C86   C     C_R   0.610933 0.249303 0.500985 0.860371
C87   C     C_R   0.110930 0.250706 0.500993 0.858908
C88   C     C_R   0.110934 0.749303 0.500984 0.860357
C89   C     C_R   0.889461 0.751073 0.498619 0.786421
C90   C     C_R   0.889470 0.248922 0.498607 0.782993
C91   C     C_R   0.389462 0.251073 0.498618 0.786444
C92   C     C_R   0.389470 0.748922 0.498607 0.782987
C93   C     C_2   0.049331 0.721174 0.457244 -0.126620
C94   C     C_2   0.049318 0.278857 0.457274 -0.113420
C95   C     C_2   0.549308 0.221146 0.457287 -0.126565
C96   C     C_2   0.549323 0.778852 0.457265 -0.113430
C97   C     C_2   0.052946 0.746423 0.506837 -0.244806
C98   C     C_2   0.052932 0.253610 0.506871 -0.249076
C99   C     C_2   0.552942 0.246426 0.506844 -0.244774
C100  C     C_2   0.552933 0.753610 0.506870 -0.249089
C101  C     C_2   0.990224 0.719440 0.463840 -0.255713
C102  C     C_2   0.990228 0.280557 0.463835 -0.250966
C103  C     C_2   0.490196 0.219417 0.463894 -0.255723
C104  C     C_2   0.490234 0.780553 0.463824 -0.250966
H1    H     H_    0.089050 0.699081 0.413364 0.174620
H2    H     H_    0.089032 0.300955 0.413400 0.172988
H3    H     H_    0.589010 0.199023 0.413437 0.174614
H4    H     H_    0.589040 0.800943 0.413385 0.172990
H5    H     H_    0.981130 0.816080 0.936156 0.170837
H6    H     H_    0.981479 0.183659 0.936153 0.170962
H7    H     H_    0.477877 0.313447 0.936150 0.170838
H8    H     H_    0.481476 0.683661 0.936153 0.170962
H9    H     H_    0.936304 0.672919 0.063660 0.168664
H10   H     H_    0.935903 0.326916 0.063661 0.168737
H11   H     H_    0.440209 0.171416 0.063670 0.168728
H12   H     H_    0.435906 0.826917 0.063661 0.168739
H13   H     H_    0.889449 0.722614 0.063501 0.169673
H14   H     H_    0.889309 0.276980 0.063501 0.169808
H15   H     H_    0.390920 0.218694 0.063508 0.169585
H16   H     H_    0.389310 0.776983 0.063501 0.169802
H17   H     H_    0.000019 0.672868 0.936320 0.168353
H18   H     H_    0.999619 0.326967 0.936321 0.168355
H19   H     H_    0.503924 0.171366 0.936330 0.168550
H20   H     H_    0.499622 0.826969 0.936321 0.168357
H21   H     H_    0.031188 0.695464 0.063877 0.170326
H22   H     H_    0.030904 0.304859 0.063879 0.170299
H23   H     H_    0.533845 0.198700 0.063880 0.170399
H24   H     H_    0.530906 0.804856 0.063879 0.170299
H25   H     H_    0.094903 0.695413 0.936535 0.171819
H26   H     H_    0.094619 0.304911 0.936537 0.171743
H27   H     H_    0.597560 0.198649 0.936539 0.171909
H28   H     H_    0.594621 0.804908 0.936537 0.171747
H29   H     H_    0.953164 0.722563 0.936161 0.168647
H30   H     H_    0.953025 0.277031 0.936160 0.168777
H31   H     H_    0.454635 0.218643 0.936168 0.168458
H32   H     H_    0.453026 0.777035 0.936160 0.168774
H33   H     H_    0.738445 0.046683 0.416245 0.174910
H34   H     H_    0.729741 0.953320 0.423658 0.174817
H35   H     H_    0.238446 0.546683 0.416244 0.174911
H36   H     H_    0.229744 0.453320 0.423655 0.174819
H37   H     H_    0.750776 0.039178 0.545335 0.155452
H38   H     H_    0.765016 0.960817 0.533206 0.157159
H39   H     H_    0.250776 0.539178 0.545335 0.155451
H40   H     H_    0.265013 0.460817 0.533208 0.157162
H41   H     H_    0.845278 0.453312 0.416620 0.174549
H42   H     H_    0.846490 0.546682 0.423574 0.174392
H43   H     H_    0.345278 0.953312 0.416620 0.174550
H44   H     H_    0.346490 0.046683 0.423573 0.174393
H45   H     H_    0.011959 0.765537 0.553769 0.152185
H46   H     H_    0.011963 0.234469 0.553776 0.151898
H47   H     H_    0.511968 0.265570 0.553750 0.152180
H48   H     H_    0.511961 0.734476 0.553780 0.151901
H49   H     H_    0.703874 0.460770 0.545003 0.152391
H50   H     H_    0.701896 0.539233 0.533640 0.153730
H51   H     H_    0.203874 0.960770 0.545003 0.152392
H52   H     H_    0.201896 0.039233 0.533641 0.153731
H53   H     H_    0.978735 0.683136 0.451049 0.174102
H54   H     H_    0.978687 0.316868 0.451118 0.172320
H55   H     H_    0.478673 0.183102 0.451171 0.174066
H56   H     H_    0.478699 0.816861 0.451093 0.172327
H57   H     H_    0.114487 0.760894 0.936530 0.168551
H58   H     H_    0.114545 0.239531 0.936530 0.168583
H59   H     H_    0.613836 0.265030 0.936525 0.168346
H60   H     H_    0.614544 0.739528 0.936530 0.168588
H61   H     H_    0.050771 0.760945 0.063870 0.169477
H62   H     H_    0.050829 0.239479 0.063871 0.169443
H63   H     H_    0.550121 0.265081 0.063865 0.169380
H64   H     H_    0.550828 0.739476 0.063871 0.169444
H65   H     H_    0.917413 0.816130 0.063497 0.170137
H66   H     H_    0.917762 0.183609 0.063494 0.170140
H67   H     H_    0.414161 0.313497 0.063491 0.170172
H68   H     H_    0.417760 0.683611 0.063494 0.170138
H69   H     H_    0.983851 0.831918 0.063650 0.168389
H70   H     H_    0.984281 0.168163 0.063648 0.168308
H71   H     H_    0.479724 0.332601 0.063639 0.168402
H72   H     H_    0.484278 0.668163 0.063648 0.168307
H73   H     H_    0.047567 0.831867 0.936309 0.167543
H74   H     H_    0.047997 0.168214 0.936307 0.167559
H75   H     H_    0.543440 0.332551 0.936299 0.167643
H76   H     H_    0.547994 0.668214 0.936307 0.167559
O1    O     O_3   0.750030 0.750030 0.500000 -0.490719
O2    O     O_3   0.750030 0.249970 0.500000 -0.490825
O3    O     O_3   0.250030 0.250030 0.500000 -0.490721
O4    O     O_3   0.250030 0.749970 0.500000 -0.490825
O5    O     O_R   0.801570 0.635440 0.457010 -0.643826
O6    O     O_R   0.801570 0.364560 0.457010 -0.644335
O7    O     O_R   0.301570 0.135440 0.457010 -0.643828
O8    O     O_R   0.301570 0.864560 0.457010 -0.644336
O9    O     O_R   0.758570 0.864610 0.542990 -0.632437
O10   O     O_R   0.758570 0.135390 0.542990 -0.631705
O11   O     O_R   0.258570 0.364610 0.542990 -0.632407
O12   O     O_R   0.258570 0.635390 0.542990 -0.631712
O13   O     O_R   0.638020 0.720010 0.663980 -0.639904
O14   O     O_R   0.638020 0.279990 0.663980 -0.640594
O15   O     O_R   0.138020 0.220010 0.663980 -0.639902
O16   O     O_R   0.138020 0.779990 0.663980 -0.640588
O17   O     O_R   0.801960 0.780050 0.336020 -0.638168
O18   O     O_R   0.801960 0.219950 0.336020 -0.638378
O19   O     O_R   0.301960 0.280050 0.336020 -0.638168
O20   O     O_R   0.301960 0.719950 0.336020 -0.638386
O21   O     O_R   0.698090 0.780090 0.663980 -0.633455
O22   O     O_R   0.698090 0.219910 0.663980 -0.634299
O23   O     O_R   0.198090 0.280090 0.663980 -0.633477
O24   O     O_R   0.198090 0.719910 0.663980 -0.634299
O25   O     O_R   0.862050 0.719970 0.336020 -0.637218
O26   O     O_R   0.862050 0.280030 0.336020 -0.637199
O27   O     O_R   0.362050 0.219970 0.336020 -0.637212
O28   O     O_R   0.362050 0.780030 0.336020 -0.637198
O29   O     O_R   0.698510 0.635460 0.542990 -0.640663
O30   O     O_R   0.698510 0.364540 0.542990 -0.639671
O31   O     O_R   0.198510 0.135460 0.542990 -0.640663
O32   O     O_R   0.198510 0.864540 0.542990 -0.639670
O33   O     O_R   0.741470 0.864610 0.457010 -0.647031
O34   O     O_R   0.741470 0.135390 0.457010 -0.647641
O35   O     O_R   0.241470 0.364610 0.457010 -0.647036
O36   O     O_R   0.241470 0.635390 0.457010 -0.647636
O37   O     O_R   0.613960 0.720010 0.542990 -0.637842
O38   O     O_R   0.613960 0.279990 0.542990 -0.636139
O39   O     O_R   0.113960 0.220010 0.542990 -0.637845
O40   O     O_R   0.113960 0.779990 0.542990 -0.636119
O41   O     O_R   0.843120 0.780070 0.542990 -0.592537
O42   O     O_R   0.843120 0.219930 0.542990 -0.599159
O43   O     O_R   0.343120 0.280070 0.542990 -0.592507
O44   O     O_R   0.343120 0.719930 0.542990 -0.599162
O45   O     O_R   0.656940 0.780080 0.457010 -0.648004
O46   O     O_R   0.656940 0.219920 0.457010 -0.648399
O47   O     O_R   0.156940 0.280080 0.457010 -0.648003
O48   O     O_R   0.156940 0.719920 0.457010 -0.648408
O49   O     O_R   0.886110 0.719980 0.457010 -0.648710
O50   O     O_R   0.886110 0.280020 0.457010 -0.646806
O51   O     O_R   0.386110 0.219980 0.457010 -0.648712
O52   O     O_R   0.386110 0.780020 0.457010 -0.646807
Zn1   Zn    Zn3+2 0.823660 0.707100 0.438580 0.969567
Zn2   Zn    Zn3+2 0.823660 0.292900 0.438580 0.970508
Zn3   Zn    Zn3+2 0.323660 0.207100 0.438580 0.969574
Zn4   Zn    Zn3+2 0.323660 0.792900 0.438580 0.970503
Zn5   Zn    Zn3+2 0.676410 0.707120 0.561420 0.977534
Zn6   Zn    Zn3+2 0.676410 0.292880 0.561420 0.979480
Zn7   Zn    Zn3+2 0.176410 0.207120 0.561420 0.977528
Zn8   Zn    Zn3+2 0.176410 0.792880 0.561420 0.979491
Zn9   Zn    Zn3+2 0.737810 0.792950 0.438580 0.967712
Zn10  Zn    Zn3+2 0.737810 0.207050 0.438580 0.968176
Zn11  Zn    Zn3+2 0.237810 0.292950 0.438580 0.967718
Zn12  Zn    Zn3+2 0.237810 0.707050 0.438580 0.968166
Zn13  Zn    Zn3+2 0.762240 0.792950 0.561420 1.003549
Zn14  Zn    Zn3+2 0.762240 0.207050 0.561420 1.003493
Zn15  Zn    Zn3+2 0.262240 0.292950 0.561420 1.003556
Zn16  Zn    Zn3+2 0.262240 0.707050 0.561420 1.003491
C105  C     C_2   0.966324 0.812229 0.493217 0.908287
O53   O     O_2   0.019533 0.828466 0.447381 -0.615464
O54   O     O_R   0.920548 0.844265 0.549690 -0.780406
H77   H     H_    0.937419 0.879541 0.547265 0.343683
C106  C     C_2   0.966903 0.187857 0.492744 0.911558
O55   O     O_2   0.927168 0.159354 0.541551 -0.606644
O56   O     O_R   0.028133 0.169979 0.440448 -0.792762
H78   H     H_    0.033879 0.133323 0.449742 0.343022
C107  C     C_2   0.466375 0.312233 0.493100 0.908215
O57   O     O_2   0.519613 0.328418 0.447269 -0.615465
O58   O     O_R   0.420608 0.344339 0.549456 -0.780401
H79   H     H_    0.437512 0.379614 0.546956 0.343681
C108  C     C_2   0.466893 0.687858 0.492766 0.911564
O59   O     O_2   0.427156 0.659368 0.541594 -0.606647
O60   O     O_R   0.528117 0.669969 0.440469 -0.792760
H80   H     H_    0.533858 0.633316 0.449782 0.343020

loop_
_geom_bond_atom_site_label_1
_geom_bond_atom_site_label_2
_ccdc_geom_bond_type
C24   C52   T    
O25   Zn1   S    
C71   H43   S    
C16   C28   S    
C12   C32   S    
C55   C59   T    
C69   H41   S    
C14   C18   S    
C11   H23   S    
C2    O22   A    
C76   C79   S    
C14   H66   S    
C1    O21   A    
C102  H54   S    
C21   C49   T    
C12   H24   S    
C28   C56   S    
O19   Zn11  S    
O54   H77   S    
C20   H76   S    
C71   C75   D    
C39   H31   S    
C100  H48   S    
C79   O31   A    
C40   H32   S    
C45   C57   S    
C105  O53   D    
C79   O7    A    
C48   O20   A    
C32   C36   S    
C83   O11   A    
C90   O50   A    
O29   Zn5   S    
C90   O42   A    
C94   H2    S    
O2    Zn14  S    
C89   O41   A    
C108  O59   D    
O20   Zn12  S    
C95   C99   D    
C46   O18   A    
C9    H21   S    
C94   C98   D    
C84   O36   A    
O45   Zn9   S    
C29   C33   S    
C78   O6    A    
O52   Zn4   S    
C39   H19   S    
C74   H50   S    
C4    O16   A    
C107  O57   D    
C86   O38   A    
O39   Zn7   S    
C13   H69   S    
C85   O37   A    
O4    Zn4   S    
C31   H27   S    
C38   H18   S    
C43   H11   S    
C20   H8    S    
C15   C27   S    
O44   Zn16  S    
C29   H25   S    
C95   C103  S    
C74   C77   S    
O15   Zn7   S    
C61   H33   S    
C45   O25   A    
C73   C78   S    
C92   O52   A    
C84   O12   A    
C106  O55   D    
C70   H42   S    
C87   O39   A    
O3    Zn3   S    
C75   C80   S    
C78   O30   A    
C108  O60   S    
C88   C97   S    
O8    Zn4   S    
C77   O29   A    
C81   O33   A    
C80   O32   A    
C87   C98   S    
C93   H1    S    
C19   H7    S    
C10   C26   S    
C13   H65   S    
C96   H4    S    
C67   H39   S    
C67   C84   S    
C82   O34   A    
C46   C58   S    
C11   H63   S    
O4    Zn16  S    
C47   O19   A    
C69   C70   S    
C17   C33   S    
C104  H56   S    
O49   Zn1   S    
O22   Zn14  S    
C77   O5    A    
C26   C54   S    
O3    Zn7   S    
C72   H44   S    
C4    O24   A    
O1    Zn9   S    
C11   C27   S    
C48   C60   S    
C63   C67   D    
O36   Zn12  S    
C101  H53   S    
O4    Zn12  S    
C32   H60   S    
C40   H20   S    
C31   H59   S    
O10   Zn14  S    
C47   C59   S    
C105  O54   S    
C30   C34   S    
O37   Zn5   S    
C9    C25   S    
O18   Zn10  S    
C5    C105  S    
C22   C50   T    
C92   O44   A    
O21   Zn13  S    
C93   C101  S    
C106  O56   S    
O1    Zn1   S    
C62   C66   D    
C42   H14   S    
O3    Zn15  S    
O43   Zn15  S    
C30   H26   S    
O9    Zn13  S    
C76   H52   S    
C3    O15   A    
C56   C60   T    
C6    C106  S    
C91   O51   A    
C107  O58   S    
C41   H13   S    
C15   C19   S    
C42   H10   S    
C70   C74   D    
C29   H57   S    
C65   H37   S    
C10   C30   S    
C93   C97   D    
C23   C51   T    
O48   Zn12  S    
C36   C40   S    
C16   C20   S    
O17   Zn9   S    
C48   O28   A    
C54   C58   T    
C80   O8    A    
C85   O45   A    
C15   H67   S    
C72   C76   D    
O32   Zn8   S    
O14   Zn6   S    
C69   C73   D    
C86   C99   S    
C8    C104  D    
C81   O9    A    
O24   Zn16  S    
C45   O17   A    
C95   H3    S    
C61   C65   D    
C8    C92   S    
C62   H34   S    
C12   C28   S    
C68   H40   S    
C98   H46   S    
C87   O47   A    
C96   C104  S    
C88   O40   A    
C35   C51   S    
C86   O46   A    
O31   Zn7   S    
C37   H17   S    
C7    C107  S    
O27   Zn3   S    
O38   Zn6   S    
C91   O43   A    
O56   H78   S    
O41   Zn13  S    
C64   C68   D    
C19   H75   S    
C7    C91   S    
C32   H28   S    
O2    Zn6   S    
C33   C37   S    
C14   C26   S    
C64   H36   S    
O13   Zn5   S    
C17   H73   S    
C82   O10   A    
C46   O26   A    
O28   Zn4   S    
O2    Zn10  S    
C38   H30   S    
C53   C57   T    
C34   C38   S    
C68   C83   S    
C63   H35   S    
C15   H71   S    
O30   Zn6   S    
C97   H45   S    
O23   Zn15  S    
C18   H6    S    
C41   H9    S    
C63   C64   S    
C13   C25   S    
C17   H5    S    
O1    Zn5   S    
C12   H64   S    
C34   C50   S    
C83   O35   A    
C3    O23   A    
C75   H51   S    
C38   C42   S    
C66   H38   S    
C18   H74   S    
C9    C29   S    
C10   H62   S    
C30   H58   S    
C36   C52   S    
C27   C55   S    
O35   Zn11  S    
O3    Zn11  S    
C5    C101  D    
C47   O27   A    
O12   Zn16  S    
O34   Zn10  S    
O51   Zn3   S    
C89   O49   A    
O26   Zn2   S    
O33   Zn9   S    
O5    Zn1   S    
C71   C72   S    
C14   H70   S    
C85   C100  S    
C19   C35   S    
C66   C81   S    
O47   Zn11  S    
C4    C21   S    
O42   Zn14  S    
C103  H55   S    
C65   C82   S    
C88   O48   A    
C99   H47   S    
C18   C34   S    
O60   H80   S    
C35   C39   S    
C96   C100  D    
C31   C35   S    
C9    H61   S    
C28   C44   S    
O50   Zn2   S    
O1    Zn13  S    
C6    C102  D    
C26   C42   S    
C37   C41   S    
C61   C62   S    
O11   Zn15  S    
C37   H29   S    
C5    C89   S    
O46   Zn10  S    
C16   H72   S    
O2    Zn2   S    
C11   C31   S    
C13   C17   S    
C20   C36   S    
C27   C43   S    
C40   C44   S    
C6    C90   S    
C44   H12   S    
C1    C24   S    
O16   Zn8   S    
C25   C41   S    
C39   C43   S    
C73   H49   S    
C2    C23   S    
C44   H16   S    
C1    O13   A    
O40   Zn8   S    
C3    C22   S    
C7    C103  D    
C2    O14   A    
C8    C108  S    
C10   H22   S    
C33   C49   S    
O4    Zn8   S    
O7    Zn3   S    
C25   C53   S    
O58   H79   S    
C94   C102  S    
C43   H15   S    
C16   H68   S    
O6    Zn2   S    
