data_mof_unit_27564.cif
_audit_creation_date              2013-03-05T15:59:22-0500
_audit_creation_method            fapswitch 2.2
_symmetry_space_group_name_H-M    P1
_symmetry_Int_Tables_number       1
_space_group_crystal_system       triclinic
_cell_length_a                    10.62739
_cell_length_b                    12.822402
_cell_length_c                    13.312442
_cell_angle_alpha                 83.073478
_cell_angle_beta                  93.746795
_cell_angle_gamma                 102.701847
_cell_volume                      1755.34525898

loop_
_atom_site_label
_atom_site_type_symbol
_atom_site_description
_atom_site_fract_x
_atom_site_fract_y
_atom_site_fract_z
_atom_type_partial_charge
O1    O     O_R   0.467970 0.366730 0.627150 -0.609147
O2    O     O_R   0.510820 0.544830 0.662520 -0.606503
C1    C     C_R   0.476386 0.440488 0.690197 0.901365
O3    O     O_R   0.664630 0.410960 0.482340 -0.624589
O4    O     O_R   0.707470 0.589060 0.517710 -0.615056
C2    C     C_R   0.741725 0.500616 0.501195 0.892792
Zn1   Zn    Zn3+2 0.471390 0.381080 0.476380 0.966358
Zn2   Zn    Zn3+2 0.528610 0.618920 0.523620 0.966819
O5    O     O_R   0.489180 0.455170 0.337480 -0.617475
O6    O     O_R   0.532030 0.633270 0.372850 -0.587897
O7    O     O_R   0.292530 0.410940 0.482290 -0.614672
O8    O     O_R   0.335370 0.589040 0.517660 -0.620467
C3    C     C_R   0.517785 0.559985 0.309496 0.894257
C4    C     C_R   0.258157 0.499412 0.499345 0.874863
C5    C     C_3   0.932271 0.412154 0.461525 0.243316
C6    C     C_3   0.022821 0.413615 0.556326 0.214507
C7    C     C_3   0.123325 0.500970 0.498299 -0.190007
C8    C     C_3   0.031027 0.501349 0.404417 0.134861
C9    C     C_3   0.975831 0.588634 0.444412 -0.062625
C10   C     C_3   0.067128 0.588429 0.538435 -0.030219
C11   C     C_3   0.966598 0.500835 0.597564 -0.288362
C12   C     C_3   0.876587 0.500641 0.501553 -0.162987
H1    H     H_    0.937012 0.500587 0.676045 0.167382
C13   C     C_R   0.618458 0.727266 0.059323 -0.028901
H2    H     H_    0.536114 0.757770 0.864378 0.148716
C14   C     C_R   0.535914 0.596081 0.201213 -0.178588
C15   C     C_R   0.424895 0.296246 0.838218 -0.095277
C16   C     C_R   0.448516 0.266267 0.941816 0.143647
C17   C     C_R   0.499659 0.346232 0.006199 0.197145
C18   C     C_R   0.506558 0.456517 0.970030 -0.019547
C19   C     C_R   0.477607 0.485361 0.867668 0.001515
C20   C     C_R   0.532664 0.539614 0.034636 0.019041
C21   C     C_R   0.570955 0.647936 0.993849 0.025386
C22   C     C_R   0.534010 0.674669 0.893068 -0.290471
C23   C     C_R   0.464535 0.592921 0.838360 0.274337
C24   C     C_R   0.487950 0.521445 0.132145 -0.037927
C25   C     C_R   0.606828 0.699880 0.164783 0.130814
C26   C     C_R   0.454776 0.406205 0.799311 -0.212832
C27   C     C_R   0.293109 0.082884 0.364513 0.089054
H3    H     H_    0.232354 0.879186 0.355190 0.198119
N1    N     N_R   0.432930 0.222190 0.444670 -0.159815
C28   C     C_R   0.673664 0.806433 0.615478 0.061545
C29   C     C_R   0.730672 0.915034 0.618718 0.148539
C30   C     C_R   0.668357 0.992250 0.568662 -0.281031
C31   C     C_R   0.545990 0.963794 0.520123 -0.004665
C32   C     C_R   0.501367 0.852799 0.504572 0.148619
C33   C     C_R   0.473712 0.042884 0.477502 -0.063914
C34   C     C_R   0.363065 0.009804 0.414373 0.100315
C35   C     C_R   0.320360 0.903376 0.401054 -0.269155
C36   C     C_R   0.391290 0.827916 0.435970 -0.029252
C37   C     C_R   0.500622 0.152771 0.496818 0.037118
C38   C     C_R   0.329689 0.189264 0.382645 0.036299
N2    N     N_R   0.566370 0.776980 0.554790 -0.173593
H4    H     H_    0.721102 0.074012 0.565188 0.153486
N3    N     N_2   0.059282 0.323236 0.618285 -0.296265
H5    H     H_    0.142069 0.345702 0.662379 0.225377
C39   C     C_3   0.957103 0.253031 0.675326 -0.777431
H6    H     H_    0.994920 0.186440 0.719200 0.239809
H7    H     H_    0.878149 0.217891 0.623191 0.268759
H8    H     H_    0.919660 0.297784 0.728977 0.243326
C40   C     C_1   0.361082 0.452413 0.142951 0.209249
N4    N     N_1   0.258399 0.398768 0.143957 -0.224397
C41   C     C_1   0.366656 0.213589 0.773931 0.212935
N5    N     N_1   0.319441 0.147375 0.722965 -0.206053
N6    N     N_2   0.541193 0.315825 0.107556 -0.291420
H9    H     H_    0.497814 0.239913 0.138779 0.253599
C42   C     C_3   0.679567 0.339957 0.125732 -0.797948
H10   H     H_    0.702530 0.312322 0.205480 0.233109
H11   H     H_    0.718861 0.427834 0.112078 0.253146
H12   H     H_    0.726799 0.298082 0.075693 0.238290
N7    N     N_2   0.420648 0.155835 0.982270 -0.331900
H13   H     H_    0.331283 0.113598 0.959409 0.232307
C43   C     C_3   0.522211 0.099077 0.973395 -0.752173
H14   H     H_    0.494296 0.015978 0.011725 0.240212
H15   H     H_    0.613420 0.139575 0.010337 0.251847
H16   H     H_    0.538154 0.094775 0.892459 0.251555
N8    N     N_2   0.360908 0.614389 0.771148 -0.271217
H17   H     H_    0.368292 0.694572 0.745359 0.237782
C44   C     C_3   0.234750 0.563523 0.809222 -0.785795
H18   H     H_    0.157854 0.586675 0.757318 0.242255
H19   H     H_    0.224078 0.589064 0.884564 0.243027
H20   H     H_    0.220400 0.474581 0.815532 0.236878
C45   C     C_1   0.244702 0.258905 0.349158 0.263463
N9    N     N_1   0.171107 0.311427 0.323445 -0.223328
N10   N     N_2   0.185479 0.048529 0.297067 -0.313419
H21   H     H_    0.104343 0.077361 0.306871 0.234811
C46   C     C_3   0.218148 0.058228 0.192067 -0.782534
H22   H     H_    0.250790 0.144287 0.162813 0.245346
H23   H     H_    0.131874 0.022545 0.146204 0.246779
H24   H     H_    0.295722 0.014524 0.183799 0.252878
C47   C     C_1   0.578024 0.190379 0.583405 0.280682
N11   N     N_1   0.638931 0.220243 0.653718 -0.228611
C48   C     C_1   0.734383 0.725851 0.670948 0.291079
N12   N     N_1   0.783805 0.662018 0.716421 -0.221927
N13   N     N_2   0.848608 0.318813 0.422694 -0.288343
H25   H     H_    0.784469 0.337736 0.365810 0.237603
C49   C     C_3   0.903541 0.229643 0.404663 -0.796409
H26   H     H_    0.828381 0.154472 0.414291 0.231188
H27   H     H_    0.985792 0.220764 0.458229 0.276286
H28   H     H_    0.933748 0.239590 0.325426 0.244770
N14   N     N_2   0.855140 0.947095 0.665890 -0.308812
H29   H     H_    0.911220 0.015231 0.629088 0.237115
C50   C     C_3   0.853619 0.953115 0.773421 -0.753350
H30   H     H_    0.800990 0.015402 0.787991 0.249563
H31   H     H_    0.954206 0.974990 0.804701 0.242689
H32   H     H_    0.806864 0.874031 0.812621 0.253877
C51   C     C_1   0.351535 0.741177 0.374792 0.294823
N15   N     N_1   0.310589 0.677333 0.319899 -0.244721
N16   N     N_2   0.068493 0.513560 0.300375 -0.284551
H33   H     H_    0.155356 0.496224 0.287272 0.262028
C52   C     C_3   0.966947 0.490308 0.223818 -0.762488
H34   H     H_    0.001904 0.530911 0.149305 0.247574
H35   H     H_    0.880991 0.520147 0.241008 0.230592
H36   H     H_    0.940068 0.402536 0.218910 0.246213
C53   C     C_1   0.955801 0.688538 0.385895 0.215831
N17   N     N_1   0.942737 0.768474 0.340683 -0.226976
C54   C     C_1   0.135138 0.688632 0.578255 0.224809
N18   N     N_1   0.187373 0.767777 0.609788 -0.207595
N19   N     N_2   0.663401 0.776547 0.232736 -0.270612
H37   H     H_    0.760789 0.804487 0.223261 0.244332
C55   C     C_3   0.598661 0.864437 0.235909 -0.720427
H38   H     H_    0.610975 0.889767 0.313228 0.239805
H39   H     H_    0.494157 0.840926 0.215218 0.237335
H40   H     H_    0.642453 0.934940 0.183096 0.225422
C56   C     C_1   0.677320 0.835908 0.019470 0.142648
N20   N     N_1   0.724355 0.923015 0.988422 -0.239541

loop_
_geom_bond_atom_site_label_1
_geom_bond_atom_site_label_2
_geom_bond_distance
_ccdc_geom_bond_type
C36   C51   1.430266 S    
C5    C8    1.534345 S    
C46   H22   1.111464 S    
C48   N12   1.157688 T    
C28   C48   1.440906 S    
C43   H14   1.110570 S    
C52   H34   1.109758 S    
C8    N16   1.446991 S    
N3    H5    1.031239 S    
C49   H26   1.108383 S    
C52   H35   1.111467 S    
N10   H21   1.031374 S    
Zn1   O7    2.027990 S    
C6    C11   1.547243 S    
C20   C24   1.387117 A    
C16   C17   1.409729 A    
C22   C23   1.395641 A    
N16   C52   1.442304 S    
C28   N2    1.363574 A    
C5    N13   1.453061 S    
O4    C2    1.311153 A    
O7    C4    1.314197 A    
C39   H7    1.105355 S    
C15   C26   1.416164 A    
H3    C35   1.089587 S    
C2    C12   1.432850 S    
C7    C10   1.542900 S    
C8    C9    1.534087 S    
O5    C3    1.323576 A    
C55   H40   1.110225 S    
C37   C47   1.439981 S    
C5    C12   1.550425 S    
C45   N9    1.150429 T    
C1    C26   1.483621 S    
C6    C7    1.537918 S    
N6    C42   1.445085 S    
C51   N15   1.157410 T    
C52   H36   1.107434 S    
N1    C38   1.351228 A    
N8    H17   1.031504 S    
H2    C22   1.083627 S    
C31   C33   1.444726 A    
C27   C38   1.379840 A    
N14   C50   1.444171 S    
C11   C12   1.545516 S    
C43   H15   1.108609 S    
C4    C7    1.436571 S    
O3    Zn1   2.002632 S    
C10   C54   1.469714 S    
C49   H27   1.108268 S    
C7    C8    1.537710 S    
N19   C55   1.449638 S    
N10   C46   1.446504 S    
C42   H10   1.107069 S    
N14   H29   1.031729 S    
C9    C12   1.529254 S    
O3    C2    1.297845 A    
C47   N11   1.157610 T    
N7    C43   1.446185 S    
C39   H8    1.110933 S    
C33   C37   1.426117 A    
C31   C32   1.433439 A    
C23   N8    1.426284 S    
C41   N5    1.157615 T    
C42   H11   1.109368 S    
C38   C45   1.420531 S    
C29   C30   1.390844 A    
C29   N14   1.423951 S    
C17   C18   1.425388 A    
C44   H20   1.110408 S    
C33   C34   1.416475 A    
C25   N19   1.424675 S    
C9    C53   1.466525 S    
Zn2   O8    2.002634 S    
C21   C22   1.396817 A    
N8    C44   1.450652 S    
C50   H31   1.110369 S    
C55   H38   1.107439 S    
C15   C41   1.449091 S    
C17   N6    1.427738 S    
C14   C24   1.399137 A    
C34   C35   1.369373 A    
O8    C4    1.296256 A    
C35   C36   1.373667 A    
C11   H1    1.110005 S    
C56   N20   1.156872 T    
C43   H16   1.111296 S    
C19   C23   1.421630 A    
C3    C14   1.471546 S    
C16   N7    1.426637 S    
C28   C29   1.395745 A    
C27   N10   1.431135 S    
C24   C40   1.446328 S    
C50   H30   1.111891 S    
C49   H28   1.107160 S    
C30   C31   1.407195 A    
C44   H19   1.111997 S    
C13   C25   1.412198 A    
Zn1   O5    1.974954 S    
O1    Zn1   1.995297 S    
O2    Zn2   1.974952 S    
C53   N17   1.155400 T    
O6    C3    1.314973 A    
Zn2   N2    2.064991 S    
O4    Zn2   2.027987 S    
N19   H37   1.028856 S    
N13   C49   1.443530 S    
C14   C25   1.423230 A    
C32   C36   1.439047 A    
C13   C21   1.407040 A    
C19   C26   1.415191 A    
C42   H12   1.110183 S    
C20   C21   1.409972 A    
C9    C10   1.532872 S    
N3    C39   1.441926 S    
O2    C1    1.320272 A    
C6    N3    1.448667 S    
N7    H13   1.031355 S    
C54   N18   1.157064 T    
C18   C20   1.418399 A    
C39   H6    1.109804 S    
C18   C19   1.400734 A    
C32   N2    1.395528 A    
C50   H32   1.110037 S    
Zn1   N1    2.077197 S    
C40   N4    1.154884 T    
C55   H39   1.110404 S    
C44   H18   1.103078 S    
C30   H4    1.071784 S    
C10   C11   1.546445 S    
Zn2   O6    1.995299 S    
N6    H9    1.030956 S    
C46   H24   1.111619 S    
N13   H25   1.028550 S    
C46   H23   1.110180 S    
O1    C1    1.323376 A    
C13   C56   1.447506 S    
N16   H33   1.025980 S    
N1    C37   1.363468 A    
C5    C6    1.535633 S    
C27   C34   1.401151 A    
C15   C16   1.407887 A    
