data_mof_unit_21887.cif
_audit_creation_date              2012-12-11T14:58:30-0500
_audit_creation_method            fapswitch 2.2
_symmetry_space_group_name_H-M    P1
_symmetry_Int_Tables_number       1
_space_group_crystal_system       triclinic
_cell_length_a                    10.919998
_cell_length_b                    10.940396
_cell_length_c                    18.804431
_cell_angle_alpha                 90.374102
_cell_angle_beta                  90.531025
_cell_angle_gamma                 59.862405
_cell_volume                      1942.77691627

loop_
_atom_site_label
_atom_site_type_symbol
_atom_type_description
_atom_site_fract_x
_atom_site_fract_y
_atom_site_fract_z
_atom_type_partial_charge
C1    C     C_R   0.359228 0.772698 0.397647 0.543063
C2    C     C_R   0.611922 0.113533 0.167306 0.004665
C3    C     C_R   0.360302 0.330112 0.162644 -0.006053
C4    C     C_R   0.478523 0.236737 0.274434 -0.149979
C5    C     C_R   0.482192 0.230813 0.200976 -0.019444
C6    C     C_R   0.071739 0.711110 0.280883 -0.030714
C7    C     C_R   0.952097 0.826404 0.310377 -0.071800
C8    C     C_R   0.665984 0.973198 0.190107 -0.070486
C9    C     C_R   0.782059 0.861826 0.156052 0.371126
C10   C     C_R   0.247911 0.442434 0.198710 -0.150997
C11   C     C_R   0.246035 0.451062 0.272763 -0.038601
C12   C     C_R   0.385949 0.355081 0.387330 0.533436
C13   C     C_R   0.878916 0.805526 0.364983 -0.099344
C14   C     C_R   0.925447 0.669305 0.390265 -0.092580
C15   C     C_R   0.044584 0.553544 0.360625 -0.032470
C16   C     C_R   0.120174 0.573259 0.306044 0.079281
C17   C     C_R   0.362543 0.343642 0.311402 -0.007299
C18   C     C_R   0.955307 0.303292 0.308018 -0.150637
C19   C     C_R   0.984258 0.294671 0.235913 -0.103860
C20   C     C_R   0.875025 0.332036 0.185907 0.061548
C21   C     C_R   0.736257 0.381658 0.207343 -0.136285
C22   C     C_R   0.706989 0.392331 0.279400 -0.115464
C23   C     C_R   0.777942 0.378146 0.403158 0.533932
C24   C     C_R   0.816522 0.353376 0.329474 0.039862
C25   C     C_R   0.472144 0.782608 0.286520 -0.135380
C26   C     C_R   0.459998 0.809229 0.213809 -0.153396
C27   C     C_R   0.325427 0.886790 0.183861 0.025764
C28   C     C_R   0.204544 0.947316 0.227375 -0.142233
C29   C     C_R   0.216566 0.921949 0.299356 -0.154329
C30   C     C_R   0.349305 0.833644 0.328474 0.025549
C31   C     C_R   0.465006 0.275977 0.716937 -0.122362
C32   C     C_R   0.447523 0.273742 0.788936 -0.134647
C33   C     C_R   0.311337 0.333973 0.816537 0.030287
C34   C     C_R   0.344517 0.768759 0.604847 0.547336
C35   C     C_R   0.191914 0.408384 0.772377 -0.132922
C36   C     C_R   0.209791 0.413628 0.699579 -0.140665
C37   C     C_R   0.346560 0.342246 0.671651 0.036976
C38   C     C_R   0.739485 0.475529 0.732100 -0.127335
C39   C     C_R   0.751086 0.461827 0.804984 -0.136411
C40   C     C_R   0.814887 0.327595 0.835609 0.026430
C41   C     C_R   0.851821 0.208314 0.792648 -0.139880
C42   C     C_R   0.836032 0.222866 0.718949 -0.152417
C43   C     C_R   0.785102 0.356257 0.688319 0.031085
C44   C     C_R   0.205158 0.822243 0.714154 -0.130090
C45   C     C_R   0.372971 0.352420 0.597590 0.544386
C46   C     C_R   0.198078 0.832956 0.787291 -0.137649
C47   C     C_R   0.303502 0.842523 0.825289 0.032342
C48   C     C_R   0.418402 0.837206 0.789284 -0.134197
C49   C     C_R   0.425295 0.826764 0.715952 -0.142260
C50   C     C_R   0.320009 0.816865 0.678062 0.033585
C51   C     C_R   0.911160 0.315971 0.111914 0.535479
C52   C     C_R   0.329855 0.294827 0.092026 0.533989
C53   C     C_R   0.301961 0.909476 0.108088 0.547853
C54   C     C_R   0.878880 0.310296 0.905760 0.541387
C55   C     C_R   0.296246 0.291116 0.886580 0.545648
C56   C     C_R   0.757432 0.379999 0.612309 0.544605
C57   C     C_R   0.276182 0.893255 0.898002 0.550396
C58   C     C_R   0.846602 0.889402 0.099540 -0.084770
C59   C     C_R   0.794510 0.028175 0.076685 -0.154771
C60   C     C_R   0.678685 0.140049 0.110690 -0.086430
Cr1   Cr    Cr6+3 0.601770 0.606860 0.505860 0.998148
Cr2   Cr    Cr6+3 0.291380 0.601660 0.495070 1.017769
Cr3   Cr    Cr6+3 0.606880 0.291510 0.499120 1.005991
Cr4   Cr    Cr6+3 0.062440 0.063090 0.008210 0.981049
Cr5   Cr    Cr6+3 0.062880 0.375170 0.998920 1.034595
Cr6   Cr    Cr6+3 0.374700 0.061720 0.992470 1.025562
H1    H     H_    0.571943 0.158702 0.302789 0.139575
H2    H     H_    0.786284 0.894905 0.387737 0.104806
H3    H     H_    0.869552 0.653634 0.433175 0.127284
H4    H     H_    0.079777 0.449154 0.381364 0.092784
H5    H     H_    0.040002 0.271029 0.346630 0.094264
H6    H     H_    0.092033 0.256977 0.218880 0.122394
H7    H     H_    0.651382 0.413607 0.168822 0.097261
H8    H     H_    0.598535 0.433815 0.296341 0.122624
H9    H     H_    0.576462 0.713703 0.308756 0.162228
H10   H     H_    0.553604 0.763623 0.180886 0.170463
H11   H     H_    0.099084 0.010267 0.205228 0.147080
H12   H     H_    0.121908 0.963703 0.331381 0.124354
H13   H     H_    0.572067 0.226212 0.696830 0.143198
H14   H     H_    0.540527 0.217722 0.822594 0.127091
H15   H     H_    0.085656 0.454756 0.793346 0.136629
H16   H     H_    0.118069 0.469540 0.665184 0.119479
H17   H     H_    0.694983 0.580424 0.710033 0.134061
H18   H     H_    0.720625 0.555381 0.837024 0.124849
H19   H     H_    0.901832 0.103307 0.815339 0.130268
H20   H     H_    0.866980 0.130391 0.686030 0.116419
H21   H     H_    0.122717 0.813313 0.686283 0.133015
H22   H     H_    0.915608 0.931961 0.290550 0.097012
H23   H     H_    0.107257 0.839266 0.813628 0.124465
H24   H     H_    0.500339 0.846536 0.817450 0.128897
H25   H     H_    0.514758 0.822488 0.689174 0.120789
H26   H     H_    0.936194 0.803203 0.073009 0.124486
H27   H     H_    0.842795 0.048779 0.031877 0.151801
H28   H     H_    0.638202 0.246592 0.091388 0.107991
H29   H     H_    0.126758 0.729315 0.238343 0.109515
H30   H     H_    0.616651 0.949808 0.233498 0.123327
H31   H     H_    0.155300 0.519049 0.169259 0.174372
O1    O     O_R   0.748800 0.497470 0.428000 -0.528238
O2    O     O_R   0.300070 0.471040 0.567100 -0.502766
O3    O     O_R   0.491670 0.258900 0.574910 -0.526215
O4    O     O_R   0.718780 0.304180 0.577850 -0.506987
O5    O     O_3   0.500010 0.500010 0.500020 -0.246975
O6    O     O_R   0.186690 0.923650 0.086970 -0.531973
O7    O     O_R   0.957250 0.194250 0.084630 -0.530579
O8    O     O_R   0.934970 0.407490 0.085330 -0.471048
O9    O     O_R   0.203780 0.365190 0.067090 -0.505136
O10   O     O_R   0.417600 0.174890 0.067840 -0.507537
O11   O     O_R   0.375320 0.946260 0.070860 -0.493808
O12   O     O_R   0.476420 0.724060 0.429470 -0.510740
O13   O     O_R   0.160600 0.919630 0.926660 -0.529787
O14   O     O_R   0.933060 0.190520 0.936020 -0.519629
O15   O     O_R   0.908880 0.403460 0.925020 -0.521498
O16   O     O_R   0.179600 0.361450 0.918490 -0.506885
O17   O     O_R   0.391510 0.170860 0.907530 -0.524414
O18   O     O_R   0.351130 0.942530 0.922260 -0.503475
O19   O     O_3   0.166667 0.166667 0.999870 -0.248315
O20   O     O_R   0.264580 0.744340 0.416750 -0.511430
O21   O     O_R   0.309380 0.472470 0.418200 -0.499326
O22   O     O_R   0.501710 0.260430 0.414300 -0.528979
O23   O     O_R   0.728090 0.305600 0.428960 -0.503971
O24   O     O_R   0.738760 0.495930 0.588610 -0.530724
O25   O     O_R   0.467110 0.722640 0.578360 -0.508731
O26   O     O_R   0.254530 0.742800 0.577360 -0.525736
F1    F     F_    0.831086 0.726825 0.177435 -0.652845

loop_
_geom_bond_atom_site_label_1
_geom_bond_atom_site_label_2
_ccdc_geom_bond_type
C33   C55   S    
Cr4   O6    S    
C34   O26   A    
Cr4   O19   S    
C38   H17   S    
C41   C42   A    
C35   C36   A    
C8    H30   S    
Cr6   O10   S    
Cr3   O4    S    
Cr1   O12   S    
C35   H15   S    
C57   O18   A    
C46   H23   S    
C28   C29   A    
C26   C27   A    
Cr3   O3    S    
Cr6   O19   S    
C18   C24   A    
C36   C37   A    
C56   O4    A    
C18   C19   A    
C20   C51   S    
C38   C39   A    
C33   C35   A    
C2    C60   A    
C47   C57   S    
C15   C16   A    
C21   H7    S    
C18   H5    S    
C9    F1    S    
Cr1   O24   S    
C9    C58   A    
C7    H22   S    
Cr2   O20   S    
C1    O12   A    
C11   C17   A    
C29   H12   S    
C19   C20   A    
C52   O10   A    
C36   H16   S    
C8    C9    A    
C12   C17   S    
C26   H10   S    
C23   C24   S    
C42   H20   S    
C44   H21   S    
C52   O9    A    
C59   C60   A    
C34   O25   A    
C48   H24   S    
C21   C22   A    
C19   H6    S    
C49   H25   S    
Cr3   O5    S    
Cr5   O8    S    
Cr2   O26   S    
C44   C46   A    
C34   C50   S    
Cr6   O18   S    
C45   O2    A    
C23   O23   A    
Cr4   O14   S    
C55   O16   A    
C51   O7    A    
C31   C37   A    
Cr1   O25   S    
C25   H9    S    
C10   H31   S    
Cr5   O15   S    
C29   C30   A    
C32   H14   S    
C12   O22   A    
Cr3   O22   S    
C11   C16   S    
Cr4   O13   S    
C47   C48   A    
C51   O8    A    
C54   O15   A    
C1    O20   A    
C28   H11   S    
C12   O21   A    
C4    C17   A    
C40   C41   A    
C49   C50   A    
C40   C54   S    
C14   H3    S    
C22   C24   A    
C58   C59   A    
C2    C5    S    
C42   C43   A    
C22   H8    S    
C37   C45   S    
Cr5   O9    S    
C39   C40   A    
C44   C50   A    
C25   C30   A    
Cr4   O7    S    
C15   H4    S    
C46   C47   A    
C48   C49   A    
Cr6   O17   S    
Cr5   O16   S    
C31   C32   A    
C2    C8    A    
Cr6   O11   S    
C4    C5    A    
C3    C5    A    
C45   O3    A    
C39   H18   S    
C4    H1    S    
C3    C52   S    
C27   C53   S    
C57   O13   A    
C31   H13   S    
C6    C7    A    
C55   O17   A    
C41   H19   S    
C56   O24   A    
Cr1   O5    S    
C25   C26   A    
C38   C43   A    
C3    C10   A    
C32   C33   A    
Cr3   O23   S    
Cr1   O1    S    
C53   O6    A    
C53   O11   A    
C1    C30   S    
Cr5   O19   S    
C54   O14   A    
Cr2   O21   S    
C10   C11   A    
C6    C16   A    
Cr2   O2    S    
C43   C56   S    
C7    C13   A    
C23   O1    A    
C20   C21   A    
C6    H29   S    
C27   C28   A    
C14   C15   A    
C59   H27   S    
C13   C14   A    
C58   H26   S    
Cr2   O5    S    
C13   H2    S    
C60   H28   S    
