data_mof_unit_61546.cif
_audit_creation_date              2013-03-05T15:59:23-0500
_audit_creation_method            fapswitch 2.2
_symmetry_space_group_name_H-M    P1
_symmetry_Int_Tables_number       1
_space_group_crystal_system       triclinic
_cell_length_a                    21.644466
_cell_length_b                    21.644387
_cell_length_c                    55.722472
_cell_angle_alpha                 90.000032
_cell_angle_beta                  90.000033
_cell_angle_gamma                 90.036061
_cell_volume                      26104.9252962

loop_
_atom_site_label
_atom_site_type_symbol
_atom_site_description
_atom_site_fract_x
_atom_site_fract_y
_atom_site_fract_z
_atom_type_partial_charge
O1    O     O_R   0.499970 0.408410 0.020130 -0.589029
O2    O     O_R   0.591590 0.499970 0.020130 -0.589430
O3    O     O_R   0.500030 0.591590 0.020130 -0.589029
O4    O     O_R   0.408410 0.500030 0.020130 -0.589430
O5    O     O_R   0.499970 0.591590 0.979870 -0.589173
O6    O     O_R   0.591590 0.500030 0.979870 -0.588972
O7    O     O_R   0.500030 0.408410 0.979870 -0.589173
O8    O     O_R   0.408410 0.499970 0.979870 -0.588972
O9    O     O_R   0.999970 0.908410 0.520130 -0.588947
O10   O     O_R   0.091590 0.999970 0.520130 -0.589171
O11   O     O_R   0.000030 0.091590 0.520130 -0.588947
O12   O     O_R   0.908410 0.000030 0.520130 -0.589171
O13   O     O_R   0.999970 0.091590 0.479870 -0.589503
O14   O     O_R   0.091590 0.000030 0.479870 -0.589036
O15   O     O_R   0.000030 0.908410 0.479870 -0.589502
O16   O     O_R   0.908410 0.999970 0.479870 -0.589036
C1    C     C_R   1.000000 0.500000 0.123642 0.286381
C2    C     C_R   0.500000 1.000000 0.123624 0.285179
C3    C     C_R   0.000000 0.500000 0.876376 0.285094
C4    C     C_R   0.500000 0.000000 0.876376 0.285104
C5    C     C_R   0.500000 0.000000 0.623624 0.285097
C6    C     C_R   0.000000 0.500000 0.623624 0.285085
C7    C     C_R   0.500000 1.000000 0.376376 0.285151
C8    C     C_R   1.000000 0.500000 0.376381 0.285471
C9    C     C_R   0.500004 0.380022 0.000000 0.994142
C10   C     C_R   0.619978 0.499996 1.000000 0.993745
C11   C     C_R   0.499996 0.619978 0.000000 0.994141
C12   C     C_R   0.380022 0.500004 1.000000 0.993745
C13   C     C_R   0.000003 0.880022 0.500000 0.993775
C14   C     C_R   0.119978 0.999996 0.500000 0.994190
C15   C     C_R   0.999997 0.119978 0.500000 0.993774
C16   C     C_R   0.880022 0.000004 0.500000 0.994190
Zn1   Zn    Zn3+2 0.500000 0.500000 0.026880 1.135954
Zn2   Zn    Zn3+2 0.500000 0.500000 0.973120 1.136324
Zn3   Zn    Zn3+2 0.000000 0.000000 0.526880 1.136341
Zn4   Zn    Zn3+2 0.000000 0.000000 0.473120 1.135717
C17   C     C_R   0.282537 0.455082 0.986545 0.186917
C18   C     C_R   0.544975 0.282598 0.986561 0.187063
C19   C     C_R   0.717462 0.544918 0.986546 0.186916
C20   C     C_R   0.455025 0.717402 0.986561 0.187064
C21   C     C_R   0.282597 0.544965 0.013444 0.187630
C22   C     C_R   0.544922 0.717462 0.013452 0.187319
C23   C     C_R   0.717403 0.455035 0.013444 0.187629
C24   C     C_R   0.455078 0.282538 0.013452 0.187318
C25   C     C_R   0.782538 0.955077 0.486548 0.187334
C26   C     C_R   0.044962 0.782597 0.486555 0.187539
C27   C     C_R   0.217461 0.044923 0.486548 0.187335
C28   C     C_R   0.955038 0.217403 0.486555 0.187540
C29   C     C_R   0.782598 0.044976 0.513439 0.187063
C30   C     C_R   0.044917 0.217462 0.513455 0.186870
C31   C     C_R   0.217402 0.955024 0.513439 0.187063
C32   C     C_R   0.955083 0.782538 0.513455 0.186870
C33   C     C_R   0.218423 0.455907 0.986106 0.248583
C34   C     C_R   0.544183 0.218480 0.986135 0.248416
C35   C     C_R   0.781576 0.544093 0.986106 0.248584
C36   C     C_R   0.455817 0.781520 0.986135 0.248416
C37   C     C_R   0.218479 0.544169 0.013871 0.243527
C38   C     C_R   0.544096 0.781576 0.013892 0.248915
C39   C     C_R   0.781521 0.455831 0.013871 0.243528
C40   C     C_R   0.455904 0.218424 0.013892 0.248916
C41   C     C_R   0.718424 0.955903 0.486109 0.248954
C42   C     C_R   0.044166 0.718479 0.486128 0.243079
C43   C     C_R   0.281576 0.044097 0.486109 0.248952
C44   C     C_R   0.955834 0.281521 0.486128 0.243078
C45   C     C_R   0.718480 0.044184 0.513865 0.248414
C46   C     C_R   0.044092 0.281577 0.513895 0.248590
C47   C     C_R   0.281520 0.955816 0.513865 0.248414
C48   C     C_R   0.955908 0.718423 0.513895 0.248591
C49   C     C_R   0.186666 0.500041 0.999988 -0.365777
C50   C     C_R   0.500045 0.186667 0.000013 -0.364968
C51   C     C_R   0.813334 0.499959 0.999988 -0.365778
C52   C     C_R   0.499955 0.813333 0.000013 -0.364968
C53   C     C_R   0.686667 0.000045 0.499987 -0.364960
C54   C     C_R   0.000041 0.686666 0.500012 -0.365782
C55   C     C_R   0.313333 0.999955 0.499987 -0.364960
C56   C     C_R   0.999959 0.313334 0.500012 -0.365782
C57   C     C_R   0.314059 0.500015 0.999998 -0.260598
C58   C     C_R   0.500016 0.314059 0.000002 -0.260248
C59   C     C_R   0.685941 0.499985 0.999998 -0.260598
C60   C     C_R   0.499984 0.685941 0.000002 -0.260248
C61   C     C_R   0.814059 0.000016 0.499998 -0.260228
C62   C     C_R   0.000014 0.814059 0.500002 -0.260570
C63   C     C_R   0.185941 0.999984 0.499998 -0.260229
C64   C     C_R   0.999986 0.185941 0.500002 -0.260570
O17   O     O_R   0.999960 0.448330 0.035690 -0.611762
O18   O     O_R   0.551670 0.999960 0.035690 -0.611915
O19   O     O_R   0.000040 0.551670 0.035690 -0.611762
O20   O     O_R   0.448330 0.000040 0.035690 -0.611915
O21   O     O_R   0.999960 0.551670 0.964310 -0.611748
O22   O     O_R   0.551670 0.000040 0.964310 -0.611995
O23   O     O_R   0.000040 0.448330 0.964310 -0.611748
O24   O     O_R   0.448330 0.999960 0.964310 -0.611996
O25   O     O_R   0.499960 0.948330 0.535690 -0.611993
O26   O     O_R   0.051670 0.499960 0.535690 -0.611737
O27   O     O_R   0.500040 0.051670 0.535690 -0.611993
O28   O     O_R   0.948330 0.500040 0.535690 -0.611737
O29   O     O_R   0.499960 0.051670 0.464310 -0.611899
O30   O     O_R   0.051670 0.500040 0.464310 -0.611115
O31   O     O_R   0.500040 0.948330 0.464310 -0.611899
O32   O     O_R   0.948330 0.499960 0.464310 -0.611115
C65   C     C_R   1.000000 0.500000 0.047130 0.915764
C66   C     C_R   0.500000 0.000000 0.047126 0.919627
C67   C     C_R   1.000000 0.500000 0.952874 0.920093
C68   C     C_R   0.500000 0.000000 0.952874 0.919482
C69   C     C_R   0.500000 0.000000 0.547126 0.919461
C70   C     C_R   1.000000 0.500000 0.547126 0.920081
C71   C     C_R   0.500000 1.000000 0.452874 0.919622
C72   C     C_R   1.000000 0.500000 0.452877 0.914729
O33   O     O_R   0.091600 0.448330 0.000070 -0.588750
O34   O     O_R   0.551670 0.091600 0.000070 -0.586507
O35   O     O_R   0.908400 0.551670 0.000070 -0.588750
O36   O     O_R   0.448330 0.908400 0.000070 -0.586507
O37   O     O_R   0.091600 0.551670 0.999930 -0.585163
O38   O     O_R   0.551670 0.908400 0.999930 -0.586645
O39   O     O_R   0.908400 0.448330 0.999930 -0.585162
O40   O     O_R   0.448330 0.091600 0.999930 -0.586645
O41   O     O_R   0.591600 0.948330 0.500070 -0.586644
O42   O     O_R   0.051670 0.591600 0.500070 -0.584958
O43   O     O_R   0.408400 0.051670 0.500070 -0.586644
O44   O     O_R   0.948330 0.408400 0.500070 -0.584958
O45   O     O_R   0.591600 0.051670 0.499930 -0.586491
O46   O     O_R   0.051670 0.408400 0.499930 -0.589059
O47   O     O_R   0.408400 0.948330 0.499930 -0.586490
O48   O     O_R   0.948330 0.591600 0.499930 -0.589059
C73   C     C_R   0.120232 0.500016 0.999996 0.992626
C74   C     C_R   0.500016 0.120232 0.000004 0.994256
C75   C     C_R   0.879768 0.499984 0.999996 0.992627
C76   C     C_R   0.499984 0.879768 0.000004 0.994256
C77   C     C_R   0.620232 0.000016 0.499996 0.994241
C78   C     C_R   0.000015 0.620231 0.500004 0.992240
C79   C     C_R   0.379768 0.999984 0.499996 0.994242
C80   C     C_R   0.999984 0.379769 0.500004 0.992240
Zn5   Zn    Zn3+2 0.000000 0.430970 0.000000 1.125105
Zn6   Zn    Zn3+2 0.569030 0.000000 0.000000 1.125917
Zn7   Zn    Zn3+2 0.000000 0.569030 0.000000 1.125105
Zn8   Zn    Zn3+2 0.430970 0.000000 0.000000 1.125917
Zn9   Zn    Zn3+2 0.500000 0.930970 0.500000 1.125996
Zn10  Zn    Zn3+2 0.069030 0.500000 0.500000 1.125439
Zn11  Zn    Zn3+2 0.500000 0.069030 0.500000 1.125996
Zn12  Zn    Zn3+2 0.930970 0.500000 0.500000 1.125439
C81   C     C_R   0.956733 0.462778 0.237297 0.044897
C82   C     C_R   0.460948 0.958369 0.237289 0.044988
C83   C     C_R   0.043266 0.537223 0.237297 0.044897
C84   C     C_R   0.539052 0.041631 0.237289 0.044989
C85   C     C_R   0.958370 0.460947 0.762710 0.044586
C86   C     C_R   0.460974 0.041606 0.762711 0.044584
C87   C     C_R   0.041630 0.539053 0.762711 0.044586
C88   C     C_R   0.539026 0.958394 0.762711 0.044584
C89   C     C_R   0.458394 0.039026 0.737290 0.044584
C90   C     C_R   0.960947 0.458370 0.737289 0.044586
C91   C     C_R   0.541606 0.960974 0.737290 0.044583
C92   C     C_R   0.039053 0.541630 0.737289 0.044586
C93   C     C_R   0.458371 0.960946 0.262710 0.044977
C94   C     C_R   0.959307 0.459980 0.262710 0.044922
C95   C     C_R   0.541629 0.039054 0.262711 0.044977
C96   C     C_R   0.040692 0.540020 0.262710 0.044922
C97   C     C_R   1.000000 0.500000 0.224716 0.076575
C98   C     C_R   0.500000 1.000000 0.224707 0.076608
C99   C     C_R   0.000000 0.500000 0.775293 0.076588
C100  C     C_R   0.500000 0.000000 0.775293 0.076587
C101  C     C_R   0.500000 0.000000 0.724707 0.076588
C102  C     C_R   0.000000 0.500000 0.724707 0.076588
C103  C     C_R   0.500000 1.000000 0.275293 0.076609
C104  C     C_R   1.000000 0.500000 0.275292 0.076562
C105  C     C_R   0.911870 0.429961 0.223927 -0.203427
C106  C     C_R   0.426111 0.915069 0.223908 -0.203174
C107  C     C_R   0.088129 0.570040 0.223927 -0.203428
C108  C     C_R   0.573890 0.084931 0.223908 -0.203174
C109  C     C_R   0.915071 0.426108 0.776092 -0.203034
C110  C     C_R   0.426164 0.084884 0.776092 -0.203038
C111  C     C_R   0.084930 0.573891 0.776092 -0.203033
C112  C     C_R   0.573836 0.915116 0.776092 -0.203037
C113  C     C_R   0.415116 0.073836 0.723909 -0.203038
C114  C     C_R   0.926109 0.415070 0.723908 -0.203033
C115  C     C_R   0.584884 0.926164 0.723909 -0.203037
C116  C     C_R   0.073891 0.584929 0.723908 -0.203034
C117  C     C_R   0.415073 0.926105 0.276091 -0.203180
C118  C     C_R   0.922877 0.417998 0.276080 -0.203437
C119  C     C_R   0.584927 0.073894 0.276092 -0.203180
C120  C     C_R   0.077122 0.582003 0.276080 -0.203438
C121  C     C_R   0.911394 0.431473 0.199030 -0.118489
C122  C     C_R   0.427522 0.914603 0.199010 -0.118586
C123  C     C_R   0.088605 0.568527 0.199030 -0.118490
C124  C     C_R   0.572478 0.085397 0.199011 -0.118586
C125  C     C_R   0.914605 0.427520 0.800989 -0.118461
C126  C     C_R   0.427577 0.085352 0.800989 -0.118467
C127  C     C_R   0.085395 0.572479 0.800989 -0.118461
C128  C     C_R   0.572423 0.914648 0.800989 -0.118467
C129  C     C_R   0.414649 0.072423 0.699011 -0.118463
C130  C     C_R   0.927521 0.414604 0.699010 -0.118457
C131  C     C_R   0.585351 0.927577 0.699011 -0.118464
C132  C     C_R   0.072479 0.585395 0.699010 -0.118457
C133  C     C_R   0.414608 0.927517 0.300989 -0.118563
C134  C     C_R   0.924376 0.417371 0.300977 -0.118481
C135  C     C_R   0.585393 0.072482 0.300990 -0.118564
C136  C     C_R   0.075623 0.582630 0.300977 -0.118481
C137  C     C_R   0.955577 0.465643 0.186496 -0.027340
C138  C     C_R   0.463645 0.957202 0.186480 -0.026807
C139  C     C_R   0.044422 0.534357 0.186497 -0.027339
C140  C     C_R   0.536356 0.042797 0.186480 -0.026807
C141  C     C_R   0.957204 0.463643 0.813520 -0.026999
C142  C     C_R   0.463672 0.042775 0.813520 -0.026995
C143  C     C_R   0.042797 0.536356 0.813520 -0.027000
C144  C     C_R   0.536328 0.957225 0.813520 -0.026994
C145  C     C_R   0.457225 0.036328 0.686480 -0.026996
C146  C     C_R   0.963644 0.457203 0.686480 -0.027001
C147  C     C_R   0.542775 0.963672 0.686480 -0.026996
C148  C     C_R   0.036357 0.542797 0.686480 -0.027002
C149  C     C_R   0.457205 0.963642 0.313520 -0.026827
C150  C     C_R   0.962108 0.458556 0.313511 -0.027095
C151  C     C_R   0.542796 0.036358 0.313520 -0.026827
C152  C     C_R   0.037891 0.541445 0.313511 -0.027095
C153  C     C_R   1.000000 0.500000 0.199254 -0.048785
C154  C     C_R   0.500000 1.000000 0.199240 -0.049070
C155  C     C_R   0.000000 0.500000 0.800759 -0.049186
C156  C     C_R   0.500000 0.000000 0.800759 -0.049189
C157  C     C_R   0.500000 0.000000 0.699241 -0.049187
C158  C     C_R   0.000000 0.500000 0.699240 -0.049184
C159  C     C_R   0.500000 1.000000 0.300760 -0.049071
C160  C     C_R   1.000000 0.500000 0.300754 -0.048830
C161  C     C_R   0.956024 0.466757 0.161353 0.516894
C162  C     C_R   0.464734 0.957631 0.161334 0.518584
C163  C     C_R   0.043976 0.533244 0.161353 0.516893
C164  C     C_R   0.535266 0.042368 0.161334 0.518584
C165  C     C_R   0.957632 0.464733 0.838666 0.518711
C166  C     C_R   0.464762 0.042347 0.838666 0.518709
C167  C     C_R   0.042368 0.535266 0.838666 0.518711
C168  C     C_R   0.535238 0.957653 0.838666 0.518708
C169  C     C_R   0.457653 0.035238 0.661334 0.518711
C170  C     C_R   0.964734 0.457632 0.661334 0.518715
C171  C     C_R   0.542347 0.964762 0.661334 0.518710
C172  C     C_R   0.035267 0.542368 0.661334 0.518714
C173  C     C_R   0.457634 0.964732 0.338666 0.518581
C174  C     C_R   0.963298 0.458866 0.338655 0.516907
C175  C     C_R   0.542367 0.035268 0.338666 0.518581
C176  C     C_R   0.036701 0.541135 0.338655 0.516909
N1    N     N_R   1.000000 0.500000 0.149341 -0.356652
N2    N     N_R   0.500000 1.000000 0.149322 -0.355411
N3    N     N_R   0.000000 0.500000 0.850677 -0.355320
N4    N     N_R   0.500000 0.000000 0.850677 -0.355314
N5    N     N_R   0.500000 0.000000 0.649323 -0.355313
N6    N     N_R   0.000000 0.500000 0.649323 -0.355321
N7    N     N_R   0.500000 1.000000 0.350677 -0.355417
N8    N     N_R   1.000000 0.500000 0.350674 -0.356405
H1    H     H_    0.875298 0.403705 0.232168 0.149415
H2    H     H_    0.398221 0.879706 0.232130 0.149218
H3    H     H_    0.124701 0.596295 0.232168 0.149416
H4    H     H_    0.601780 0.120293 0.232130 0.149218
H5    H     H_    0.879709 0.398218 0.767870 0.150045
H6    H     H_    0.398297 0.120229 0.767870 0.150047
H7    H     H_    0.120291 0.601781 0.767870 0.150044
H8    H     H_    0.601703 0.879771 0.767870 0.150046
H9    H     H_    0.379772 0.101704 0.732130 0.150047
H10   H     H_    0.898219 0.379708 0.732130 0.150045
H11   H     H_    0.620228 0.898297 0.732130 0.150047
H12   H     H_    0.101782 0.620291 0.732130 0.150045
H13   H     H_    0.379713 0.898213 0.267870 0.149245
H14   H     H_    0.893654 0.383750 0.267839 0.149363
H15   H     H_    0.620288 0.101786 0.267870 0.149245
H16   H     H_    0.106345 0.616251 0.267839 0.149364
H17   H     H_    0.876087 0.405495 0.189629 0.198137
H18   H     H_    0.399940 0.880539 0.189607 0.197748
H19   H     H_    0.123913 0.594506 0.189629 0.198138
H20   H     H_    0.600060 0.119460 0.189607 0.197748
H21   H     H_    0.880542 0.399938 0.810393 0.197939
H22   H     H_    0.400017 0.119398 0.810393 0.197937
H23   H     H_    0.119458 0.600062 0.810393 0.197939
H24   H     H_    0.599983 0.880602 0.810393 0.197937
H25   H     H_    0.380602 0.099983 0.689607 0.197939
H26   H     H_    0.899938 0.380541 0.689607 0.197941
H27   H     H_    0.619398 0.900017 0.689607 0.197939
H28   H     H_    0.100062 0.619458 0.689607 0.197941
H29   H     H_    0.380546 0.899933 0.310393 0.197781
H30   H     H_    0.895559 0.384338 0.310377 0.198080
H31   H     H_    0.619455 0.100066 0.310393 0.197782
H32   H     H_    0.104441 0.615662 0.310377 0.198080
O49   O     O_2   0.912596 0.435267 0.148982 -0.530068
O50   O     O_2   0.431208 0.915764 0.148960 -0.535014
O51   O     O_2   0.087404 0.564733 0.148982 -0.530068
O52   O     O_2   0.568793 0.084236 0.148960 -0.535014
O53   O     O_2   0.915766 0.431206 0.851040 -0.535481
O54   O     O_2   0.431263 0.084195 0.851039 -0.535514
O55   O     O_2   0.084235 0.568794 0.851040 -0.535481
O56   O     O_2   0.568736 0.915805 0.851039 -0.535514
O57   O     O_2   0.415805 0.068737 0.648960 -0.535509
O58   O     O_2   0.931206 0.415765 0.648960 -0.535471
O59   O     O_2   0.584194 0.931264 0.648960 -0.535508
O60   O     O_2   0.068794 0.584235 0.648960 -0.535471
O61   O     O_2   0.415768 0.931203 0.351040 -0.534955
O62   O     O_2   0.928438 0.418073 0.351016 -0.530721
O63   O     O_2   0.584232 0.068797 0.351040 -0.534954
O64   O     O_2   0.071561 0.581928 0.351016 -0.530722
C177  C     C_R   0.010217 0.444922 0.111077 -0.079999
C178  C     C_R   0.554450 0.986827 0.111060 -0.083028
C179  C     C_R   0.989783 0.555079 0.111077 -0.079999
C180  C     C_R   0.445551 0.013172 0.111060 -0.083027
C181  C     C_R   0.986828 0.554450 0.888940 -0.082944
C182  C     C_R   0.554460 0.013197 0.888940 -0.082978
C183  C     C_R   0.013172 0.445550 0.888940 -0.082945
C184  C     C_R   0.445540 0.986803 0.888940 -0.082978
C185  C     C_R   0.486804 0.945539 0.611060 -0.082973
C186  C     C_R   0.054449 0.486827 0.611060 -0.082937
C187  C     C_R   0.513196 0.054461 0.611060 -0.082973
C188  C     C_R   0.945551 0.513173 0.611060 -0.082938
C189  C     C_R   0.486826 0.054449 0.388940 -0.083014
C190  C     C_R   0.054303 0.486241 0.388955 -0.078890
C191  C     C_R   0.513174 0.945550 0.388940 -0.083014
C192  C     C_R   0.945697 0.513760 0.388955 -0.078889
H33   H     H_    0.018464 0.402249 0.120700 0.159231
H34   H     H_    0.596608 0.976279 0.120685 0.161206
H35   H     H_    0.981536 0.597751 0.120700 0.159231
H36   H     H_    0.403392 0.023721 0.120685 0.161206
H37   H     H_    0.976280 0.596608 0.879315 0.161361
H38   H     H_    0.596627 0.023765 0.879315 0.161372
H39   H     H_    0.023720 0.403392 0.879315 0.161361
H40   H     H_    0.403373 0.976235 0.879315 0.161372
H41   H     H_    0.476237 0.903372 0.620685 0.161378
H42   H     H_    0.096608 0.476278 0.620685 0.161366
H43   H     H_    0.523763 0.096628 0.620685 0.161378
H44   H     H_    0.903393 0.523722 0.620685 0.161366
H45   H     H_    0.476277 0.096607 0.379315 0.161214
H46   H     H_    0.096350 0.475199 0.379340 0.159808
H47   H     H_    0.523723 0.903392 0.379315 0.161214
H48   H     H_    0.903650 0.524802 0.379340 0.159808
C193  C     C_R   0.009956 0.444815 0.086104 -0.154448
C194  C     C_R   0.554568 0.987080 0.086085 -0.147064
C195  C     C_R   0.990044 0.555185 0.086104 -0.154447
C196  C     C_R   0.445432 0.012920 0.086085 -0.147065
C197  C     C_R   0.987080 0.554568 0.913915 -0.147111
C198  C     C_R   0.554578 0.012945 0.913916 -0.147219
C199  C     C_R   0.012920 0.445432 0.913915 -0.147110
C200  C     C_R   0.445422 0.987055 0.913915 -0.147219
C201  C     C_R   0.487056 0.945421 0.586084 -0.147212
C202  C     C_R   0.054568 0.487079 0.586085 -0.147092
C203  C     C_R   0.512944 0.054579 0.586084 -0.147212
C204  C     C_R   0.945433 0.512921 0.586085 -0.147092
C205  C     C_R   0.487078 0.054568 0.413915 -0.147032
C206  C     C_R   0.054440 0.486573 0.413929 -0.155741
C207  C     C_R   0.512922 0.945432 0.413915 -0.147032
C208  C     C_R   0.945560 0.513428 0.413929 -0.155741
H49   H     H_    0.017976 0.401707 0.076745 0.181370
H50   H     H_    0.597141 0.976658 0.076713 0.194193
H51   H     H_    0.982024 0.598293 0.076745 0.181370
H52   H     H_    0.402859 0.023342 0.076713 0.194193
H53   H     H_    0.976659 0.597141 0.923287 0.194303
H54   H     H_    0.597160 0.023385 0.923287 0.194292
H55   H     H_    0.023341 0.402859 0.923287 0.194303
H56   H     H_    0.402840 0.976615 0.923287 0.194292
H57   H     H_    0.476616 0.902840 0.576712 0.194299
H58   H     H_    0.097141 0.476657 0.576713 0.194311
H59   H     H_    0.523384 0.097160 0.576712 0.194299
H60   H     H_    0.902859 0.523343 0.576713 0.194311
H61   H     H_    0.476656 0.097141 0.423287 0.194210
H62   H     H_    0.096915 0.475777 0.423303 0.179780
H63   H     H_    0.523344 0.902859 0.423287 0.194210
H64   H     H_    0.903084 0.524223 0.423303 0.179780
C209  C     C_R   0.000000 0.500000 0.073433 -0.024239
C210  C     C_R   0.500000 1.000000 0.073420 -0.043780
C211  C     C_R   0.000000 0.500000 0.926580 -0.044174
C212  C     C_R   0.500000 0.000000 0.926580 -0.043990
C213  C     C_R   0.500000 0.000000 0.573420 -0.043997
C214  C     C_R   0.000000 0.500000 0.573420 -0.044184
C215  C     C_R   0.500000 1.000000 0.426580 -0.043799
C216  C     C_R   1.000000 0.500000 0.426589 -0.021321
Br1   Br    Br    0.326183 0.392064 0.968675 -0.319060
Br2   Br    Br    0.607974 0.326330 0.968684 -0.318808
Br3   Br    Br    0.673817 0.607936 0.968675 -0.319061
Br4   Br    Br    0.392025 0.673669 0.968684 -0.318808
Br5   Br    Br    0.326329 0.607953 0.031327 -0.315886
Br6   Br    Br    0.607948 0.673815 0.031318 -0.322244
Br7   Br    Br    0.673670 0.392047 0.031327 -0.315887
Br8   Br    Br    0.392052 0.326185 0.031317 -0.322244
Br9   Br    Br    0.826185 0.892050 0.468683 -0.322629
Br10  Br    Br    0.107950 0.826329 0.468672 -0.315987
Br11  Br    Br    0.173815 0.107950 0.468683 -0.322630
Br12  Br    Br    0.892050 0.173671 0.468672 -0.315987
Br13  Br    Br    0.826331 0.107976 0.531315 -0.318754
Br14  Br    Br    0.107934 0.173817 0.531326 -0.319070
Br15  Br    Br    0.173670 0.892024 0.531315 -0.318753
Br16  Br    Br    0.892066 0.826183 0.531326 -0.319070
N9    N     N_R   0.185703 0.413460 0.970913 0.250547
O65   O     O_R   0.188130 0.354363 0.975066 -0.291375
O66   O     O_R   0.151407 0.434059 0.953487 -0.386605
N10   N     N_R   0.586656 0.185813 0.970953 0.250481
O67   O     O_R   0.645747 0.188333 0.975117 -0.289716
O68   O     O_R   0.566090 0.151498 0.953519 -0.386982
N11   N     N_R   0.814297 0.586540 0.970913 0.250547
O69   O     O_R   0.811870 0.645637 0.975066 -0.291375
O70   O     O_R   0.848592 0.565941 0.953487 -0.386604
N12   N     N_R   0.413344 0.814187 0.970953 0.250480
O71   O     O_R   0.354253 0.811667 0.975117 -0.289715
O72   O     O_R   0.433910 0.848502 0.953519 -0.386981
N13   N     N_R   0.185809 0.586631 0.029057 0.251648
O73   O     O_R   0.188356 0.645728 0.024907 -0.285855
O74   O     O_R   0.151443 0.566048 0.046474 -0.373355
N14   N     N_R   0.586548 0.814296 0.029083 0.250340
O75   O     O_R   0.645644 0.811868 0.024927 -0.291383
O76   O     O_R   0.565955 0.848591 0.046510 -0.387299
N15   N     N_R   0.814191 0.413369 0.029057 0.251648
O77   O     O_R   0.811644 0.354272 0.024907 -0.285855
O78   O     O_R   0.848557 0.433952 0.046474 -0.373355
N16   N     N_R   0.413452 0.185704 0.029083 0.250340
O79   O     O_R   0.354356 0.188132 0.024927 -0.291383
O80   O     O_R   0.434045 0.151409 0.046510 -0.387300
N17   N     N_R   0.685704 0.913449 0.470918 0.250333
O81   O     O_R   0.688133 0.854353 0.475075 -0.291412
O82   O     O_R   0.651409 0.934040 0.453491 -0.387311
N18   N     N_R   0.086622 0.685809 0.470940 0.251745
O83   O     O_R   0.145720 0.688352 0.475088 -0.285277
O84   O     O_R   0.066033 0.651446 0.453524 -0.373034
N19   N     N_R   0.314296 0.086551 0.470918 0.250334
O85   O     O_R   0.311867 0.145647 0.475075 -0.291412
O86   O     O_R   0.348591 0.065959 0.453491 -0.387311
N20   N     N_R   0.913378 0.314191 0.470940 0.251745
O87   O     O_R   0.854280 0.311648 0.475088 -0.285277
O88   O     O_R   0.933967 0.348554 0.453524 -0.373034
N21   N     N_R   0.685813 0.086659 0.529045 0.250481
O89   O     O_R   0.688334 0.145750 0.524881 -0.289645
O90   O     O_R   0.651499 0.066094 0.546480 -0.386979
N22   N     N_R   0.086537 0.314297 0.529089 0.250563
O91   O     O_R   0.145634 0.311872 0.524936 -0.291441
O92   O     O_R   0.065936 0.348594 0.546514 -0.386555
N23   N     N_R   0.314187 0.913341 0.529045 0.250481
O93   O     O_R   0.311665 0.854250 0.524881 -0.289645
O94   O     O_R   0.348501 0.933906 0.546480 -0.386979
N24   N     N_R   0.913463 0.685703 0.529089 0.250563
O95   O     O_R   0.854366 0.688128 0.524936 -0.291441
O96   O     O_R   0.934064 0.651406 0.546514 -0.386555

loop_
_geom_bond_atom_site_label_1
_geom_bond_atom_site_label_2
_geom_bond_distance
_ccdc_geom_bond_type
C200  C212  1.404130 A    
C101  C157  1.419062 A    
N19   O86   1.301196 A    
C88   C91   1.418719 A    
C187  C203  1.391704 A    
C29   Br13  1.935450 S    
C22   C38   1.388058 A    
C143  C167  1.401438 A    
C37   N13   1.435805 S    
C82   C106  1.414925 A    
C119  C135  1.387746 A    
C141  C165  1.401438 A    
C16   C61   1.427728 S    
C26   Br10  1.935463 S    
C117  C133  1.387746 A    
C128  H24   1.083506 S    
C143  C155  1.407818 A    
N22   O91   1.300988 A    
C171  N5    1.367727 A    
N14   O76   1.301198 A    
O22   Zn6   2.023925 S    
C81   C94   1.418470 A    
C122  H18   1.083509 S    
C111  H7    1.076808 S    
O30   C72   1.287091 A    
C126  C142  1.395727 A    
C88   C100  1.420210 A    
C109  H5    1.076807 S    
C118  H14   1.076960 S    
C152  C176  1.401339 A    
C178  H34   1.082913 S    
C173  N7    1.367726 A    
C113  H9    1.076804 S    
C91   C101  1.420213 A    
C27   C63   1.404423 A    
C204  H60   1.083034 S    
C120  C136  1.387774 A    
C50   C74   1.437947 S    
O39   C75   1.278639 A    
C33   C49   1.408596 A    
N20   O88   1.301219 A    
C112  H8    1.076807 S    
C82   C98   1.420217 A    
C196  H52   1.083031 S    
O48   Zn12  2.017689 S    
C134  H30   1.083539 S    
O33   Zn5   2.017696 S    
C142  C166  1.401438 A    
C44   N20   1.435794 S    
N12   O72   1.301200 A    
C152  C160  1.407723 A    
C3    C181  1.400286 A    
C161  N1    1.367800 A    
C5    C187  1.400290 A    
C149  C159  1.407820 A    
C6    C188  1.400288 A    
C166  O54   1.349931 S    
O38   C76   1.278570 A    
O10   C14   1.278968 A    
C34   C50   1.408575 A    
C46   C56   1.408593 A    
O48   C78   1.278550 A    
O2    C10   1.278966 A    
O22   C68   1.287174 A    
C189  H45   1.082910 S    
C201  C213  1.404129 A    
C148  C172  1.401432 A    
C81   C97   1.420082 A    
C26   C42   1.388102 A    
N9    O65   1.300988 A    
C165  N3    1.367725 A    
C7    N7    1.431967 S    
N11   O69   1.300988 A    
C138  C154  1.407821 A    
C31   C63   1.404440 A    
C190  C206  1.391596 A    
C5    N5    1.431973 S    
C129  H25   1.083505 S    
N15   O78   1.301223 A    
C119  H15   1.076808 S    
C23   Br7   1.935458 S    
C17   Br1   1.935477 S    
C25   C61   1.404419 A    
O23   C67   1.287173 A    
N10   O68   1.301200 A    
O20   C66   1.287178 A    
C194  C210  1.404131 A    
C18   Br2   1.935453 S    
N13   O73   1.300993 A    
O27   Zn11  2.023920 S    
C95   C103  1.420214 A    
C188  C204  1.391704 A    
O11   Zn3   2.017772 S    
O40   C74   1.278570 A    
C13   C62   1.427733 S    
N17   O81   1.300988 A    
C27   C43   1.388060 A    
C96   C120  1.414764 A    
C205  H61   1.083033 S    
C184  H40   1.082913 S    
C201  H57   1.083037 S    
C124  H20   1.083509 S    
C151  C175  1.401432 A    
C8    N8    1.432458 S    
N22   O92   1.301197 A    
O24   C68   1.287173 A    
C39   N15   1.435802 S    
O29   C71   1.287174 A    
O37   Zn7   2.018160 S    
C70   C214  1.465189 S    
O42   Zn10  2.018153 S    
C164  N2    1.367727 A    
C35   C51   1.408599 A    
C174  N8    1.368002 A    
C103  C159  1.419067 A    
C177  C193  1.391587 A    
C145  C169  1.401438 A    
C106  C122  1.387740 A    
O35   Zn7   2.017698 S    
C175  O63   1.349939 S    
C125  H21   1.083508 S    
C1    C177  1.400235 A    
C135  C151  1.395732 A    
C145  C157  1.407819 A    
C186  H42   1.082913 S    
C94   C104  1.420076 A    
C6    C186  1.400289 A    
C130  C146  1.395731 A    
C168  N4    1.367725 A    
C137  C161  1.401315 A    
O14   Zn4   2.017779 S    
C85   C99   1.420214 A    
C86   C100  1.420209 A    
C48   C54   1.408594 A    
N15   O77   1.300992 A    
C164  O52   1.349939 S    
C25   C41   1.388060 A    
O16   C16   1.278954 A    
C65   C209  1.465640 S    
C208  C216  1.403926 A    
O5    C11   1.278967 A    
C207  C215  1.404131 A    
C124  C140  1.395731 A    
C30   Br14  1.935477 S    
C140  C154  1.407823 A    
O10   Zn3   2.017780 S    
O44   Zn12  2.018156 S    
C127  H23   1.083512 S    
O41   C77   1.278568 A    
C85   C90   1.418717 A    
C192  H48   1.082911 S    
C23   C39   1.388108 A    
C17   C33   1.388058 A    
C174  O62   1.349997 S    
O21   C67   1.287174 A    
C206  H62   1.083040 S    
C197  H53   1.083032 S    
C130  H26   1.083508 S    
N21   O90   1.301199 A    
O18   Zn6   2.023920 S    
C93   C117  1.414924 A    
O32   C72   1.287090 A    
C99   C155  1.419067 A    
O36   Zn8   2.018156 S    
C9    C58   1.427722 S    
C106  H2    1.076811 S    
C11   C60   1.427722 S    
C163  N1    1.367797 A    
C45   C53   1.408573 A    
C71   C215  1.465189 S    
C131  C147  1.395727 A    
C36   C52   1.408574 A    
C4    N4    1.431973 S    
C181  C197  1.391704 A    
C128  C144  1.395729 A    
C15   C64   1.427733 S    
C136  C152  1.395878 A    
C170  N6    1.367723 A    
C3    N3    1.431967 S    
C134  C150  1.395880 A    
C31   Br15  1.935454 S    
O38   Zn6   2.017691 S    
O8    Zn2   2.017782 S    
O12   Zn3   2.017782 S    
C12   C57   1.427738 S    
C190  H46   1.082911 S    
C83   C107  1.414775 A    
O34   C74   1.278628 A    
C200  H56   1.083037 S    
C165  O53   1.349938 S    
C135  H31   1.083507 S    
C173  O61   1.349937 S    
O34   Zn6   2.018153 S    
C47   C55   1.408574 A    
O18   C66   1.287177 A    
O15   Zn4   2.017775 S    
N9    O66   1.301197 A    
N16   O79   1.300989 A    
C1    C179  1.400236 A    
C66   C210  1.465189 S    
C2    C180  1.400287 A    
O4    Zn1   2.017782 S    
C108  H4    1.076810 S    
C139  C153  1.407802 A    
N11   O70   1.301196 A    
C167  O55   1.349938 S    
O28   Zn12  2.023920 S    
C98   C154  1.419062 A    
C151  C159  1.407820 A    
C144  C156  1.407818 A    
C81   C105  1.414776 A    
O45   Zn11  2.018160 S    
C46   N22   1.435807 S    
C27   Br11  1.935479 S    
O16   Zn4   2.017782 S    
C56   C80   1.437938 S    
O6    C10   1.278961 A    
C40   N16   1.435806 S    
C29   C61   1.404443 A    
C115  C131  1.387746 A    
C49   C73   1.437943 S    
C197  C211  1.404132 A    
C17   C57   1.404426 A    
O8    C12   1.278962 A    
C131  H27   1.083501 S    
O31   Zn9   2.023925 S    
O29   Zn11  2.023925 S    
C2    N2    1.431967 S    
C194  H50   1.083033 S    
C102  C158  1.419067 A    
O21   Zn7   2.023925 S    
C7    C191  1.400286 A    
C171  O59   1.349935 S    
C182  H38   1.082914 S    
C31   C47   1.388096 A    
C205  C215  1.404132 A    
C30   C64   1.404427 A    
N23   O94   1.301200 A    
C118  C134  1.387768 A    
C172  N6    1.367726 A    
C67   C211  1.465189 S    
C28   C44   1.388102 A    
N24   O95   1.300989 A    
O3    Zn1   2.017772 S    
C100  C156  1.419067 A    
C204  C214  1.404131 A    
C163  O51   1.349995 S    
C110  H6    1.076807 S    
C47   N23   1.435794 S    
C14   C63   1.427728 S    
C192  C208  1.391596 A    
O17   C65   1.287295 A    
C114  H10   1.076807 S    
C19   C35   1.388058 A    
C129  C145  1.395729 A    
C20   C36   1.388096 A    
C206  C216  1.403924 A    
C136  H32   1.083538 S    
C177  H33   1.082914 S    
C126  H22   1.083504 S    
C2    C178  1.400290 A    
C43   N19   1.435809 S    
C142  C156  1.407816 A    
C199  C211  1.404131 A    
C32   Br16  1.935476 S    
C51   C75   1.437943 S    
O24   Zn8   2.023926 S    
C172  O60   1.349939 S    
C95   C119  1.414923 A    
O15   C13   1.278965 A    
C53   C77   1.437952 S    
C148  C158  1.407822 A    
C90   C102  1.420213 A    
C85   C109  1.414924 A    
C68   C212  1.465189 S    
C166  N4    1.367724 A    
C182  C198  1.391704 A    
C208  H64   1.083042 S    
O19   Zn7   2.023920 S    
C91   C115  1.414918 A    
N14   O75   1.300988 A    
O46   Zn10  2.017691 S    
O39   Zn5   2.018162 S    
C41   C53   1.408603 A    
C41   N17   1.435805 S    
O6    Zn2   2.017779 S    
O30   Zn10  2.023925 S    
C19   C59   1.404423 A    
C24   C58   1.404420 A    
O42   C78   1.278642 A    
C176  O64   1.349993 S    
C86   C89   1.418718 A    
C169  N5    1.367726 A    
C18   C34   1.388093 A    
O19   C65   1.287294 A    
C167  N3    1.367727 A    
C110  C126  1.387746 A    
C28   Br12  1.935463 S    
C24   Br8   1.935482 S    
C42   N18   1.435796 S    
C114  C130  1.387746 A    
O2    Zn1   2.017780 S    
C33   N9    1.435806 S    
C84   C108  1.414923 A    
C125  C141  1.395730 A    
N20   O87   1.300995 A    
O26   Zn10  2.023920 S    
O7    Zn2   2.017775 S    
C7    C189  1.400287 A    
C89   C101  1.420212 A    
C191  C207  1.391704 A    
C6    N6    1.431967 S    
C137  C153  1.407805 A    
C198  C212  1.404126 A    
O47   Zn9   2.018162 S    
C180  C196  1.391704 A    
O47   C79   1.278627 A    
O13   C15   1.278965 A    
O45   C77   1.278627 A    
C115  H11   1.076806 S    
N12   O71   1.300992 A    
O40   Zn8   2.017689 S    
C193  C209  1.404264 A    
O31   C71   1.287173 A    
C35   N11   1.435806 S    
C10   C59   1.427738 S    
O7    C9    1.278968 A    
C202  C214  1.404132 A    
O43   Zn11  2.017698 S    
C19   Br3   1.935477 S    
C21   C37   1.388106 A    
C187  H43   1.082911 S    
C203  C213  1.404128 A    
C198  H54   1.083034 S    
C196  C210  1.404132 A    
C24   C40   1.388058 A    
C107  H3    1.076957 S    
O3    C11   1.278954 A    
C121  C137  1.395849 A    
C150  C174  1.401333 A    
C8    C190  1.400546 A    
O36   C76   1.278628 A    
C116  C132  1.387746 A    
C181  H37   1.082911 S    
C120  H16   1.076959 S    
C121  H17   1.083536 S    
N18   O83   1.300992 A    
N19   O85   1.300987 A    
O9    Zn3   2.017774 S    
C22   Br6   1.935480 S    
C42   C54   1.408562 A    
C132  H28   1.083509 S    
C117  H13   1.076808 S    
C92   C102  1.420212 A    
O17   Zn5   2.023920 S    
C178  C194  1.391698 A    
C22   C60   1.404421 A    
C146  C170  1.401438 A    
C4    C184  1.400293 A    
C161  O49   1.349993 S    
C122  C138  1.395731 A    
C87   C99   1.420212 A    
N10   O67   1.300990 A    
N21   O89   1.300989 A    
O1    Zn1   2.017774 S    
C146  C158  1.407820 A    
N13   O74   1.301222 A    
C29   C45   1.388098 A    
C52   C76   1.437947 S    
C185  H41   1.082911 S    
N17   O82   1.301197 A    
C21   C57   1.404451 A    
C188  H44   1.082909 S    
O37   C73   1.278639 A    
C133  H29   1.083509 S    
C86   C110  1.414919 A    
C150  C160  1.407727 A    
C138  C162  1.401438 A    
C25   Br9   1.935481 S    
C184  C200  1.391699 A    
C141  C155  1.407820 A    
O32   Zn12  2.023926 S    
O25   C69   1.287173 A    
C179  H35   1.082914 S    
C21   Br5   1.935459 S    
C108  C124  1.387740 A    
C4    C182  1.400293 A    
C20   C60   1.404443 A    
C144  C168  1.401438 A    
O27   C69   1.287172 A    
C5    C185  1.400291 A    
C32   C48   1.388059 A    
C199  H55   1.083034 S    
C127  C143  1.395728 A    
C168  O56   1.349932 S    
C104  C160  1.418811 A    
C195  C209  1.404266 A    
O11   C15   1.278961 A    
C26   C62   1.404448 A    
O12   C16   1.278967 A    
O1    C9    1.278953 A    
C132  C148  1.395731 A    
O14   C14   1.278953 A    
C189  C205  1.391704 A    
O46   C80   1.278550 A    
O4    C12   1.278966 A    
C87   C111  1.414923 A    
C83   C97   1.420081 A    
N16   O80   1.301193 A    
C107  C123  1.387775 A    
C93   C103  1.420216 A    
O20   Zn8   2.023920 S    
C140  C164  1.401432 A    
C105  H1    1.076958 S    
O13   Zn4   2.017773 S    
C45   N21   1.435794 S    
N23   O93   1.300988 A    
C186  C202  1.391699 A    
C180  H36   1.082911 S    
O43   C79   1.278568 A    
C162  N2    1.367724 A    
C123  C139  1.395847 A    
C28   C64   1.404448 A    
C183  C199  1.391704 A    
C8    C192  1.400546 A    
C203  H59   1.083039 S    
C69   C213  1.465183 S    
C116  H12   1.076806 S    
C133  C149  1.395728 A    
C36   N12   1.435792 S    
O23   Zn5   2.023925 S    
C40   C50   1.408600 A    
C175  N7    1.367726 A    
O5    Zn2   2.017773 S    
C170  O58   1.349939 S    
C44   C56   1.408561 A    
C20   Br4   1.935450 S    
C191  H47   1.082912 S    
C202  H58   1.083032 S    
C32   C62   1.404426 A    
C30   C46   1.388057 A    
C96   C104  1.420075 A    
C23   C59   1.404451 A    
C195  H51   1.082992 S    
O33   C73   1.278550 A    
C90   C114  1.414921 A    
C38   N14   1.435806 S    
C54   C78   1.437938 S    
O35   C75   1.278550 A    
C162  O50   1.349938 S    
C84   C98   1.420216 A    
C193  H49   1.082992 S    
C43   C55   1.408601 A    
O28   C70   1.287178 A    
O26   C70   1.287177 A    
C179  C195  1.391587 A    
O44   C80   1.278642 A    
C48   N24   1.435805 S    
O41   Zn9   2.017696 S    
N18   O84   1.301220 A    
C185  C201  1.391704 A    
C72   C216  1.464849 S    
O9    C13   1.278960 A    
C18   C58   1.404443 A    
C97   C153  1.418800 A    
C111  C127  1.387740 A    
C105  C121  1.387775 A    
C176  N8    1.368000 A    
C84   C95   1.418722 A    
C94   C118  1.414763 A    
C87   C92   1.418723 A    
C109  C125  1.387740 A    
C183  H39   1.082911 S    
C38   C52   1.408599 A    
C83   C96   1.418470 A    
N24   O96   1.301198 A    
C112  C128  1.387741 A    
C123  H19   1.083535 S    
C113  C129  1.387746 A    
C88   C112  1.414918 A    
C3    C183  1.400287 A    
C89   C113  1.414918 A    
C82   C93   1.418717 A    
C149  C173  1.401438 A    
O25   Zn9   2.023920 S    
C147  C157  1.407817 A    
C169  O57   1.349932 S    
C92   C116  1.414919 A    
C139  C163  1.401315 A    
C55   C79   1.437952 S    
C147  C171  1.401438 A    
C207  H63   1.083033 S    
C37   C49   1.408563 A    
C34   N10   1.435793 S    
C39   C51   1.408566 A    
C1    N1    1.431984 S    
