data_mof_unit_13450.cif
_audit_creation_date              2012-12-11T15:57:38-0500
_audit_creation_method            fapswitch 2.2
_symmetry_space_group_name_H-M    P1
_symmetry_Int_Tables_number       1
_space_group_crystal_system       triclinic
_cell_length_a                    10.787713
_cell_length_b                    10.750673
_cell_length_c                    17.050917
_cell_angle_alpha                 99.928084
_cell_angle_beta                  100.342132
_cell_angle_gamma                 60.861632
_cell_volume                      1690.82998915

loop_
_atom_site_label
_atom_site_type_symbol
_atom_type_description
_atom_site_fract_x
_atom_site_fract_y
_atom_site_fract_z
_atom_type_partial_charge
C1    C     C_R   0.378100 0.717452 0.388264 0.540348
C2    C     C_2   0.844339 0.322392 0.163007 -0.120361
C3    C     C_2   0.900821 0.205614 0.203077 -0.133707
C4    C     C_2   0.863761 0.212097 0.282568 -0.022540
C5    C     C_2   0.362279 0.769171 0.312228 -0.107541
C6    C     C_2   0.356750 0.795665 0.146148 -0.115502
C7    C     C_2   0.456697 0.803071 0.202793 -0.162275
C8    C     C_2   0.475684 0.752767 0.280753 -0.167849
C9    C     C_2   0.348935 0.332128 0.659746 -0.104484
C10   C     C_2   0.340056 0.340731 0.830848 -0.106985
C11   C     C_2   0.446799 0.245796 0.787395 0.254060
C12   C     C_R   0.406218 0.374961 0.356191 0.543231
C13   C     C_2   0.462753 0.286168 0.715651 0.256410
C14   C     C_1   0.849694 0.329063 0.705036 -0.024902
C15   C     C_1   0.896870 0.293226 0.771590 -0.041590
C16   C     C_1   0.341260 0.804434 0.710063 -0.064990
C17   C     C_1   0.314178 0.832976 0.777836 -0.053635
C18   C     C_R   0.897119 0.306953 0.087741 0.566311
C19   C     C_R   0.321900 0.302735 0.118939 0.550911
C20   C     C_R   0.296393 0.887058 0.081613 0.553362
C21   C     C_R   0.945011 0.272461 0.854216 0.554456
C22   C     C_R   0.307625 0.292970 0.894409 0.549203
C23   C     C_R   0.776639 0.375889 0.404902 0.526769
C24   C     C_R   0.278767 0.883461 0.857022 0.537256
C25   C     C_R   0.359839 0.766269 0.627939 0.556820
C26   C     C_R   0.371364 0.348035 0.583118 0.591994
C27   C     C_R   0.778653 0.378605 0.628816 0.573509
C28   C     C_1   0.375052 0.363098 0.271722 -0.052626
C29   C     C_1   0.349974 0.344106 0.200813 -0.043901
C30   C     C_2   0.854964 0.325060 0.335104 -0.103485
Cr1   Cr    Cr6+3 0.608020 0.610770 0.522990 1.019014
Cr2   Cr    Cr6+3 0.289390 0.599570 0.488050 1.027595
Cr3   Cr    Cr6+3 0.602610 0.289690 0.489020 1.012989
Cr4   Cr    Cr6+3 0.053780 0.052210 0.965970 1.032041
Cr5   Cr    Cr6+3 0.060060 0.372530 0.992430 1.030217
Cr6   Cr    Cr6+3 0.372600 0.061970 0.991430 1.042042
H1    H     H_    0.976524 0.102035 0.176937 0.163954
H2    H     H_    0.270322 0.448978 0.814393 0.059312
H3    H     H_    0.244220 0.350966 0.669919 0.022498
H4    H     H_    0.771305 0.427885 0.188662 0.097742
H5    H     H_    0.890897 0.395877 0.320165 0.105549
H6    H     H_    0.515288 0.857812 0.195236 0.158522
H7    H     H_    0.581367 0.709370 0.314018 0.155755
H8    H     H_    0.302914 0.735884 0.153442 0.105202
H9    H     H_    0.255488 0.818998 0.280630 0.108372
O1    O     O_R   0.749250 0.499990 0.439200 -0.524505
O2    O     O_R   0.299400 0.468710 0.556310 -0.491836
O3    O     O_R   0.489240 0.256450 0.560730 -0.477864
O4    O     O_R   0.723350 0.306730 0.584410 -0.474931
O5    O     O_3   0.500010 0.500010 0.500020 -0.282825
O6    O     O_R   0.170650 0.915100 0.051290 -0.521617
O7    O     O_R   0.941960 0.184500 0.049060 -0.490432
O8    O     O_R   0.922640 0.402670 0.071640 -0.502684
O9    O     O_R   0.196880 0.368740 0.083740 -0.496031
O10   O     O_R   0.411120 0.181190 0.091480 -0.509994
O11   O     O_R   0.364220 0.944920 0.062310 -0.490940
O12   O     O_R   0.477870 0.725740 0.440280 -0.487443
O13   O     O_R   0.158740 0.906940 0.874970 -0.514165
O14   O     O_R   0.930920 0.176940 0.885610 -0.487022
O15   O     O_R   0.910730 0.394510 0.895320 -0.493134
O16   O     O_R   0.185840 0.361180 0.920280 -0.527730
O17   O     O_R   0.399210 0.173040 0.915160 -0.446956
O18   O     O_R   0.353170 0.937370 0.898860 -0.504029
O19   O     O_3   0.162150 0.162240 0.983280 -0.281589
O20   O     O_R   0.260770 0.742210 0.412610 -0.518507
O21   O     O_R   0.297990 0.466320 0.394220 -0.499241
O22   O     O_R   0.487720 0.253870 0.385870 -0.515320
O23   O     O_R   0.721940 0.304340 0.422320 -0.533505
O24   O     O_R   0.750770 0.502570 0.614050 -0.506120
O25   O     O_R   0.479280 0.728140 0.602370 -0.494122
O26   O     O_R   0.262290 0.744790 0.587460 -0.504523
O27   O     O_3   0.594156 0.271572 0.703914 -0.535810
C31   C     C_3   0.701237 0.126715 0.704064 -0.028762
H10   H     H_    0.663678 0.051427 0.669741 0.117170
H11   H     H_    0.745887 0.098937 0.766261 0.178222
H12   H     H_    0.790860 0.110199 0.673413 0.121797
C32   C     C_3   0.832091 0.097022 0.301257 -0.235868
C33   C     C_3   0.875385 0.964384 0.240416 -0.444125
H13   H     H_    0.816771 0.993944 0.180338 0.165949
H14   H     H_    0.992271 0.910111 0.236901 0.147331
H15   H     H_    0.848173 0.887853 0.259650 0.143460
H16   H     H_    0.889970 0.059961 0.360413 0.167943
H17   H     H_    0.715563 0.143776 0.303741 0.186112
O28   O     O_3   0.534175 0.104749 0.804085 -0.550825
C34   C     C_3   0.478980 0.018352 0.755943 -0.095512
H18   H     H_    0.484224 0.015699 0.691192 0.091917
H19   H     H_    0.366417 0.055924 0.765679 0.115509
H20   H     H_    0.544312 0.907345 0.772761 0.163482

loop_
_geom_bond_atom_site_label_1
_geom_bond_atom_site_label_2
_ccdc_geom_bond_type
Cr5   O8    S    
C31   H10   S    
C8    H7    S    
C20   O11   A    
C18   O7    A    
C7    C8    S    
C32   C33   S    
C10   C22   S    
Cr4   O6    S    
C12   C28   S    
C1    C5    S    
C28   C29   T    
C21   O14   A    
C20   O6    A    
C33   H14   S    
C2    C18   S    
C32   H17   S    
Cr3   O4    S    
C9    H3    S    
C7    H6    S    
C9    C13   D    
C18   O8    A    
Cr1   O25   S    
C16   C17   T    
Cr1   O1    S    
C1    O20   A    
C30   H5    S    
Cr5   O19   S    
C25   O26   A    
C14   C27   S    
Cr6   O18   S    
C27   O24   A    
C26   O3    A    
C23   O1    A    
C6    H8    S    
Cr5   O9    S    
C31   H11   S    
Cr6   O17   S    
C9    C26   S    
Cr2   O26   S    
C34   H19   S    
C12   O22   A    
C17   C24   S    
C23   C30   S    
O28   C34   S    
C21   O15   A    
C33   H13   S    
Cr3   O5    S    
C34   H18   S    
C12   O21   A    
Cr5   O15   S    
C23   O23   A    
Cr6   O11   S    
C1    O12   A    
C22   O17   A    
C15   C21   S    
Cr4   O19   S    
Cr5   O16   S    
Cr2   O5    S    
C26   O2    A    
C19   O9    A    
C24   O18   A    
Cr4   O14   S    
Cr2   O2    S    
Cr1   O5    S    
C3    C4    S    
C19   C29   S    
Cr3   O22   S    
Cr2   O21   S    
C34   H20   S    
C19   O10   A    
C16   C25   S    
O27   C31   S    
C5    C8    D    
C6    C7    D    
C13   O27   S    
C11   O28   S    
C6    C20   S    
Cr4   O7    S    
C10   H2    S    
Cr1   O12   S    
C2    C3    D    
C4    C32   S    
Cr6   O10   S    
C22   O16   A    
C11   C13   S    
C33   H15   S    
C5    H9    S    
C32   H16   S    
C31   H12   S    
C10   C11   D    
C2    H4    S    
Cr1   O24   S    
C3    H1    S    
C24   O13   A    
Cr4   O13   S    
Cr3   O3    S    
C14   C15   T    
C25   O25   A    
Cr6   O19   S    
C4    C30   D    
C27   O4    A    
Cr3   O23   S    
Cr2   O20   S    
