data_mof_unit_63049.cif
_audit_creation_date              2012-12-10T22:25:42-0500
_audit_creation_method            fapswitch 2.2
_symmetry_space_group_name_H-M    P1
_symmetry_Int_Tables_number       1
_space_group_crystal_system       triclinic
_cell_length_a                    33.139618
_cell_length_b                    33.138736
_cell_length_c                    33.108259
_cell_angle_alpha                 59.978284
_cell_angle_beta                  59.971908
_cell_angle_gamma                 59.952075
_cell_volume                      25691.1634601

loop_
_atom_site_label
_atom_site_type_symbol
_atom_type_description
_atom_site_fract_x
_atom_site_fract_y
_atom_site_fract_z
_atom_type_partial_charge
C1    C     C_R   0.960789 0.595639 0.960915 1.028462
C2    C     C_R   0.039090 0.404348 0.039170 1.030424
C3    C     C_R   0.595691 0.960800 0.960647 1.020487
C4    C     C_R   0.404499 0.038941 0.039002 1.035976
C5    C     C_R   0.960844 0.960735 0.595695 1.034770
C6    C     C_R   0.039188 0.039188 0.404277 1.030534
C7    C     C_R   0.923254 0.510005 0.668001 0.316415
C8    C     C_R   0.095999 0.486012 0.333680 0.315102
C9    C     C_R   0.508542 0.667218 0.931875 0.339068
C10   C     C_R   0.491677 0.332569 0.107099 0.346652
C11   C     C_R   0.666980 0.890797 0.508559 0.352661
C12   C     C_R   0.332522 0.109614 0.492594 0.351999
C13   C     C_R   0.491913 0.071573 0.331902 0.334035
C14   C     C_R   0.509681 0.930145 0.667046 0.344705
C15   C     C_R   0.332434 0.491838 0.069081 0.335171
C16   C     C_R   0.668211 0.507349 0.893865 0.339875
C17   C     C_R   0.073565 0.320973 0.574056 0.309460
C18   C     C_R   0.922621 0.679098 0.428186 0.313978
C19   C     C_R   0.902550 0.499497 0.719369 0.440741
C20   C     C_R   0.117062 0.495603 0.282421 0.387879
C21   C     C_R   0.499609 0.718256 0.910144 0.419766
C22   C     C_R   0.501108 0.281389 0.127695 0.358407
C23   C     C_R   0.718119 0.869553 0.499751 0.369107
C24   C     C_R   0.281319 0.130791 0.501737 0.367722
C25   C     C_R   0.502034 0.092826 0.280658 0.430336
C26   C     C_R   0.500727 0.908464 0.718148 0.425179
C27   C     C_R   0.281339 0.501189 0.090713 0.431006
C28   C     C_R   0.719547 0.496972 0.873363 0.376221
C29   C     C_R   0.092165 0.269199 0.586791 0.372736
C30   C     C_R   0.904571 0.730876 0.415126 0.368488
C31   C     C_R   0.899548 0.451873 0.750743 0.007680
C32   C     C_R   0.103452 0.544457 0.250142 -0.005701
C33   C     C_R   0.456005 0.749995 0.898009 0.007824
C34   C     C_R   0.545375 0.249793 0.104049 0.001099
C35   C     C_R   0.749982 0.894359 0.457401 0.008523
C36   C     C_R   0.249663 0.105529 0.543817 0.007466
C37   C     C_R   0.547955 0.100334 0.249354 0.011623
C38   C     C_R   0.456520 0.897573 0.749959 0.017359
C39   C     C_R   0.249751 0.545603 0.101350 0.008881
C40   C     C_R   0.750789 0.451691 0.896445 0.002400
C41   C     C_R   0.096047 0.247710 0.556985 0.012882
C42   C     C_R   0.904107 0.752509 0.442765 0.014764
C43   C     C_R   0.881042 0.498124 0.901556 0.547562
C44   C     C_R   0.117230 0.503043 0.099078 0.524158
C45   C     C_R   0.409486 0.937850 0.921657 0.566245
C46   C     C_R   0.502001 0.098968 0.117822 0.514956
C47   C     C_R   0.909274 0.943959 0.415903 0.551613
C48   C     C_R   0.089788 0.056795 0.584415 0.561552
C49   C     C_R   0.587367 0.082967 0.060785 0.566335
C50   C     C_R   0.496494 0.885218 0.898439 0.530478
C51   C     C_R   0.061389 0.588590 0.080996 0.554629
C52   C     C_R   0.936886 0.412452 0.919716 0.538469
C53   C     C_R   0.087177 0.126223 0.506520 0.544897
C54   C     C_R   0.914054 0.873266 0.492654 0.535271
C55   C     C_R   0.900838 0.507903 0.923156 -0.289656
C56   C     C_R   0.098207 0.493037 0.077171 -0.259606
C57   C     C_R   0.421420 0.957711 0.941605 -0.282084
C58   C     C_R   0.492204 0.077443 0.098253 -0.246632
C59   C     C_R   0.929238 0.964189 0.427333 -0.312254
C60   C     C_R   0.069725 0.036525 0.573137 -0.291943
C61   C     C_R   0.576378 0.062253 0.040887 -0.287726
C62   C     C_R   0.506967 0.904581 0.919865 -0.285511
C63   C     C_R   0.040340 0.576946 0.062242 -0.254380
C64   C     C_R   0.958535 0.423907 0.937866 -0.245351
C65   C     C_R   0.068249 0.104570 0.495758 -0.274278
C66   C     C_R   0.933006 0.894842 0.503468 -0.284910
C67   C     C_R   0.939994 0.471264 0.940104 -0.143561
C68   C     C_R   0.059440 0.529578 0.059680 -0.150065
C69   C     C_R   0.469823 0.940925 0.940510 -0.111425
C70   C     C_R   0.529037 0.059829 0.059675 -0.125656
C71   C     C_R   0.940376 0.939860 0.471028 -0.132612
C72   C     C_R   0.059684 0.060184 0.528881 -0.112840
C73   C     C_R   0.898573 0.449838 0.900949 -0.021333
C74   C     C_R   0.099518 0.551222 0.099988 -0.028364
C75   C     C_R   0.447243 0.900767 0.901259 0.002559
C76   C     C_R   0.550056 0.100072 0.100203 -0.007244
C77   C     C_R   0.901943 0.898434 0.448928 0.017816
C78   C     C_R   0.098167 0.101755 0.550809 0.008173
C79   C     C_R   0.483867 0.595182 0.960751 0.949896
C80   C     C_R   0.516145 0.404831 0.039320 0.948694
C81   C     C_R   0.595133 0.960480 0.484252 0.948039
C82   C     C_R   0.404830 0.039523 0.515797 0.949676
C83   C     C_R   0.960993 0.483296 0.595268 0.966766
C84   C     C_R   0.039094 0.516471 0.404817 0.960644
C85   C     C_R   0.404783 0.516378 0.039144 0.951310
C86   C     C_R   0.595231 0.483612 0.960767 0.950033
C87   C     C_R   0.038599 0.404497 0.517802 0.964654
C88   C     C_R   0.961420 0.595558 0.482060 0.957539
C89   C     C_R   0.516690 0.038993 0.404750 0.950115
C90   C     C_R   0.483953 0.960724 0.595161 0.948488
C91   C     C_R   0.805293 0.877196 0.873991 0.298492
C92   C     C_R   0.196236 0.123573 0.123045 0.324910
C93   C     C_R   0.878346 0.873895 0.805327 0.325131
C94   C     C_R   0.126331 0.122263 0.194558 0.333599
C95   C     C_R   0.874536 0.804887 0.877896 0.308184
C96   C     C_R   0.125860 0.194813 0.125015 0.358161
C97   C     C_R   0.721123 0.922598 0.867198 0.440225
C98   C     C_R   0.268802 0.056566 0.093418 0.425050
C99   C     C_R   0.926215 0.866452 0.721382 0.421380
C100  C     C_R   0.054900 0.100929 0.268008 0.417336
C101  C     C_R   0.869211 0.720557 0.918933 0.450433
C102  C     C_R   0.132788 0.279170 0.074986 0.407178
C103  C     C_R   0.052447 0.269227 0.108502 0.405808
C104  C     C_R   0.943805 0.731745 0.903440 0.421945
C105  C     C_R   0.133438 0.073994 0.278654 0.420018
C106  C     C_R   0.901544 0.944427 0.731999 0.443717
C107  C     C_R   0.280703 0.125756 0.089355 0.400206
C108  C     C_R   0.731839 0.899989 0.944551 0.443701
C109  C     C_R   0.038796 0.518053 0.038866 0.945298
C110  C     C_R   0.960999 0.482341 0.960980 0.941930
C111  C     C_R   0.517906 0.038875 0.038881 0.946396
C112  C     C_R   0.481747 0.961305 0.961228 0.942530
C113  C     C_R   0.039025 0.039066 0.517606 0.946323
C114  C     C_R   0.960984 0.960942 0.482386 0.948404
C115  C     C_R   0.669944 0.942701 0.888528 0.251231
C116  C     C_R   0.320104 0.034963 0.074572 0.236617
C117  C     C_R   0.942642 0.889003 0.669911 0.259376
C118  C     C_R   0.033000 0.082500 0.319413 0.256954
C119  C     C_R   0.890174 0.669447 0.939542 0.245871
C120  C     C_R   0.110522 0.330539 0.058062 0.229536
C121  C     C_R   0.032278 0.320025 0.084577 0.234255
C122  C     C_R   0.965789 0.680363 0.921552 0.247904
C123  C     C_R   0.111011 0.057145 0.330102 0.248090
C124  C     C_R   0.919732 0.966343 0.680575 0.251596
C125  C     C_R   0.331595 0.105893 0.067330 0.241002
C126  C     C_R   0.680461 0.918259 0.966473 0.253213
C127  C     C_R   0.649339 0.939813 0.938498 -0.380665
C128  C     C_R   0.351335 0.060252 0.060464 -0.363119
C129  C     C_R   0.940146 0.938731 0.649396 -0.370115
C130  C     C_R   0.061093 0.060336 0.350597 -0.367356
C131  C     C_R   0.938855 0.649154 0.939987 -0.373926
C132  C     C_R   0.060810 0.350944 0.061039 -0.356079
C133  C     C_R   0.752184 0.901446 0.895131 -0.236188
C134  C     C_R   0.249233 0.101967 0.100723 -0.248607
C135  C     C_R   0.903484 0.894892 0.752350 -0.234551
C136  C     C_R   0.104721 0.097953 0.247673 -0.239301
C137  C     C_R   0.895663 0.751816 0.901722 -0.234801
C138  C     C_R   0.103295 0.248379 0.102363 -0.228953
C139  C     C_R   0.878739 0.440105 0.804580 0.015530
C140  C     C_R   0.123906 0.555079 0.196641 0.012610
C141  C     C_R   0.444922 0.803694 0.876914 0.010426
C142  C     C_R   0.555716 0.196157 0.124179 0.024669
C143  C     C_R   0.803631 0.873943 0.447409 -0.002210
C144  C     C_R   0.195953 0.125837 0.553918 -0.002985
C145  C     C_R   0.559515 0.121386 0.195539 0.000817
C146  C     C_R   0.445415 0.876620 0.803666 0.023652
C147  C     C_R   0.196030 0.556722 0.122713 0.014566
C148  C     C_R   0.804546 0.440907 0.876696 0.015259
C149  C     C_R   0.118949 0.194161 0.565796 0.037331
C150  C     C_R   0.880803 0.805992 0.434527 0.037249
C151  C     C_R   0.877455 0.439606 0.878695 -0.050197
C152  C     C_R   0.121054 0.561185 0.122009 -0.040766
C153  C     C_R   0.436923 0.879298 0.879449 -0.023006
C154  C     C_R   0.559730 0.122171 0.121871 -0.023065
C155  C     C_R   0.878609 0.877604 0.439659 -0.014082
C156  C     C_R   0.121279 0.122720 0.560222 -0.014667
C157  C     C_R   0.830387 0.439429 0.828475 -0.252744
C158  C     C_R   0.172774 0.554250 0.172110 -0.249415
C159  C     C_R   0.448132 0.827167 0.827284 -0.282720
C160  C     C_R   0.558282 0.170353 0.172000 -0.247888
C161  C     C_R   0.830302 0.827727 0.441035 -0.186709
C162  C     C_R   0.169155 0.171984 0.560511 -0.188081
C163  C     C_R   0.828325 0.439972 0.902499 0.368521
C164  C     C_R   0.169531 0.562585 0.096686 0.388344
C165  C     C_R   0.438484 0.903431 0.829988 0.372926
C166  C     C_R   0.562927 0.096206 0.169674 0.408760
C167  C     C_R   0.905771 0.832490 0.430437 0.348223
C168  C     C_R   0.094144 0.168118 0.568885 0.349821
C169  C     C_R   0.556431 0.172141 0.098754 0.325134
C170  C     C_R   0.437530 0.830184 0.903800 0.407730
C171  C     C_R   0.097632 0.558583 0.171818 0.355009
C172  C     C_R   0.903184 0.438532 0.830052 0.397453
C173  C     C_R   0.172312 0.101493 0.552512 0.366021
C174  C     C_R   0.827435 0.898517 0.448186 0.365381
C175  C     C_R   0.914864 0.416069 0.730681 -0.168282
C176  C     C_R   0.069208 0.583192 0.268852 -0.122935
C177  C     C_R   0.423674 0.730353 0.904263 -0.185895
C178  C     C_R   0.579087 0.269585 0.059765 -0.118576
C179  C     C_R   0.730515 0.940256 0.424889 -0.107415
C180  C     C_R   0.269456 0.059234 0.575698 -0.109662
C181  C     C_R   0.581793 0.089834 0.269584 -0.177287
C182  C     C_R   0.423373 0.905225 0.730451 -0.186997
C183  C     C_R   0.269616 0.578434 0.093701 -0.187332
C184  C     C_R   0.730444 0.417801 0.940014 -0.128837
C185  C     C_R   0.081022 0.277914 0.515209 -0.104640
C186  C     C_R   0.922458 0.722367 0.482395 -0.106506
C187  C     C_R   0.934354 0.426935 0.679635 -0.185010
C188  C     C_R   0.048278 0.573605 0.319642 -0.200657
C189  C     C_R   0.433661 0.679522 0.923868 -0.240235
C190  C     C_R   0.568636 0.320435 0.038313 -0.246256
C191  C     C_R   0.679781 0.962045 0.434604 -0.238887
C192  C     C_R   0.320271 0.037470 0.565540 -0.239032
C193  C     C_R   0.570820 0.070596 0.320632 -0.236266
C194  C     C_R   0.433162 0.925058 0.679619 -0.239077
C195  C     C_R   0.320525 0.568046 0.074252 -0.238184
C196  C     C_R   0.679449 0.429129 0.961410 -0.239978
C197  C     C_R   0.061795 0.328886 0.503182 -0.185370
C198  C     C_R   0.941776 0.671431 0.494245 -0.192245
C199  C     C_R   0.939212 0.473443 0.648370 -0.172449
C200  C     C_R   0.061435 0.525280 0.351985 -0.179236
C201  C     C_R   0.475408 0.648015 0.938501 -0.174280
C202  C     C_R   0.525266 0.351911 0.061857 -0.170857
C203  C     C_R   0.647982 0.937458 0.476045 -0.168919
C204  C     C_R   0.351864 0.062486 0.524359 -0.171792
C205  C     C_R   0.526446 0.060722 0.351700 -0.170381
C206  C     C_R   0.475634 0.938361 0.647991 -0.171440
C207  C     C_R   0.351867 0.525375 0.061170 -0.174701
C208  C     C_R   0.648335 0.473636 0.938505 -0.168829
C209  C     C_R   0.058640 0.350714 0.531837 -0.182196
C210  C     C_R   0.941278 0.649414 0.468023 -0.190121
H1    H     H_    0.811294 0.442244 0.807976 0.193356
H2    H     H_    0.193712 0.548423 0.192474 0.194773
H3    H     H_    0.455699 0.806078 0.806184 0.192884
H4    H     H_    0.555129 0.189713 0.192439 0.196752
H5    H     H_    0.810917 0.807293 0.444304 0.215854
H6    H     H_    0.188292 0.192184 0.558055 0.213953
H7    H     H_    0.946386 0.398841 0.664452 0.192399
H8    H     H_    0.021973 0.603889 0.333768 0.210953
H9    H     H_    0.408207 0.664764 0.928754 0.174042
H10   H     H_    0.594784 0.335280 0.003718 0.166494
H11   H     H_    0.665301 0.997764 0.409296 0.165263
H12   H     H_    0.334974 0.001427 0.590342 0.165640
H13   H     H_    0.597365 0.062420 0.335945 0.163857
H14   H     H_    0.407056 0.931101 0.664943 0.166356
H15   H     H_    0.335490 0.593834 0.068335 0.174735
H16   H     H_    0.664189 0.402823 0.995473 0.165438
H17   H     H_    0.050337 0.351449 0.470785 0.203500
H18   H     H_    0.956008 0.649035 0.524826 0.217938
H19   H     H_    0.911847 0.379744 0.754608 0.183613
H20   H     H_    0.058631 0.620732 0.244050 0.192545
H21   H     H_    0.390672 0.754482 0.894040 0.175472
H22   H     H_    0.613115 0.245547 0.041423 0.185422
H23   H     H_    0.754762 0.959519 0.392292 0.185119
H24   H     H_    0.245406 0.039602 0.608090 0.184458
H25   H     H_    0.616619 0.096542 0.245795 0.174812
H26   H     H_    0.389847 0.896007 0.754693 0.173915
H27   H     H_    0.245623 0.612057 0.102814 0.177465
H28   H     H_    0.754157 0.383000 0.957933 0.181566
H29   H     H_    0.084781 0.261840 0.491445 0.196081
H30   H     H_    0.921211 0.738422 0.504725 0.198460
H31   H     H_    0.886209 0.544006 0.926357 0.196402
H32   H     H_    0.112940 0.456502 0.074814 0.206773
H33   H     H_    0.393281 0.985287 0.958952 0.174194
H34   H     H_    0.455781 0.074907 0.112804 0.184005
H35   H     H_    0.937113 0.998183 0.402159 0.196114
H36   H     H_    0.060951 0.003023 0.598858 0.155846
H37   H     H_    0.604563 0.046991 0.011754 0.162374
H38   H     H_    0.543849 0.891596 0.920599 0.164177
H39   H     H_    0.009648 0.604819 0.049182 0.177071
H40   H     H_    0.989048 0.395680 0.951080 0.181330
H41   H     H_    0.061290 0.121334 0.461181 0.165201
H42   H     H_    0.940847 0.877567 0.537618 0.197469
N1    N     N_R   0.830851 0.898980 0.826821 -0.176726
N2    N     N_R   0.173080 0.099180 0.169772 -0.232371
N3    N     N_R   0.899948 0.826874 0.830984 -0.235093
N4    N     N_R   0.102726 0.170242 0.172183 -0.217154
N5    N     N_R   0.827042 0.829934 0.899243 -0.183774
N6    N     N_R   0.172782 0.171290 0.100977 -0.228293
O1    O     O_R   0.003330 0.572150 0.937250 -0.590529
O2    O     O_R   0.996670 0.427850 0.062750 -0.591116
O3    O     O_R   0.572150 0.937250 0.003330 -0.581597
O4    O     O_R   0.427850 0.062750 0.996670 -0.598154
O5    O     O_R   0.937250 0.003330 0.572150 -0.574663
O6    O     O_R   0.062750 0.996670 0.427850 -0.592857
O7    O     O_R   0.427850 0.996670 0.062750 -0.591145
O8    O     O_R   0.572150 0.003330 0.937250 -0.587565
O9    O     O_R   0.062750 0.427850 0.996670 -0.593413
O10   O     O_R   0.937250 0.572150 0.003330 -0.585541
O11   O     O_R   0.996670 0.062750 0.427850 -0.586488
O12   O     O_R   0.003330 0.937250 0.572150 -0.604279
O13   O     O_R   0.996560 0.512880 0.063050 -0.629069
O14   O     O_R   0.003440 0.487120 0.936950 -0.630312
O15   O     O_R   0.512880 0.063050 0.996560 -0.608938
O16   O     O_R   0.487120 0.936950 0.003440 -0.593394
O17   O     O_R   0.063050 0.996560 0.512880 -0.607451
O18   O     O_R   0.936950 0.003440 0.487120 -0.600117
O19   O     O_R   0.487120 0.003440 0.936950 -0.611040
O20   O     O_R   0.512880 0.996560 0.063050 -0.595947
O21   O     O_R   0.936950 0.487120 0.003440 -0.573397
O22   O     O_R   0.063050 0.512880 0.996560 -0.572667
O23   O     O_R   0.003440 0.936950 0.487120 -0.612534
O24   O     O_R   0.996560 0.063050 0.512880 -0.608352
O25   O     O_R   0.488820 0.572080 0.003280 -0.586768
O26   O     O_R   0.511180 0.427920 0.996720 -0.592811
O27   O     O_R   0.572080 0.003280 0.488820 -0.597932
O28   O     O_R   0.427920 0.996720 0.511180 -0.598923
O29   O     O_R   0.003280 0.488820 0.572080 -0.567015
O30   O     O_R   0.996720 0.511180 0.427920 -0.583695
O31   O     O_R   0.427920 0.511180 0.996720 -0.589212
O32   O     O_R   0.572080 0.488820 0.003280 -0.589401
O33   O     O_R   0.996720 0.427920 0.511180 -0.626576
O34   O     O_R   0.003280 0.572080 0.488820 -0.617004
O35   O     O_R   0.511180 0.996720 0.427920 -0.586298
O36   O     O_R   0.488820 0.003280 0.572080 -0.585570
O37   O     O_R   0.427880 0.513270 0.062460 -0.606733
O38   O     O_R   0.572120 0.486730 0.937540 -0.607657
O39   O     O_R   0.513270 0.062460 0.427880 -0.608653
O40   O     O_R   0.486730 0.937540 0.572120 -0.611471
O41   O     O_R   0.062460 0.427880 0.513270 -0.567634
O42   O     O_R   0.937540 0.572120 0.486730 -0.573040
O43   O     O_R   0.486730 0.572120 0.937540 -0.610259
O44   O     O_R   0.513270 0.427880 0.062460 -0.605190
O45   O     O_R   0.937540 0.486730 0.572120 -0.626569
O46   O     O_R   0.062460 0.513270 0.427880 -0.610954
O47   O     O_R   0.572120 0.937540 0.486730 -0.597358
O48   O     O_R   0.427880 0.062460 0.513270 -0.596629
Zn1   Zn    Zn3+2 0.044470 0.500000 0.955530 1.092717
Zn2   Zn    Zn3+2 0.955530 0.500000 0.044470 1.100650
Zn3   Zn    Zn3+2 0.500000 0.955530 0.044470 1.115806
Zn4   Zn    Zn3+2 0.500000 0.044470 0.955530 1.086654
Zn5   Zn    Zn3+2 0.955530 0.044470 0.500000 1.100763
Zn6   Zn    Zn3+2 0.044470 0.955530 0.500000 1.070455
Zn7   Zn    Zn3+2 0.500090 0.500090 0.045140 1.093958
Zn8   Zn    Zn3+2 0.499910 0.499910 0.954860 1.084242
Zn9   Zn    Zn3+2 0.500090 0.045140 0.500090 1.095015
Zn10  Zn    Zn3+2 0.499910 0.954860 0.499910 1.091422
Zn11  Zn    Zn3+2 0.045140 0.500090 0.500090 1.109031
Zn12  Zn    Zn3+2 0.954860 0.499910 0.499910 1.088069
O49   O     O_3   0.740784 0.924861 0.818370 -0.533901
C211  C     C_3   0.744311 0.881230 0.817143 -0.155269
H43   H     H_    0.707453 0.876929 0.833750 0.172117
H44   H     H_    0.770011 0.848063 0.836065 0.131320
H45   H     H_    0.759471 0.883421 0.777966 0.207453
O50   O     O_3   0.237972 0.031990 0.107094 -0.551391
C212  C     C_3   0.222837 0.048676 0.066817 -0.201354
H46   H     H_    0.200860 0.088801 0.057343 0.133138
H47   H     H_    0.254999 0.040935 0.033752 0.170432
H48   H     H_    0.198744 0.028436 0.077443 0.198634
O51   O     O_3   0.926768 0.818238 0.741264 -0.569490
C213  C     C_3   0.974062 0.785872 0.744795 -0.178686
H49   H     H_    0.972737 0.747700 0.765875 0.186872
H50   H     H_    0.985582 0.794646 0.765021 0.164237
H51   H     H_    0.002376 0.786291 0.707655 0.200436
O52   O     O_3   0.026698 0.123826 0.237841 -0.569687
C214  C     C_3   0.034006 0.088951 0.220202 -0.186201
H52   H     H_    0.010581 0.107081 0.196848 0.198693
H53   H     H_    0.073084 0.075764 0.196718 0.146366
H54   H     H_    0.022634 0.057024 0.251166 0.175975
O53   O     O_3   0.822427 0.739972 0.916012 -0.537773
C215  C     C_3   0.827188 0.741851 0.870331 -0.206101
H55   H     H_    0.846355 0.704584 0.866375 0.181182
H56   H     H_    0.846901 0.767736 0.838643 0.158157
H57   H     H_    0.789659 0.755710 0.868736 0.191154
O54   O     O_3   0.182697 0.259385 0.068738 -0.524555
C216  C     C_3   0.209832 0.258413 0.019789 -0.065672
H58   H     H_    0.204176 0.296171 0.991954 0.174141
H59   H     H_    0.200348 0.235805 0.011965 0.111431
H60   H     H_    0.249800 0.241316 0.015046 0.225516
O55   O     O_3   0.024020 0.238966 0.133164 -0.563947
C217  C     C_3   0.993308 0.244076 0.180221 -0.085249
H61   H     H_    0.966290 0.282074 0.177490 0.178074
H62   H     H_    0.015281 0.234025 0.202564 0.148885
H63   H     H_    0.971766 0.218614 0.200453 0.223677
O56   O     O_3   0.970558 0.762181 0.885022 -0.560289
C218  C     C_3   0.958598 0.778620 0.922821 -0.213595
H64   H     H_    0.967937 0.747066 0.955524 0.177334
H65   H     H_    0.918906 0.801529 0.934160 0.149351
H66   H     H_    0.980796 0.802191 0.908414 0.186084
O57   O     O_3   0.181985 0.072483 0.258840 -0.576231
C219  C     C_3   0.213630 0.024975 0.255481 -0.165241
H67   H     H_    0.213533 0.996831 0.292616 0.207601
H68   H     H_    0.203895 0.013487 0.236018 0.160078
H69   H     H_    0.251911 0.025872 0.233740 0.185322
O58   O     O_3   0.879680 0.972445 0.762165 -0.533577
C220  C     C_3   0.915053 0.963402 0.780195 -0.213664
H70   H     H_    0.947757 0.973441 0.749432 0.180215
H71   H     H_    0.926948 0.924208 0.804028 0.131130
H72   H     H_    0.897939 0.986856 0.803301 0.198800
O59   O     O_3   0.261631 0.169163 0.098907 -0.544215
C221  C     C_3   0.258625 0.157208 0.147426 -0.093823
H73   H     H_    0.295652 0.136036 0.152018 0.164719
H74   H     H_    0.232708 0.136231 0.175390 0.170039
H75   H     H_    0.244033 0.192085 0.154705 0.208978
O60   O     O_3   0.762014 0.878567 0.972456 -0.534910
C222  C     C_3   0.779339 0.914424 0.963503 -0.198737
H76   H     H_    0.748232 0.946840 0.973854 0.177833
H77   H     H_    0.802864 0.926713 0.924224 0.134004
H78   H     H_    0.802544 0.897621 0.986780 0.197478
Cl1   Cl    Cl    0.795579 0.443653 0.963017 -0.545832
Cl2   Cl    Cl    0.197843 0.568937 0.033076 -0.546705
Cl3   Cl    Cl    0.434608 0.966361 0.800324 -0.567495
Cl4   Cl    Cl    0.568123 0.032943 0.198278 -0.499182
Cl5   Cl    Cl    0.970851 0.808337 0.415642 -0.582956
Cl6   Cl    Cl    0.029341 0.193347 0.581599 -0.574626
Cl7   Cl    Cl    0.547854 0.205708 0.040306 -0.613263
Cl8   Cl    Cl    0.431250 0.801466 0.967384 -0.501818
Cl9   Cl    Cl    0.037264 0.554848 0.204407 -0.550527
Cl10  Cl    Cl    0.964612 0.439483 0.799447 -0.513933
Cl11  Cl    Cl    0.207456 0.047359 0.535670 -0.560333
Cl12  Cl    Cl    0.792363 0.952585 0.465143 -0.560983
Cl13  Cl    Cl    0.927693 0.569337 0.628264 -0.527989
Cl14  Cl    Cl    0.112271 0.424988 0.374882 -0.516983
Cl15  Cl    Cl    0.562045 0.627494 0.949185 -0.415746
Cl16  Cl    Cl    0.437122 0.372358 0.137254 -0.433444
Cl17  Cl    Cl    0.626791 0.859764 0.561313 -0.438271
Cl18  Cl    Cl    0.372331 0.141419 0.440333 -0.422044
Cl19  Cl    Cl    0.435362 0.060068 0.371214 -0.418729
Cl20  Cl    Cl    0.564277 0.945348 0.627022 -0.426473
Cl21  Cl    Cl    0.371966 0.437349 0.053496 -0.421815
Cl22  Cl    Cl    0.628884 0.563172 0.864346 -0.442072
Cl23  Cl    Cl    0.066923 0.348132 0.612313 -0.503739
Cl24  Cl    Cl    0.923318 0.652050 0.393320 -0.513734
Cl25  Cl    Cl    0.878867 0.546550 0.744101 -0.472513
Cl26  Cl    Cl    0.159433 0.446441 0.258737 -0.477581
Cl27  Cl    Cl    0.544450 0.741722 0.895880 -0.397689
Cl28  Cl    Cl    0.456070 0.257558 0.181407 -0.437111
Cl29  Cl    Cl    0.741560 0.813428 0.543243 -0.446132
Cl30  Cl    Cl    0.257568 0.187431 0.458869 -0.435398
Cl31  Cl    Cl    0.455914 0.112403 0.256340 -0.383618
Cl32  Cl    Cl    0.545920 0.893057 0.741816 -0.475061
Cl33  Cl    Cl    0.257651 0.455784 0.106945 -0.375642
Cl34  Cl    Cl    0.744043 0.542070 0.820480 -0.421538
Cl35  Cl    Cl    0.109084 0.231493 0.640613 -0.485496
Cl36  Cl    Cl    0.884134 0.768382 0.363398 -0.485533
O61   O     O_3   0.842225 0.533917 0.884052 -0.554531
C223  C     C_3   0.855564 0.575884 0.847402 -0.103630
H79   H     H_    0.893398 0.565768 0.820334 0.171746
H80   H     H_    0.852328 0.599400 0.864453 0.145692
H81   H     H_    0.829330 0.598395 0.826438 0.241229
O62   O     O_3   0.155244 0.466588 0.117106 -0.542464
C224  C     C_3   0.135472 0.433864 0.163166 -0.095323
H82   H     H_    0.120583 0.413123 0.159004 0.139280
H83   H     H_    0.106431 0.453625 0.189995 0.176759
H84   H     H_    0.165594 0.406444 0.178857 0.245595
O63   O     O_3   0.361461 0.950604 0.924413 -0.577843
C225  C     C_3   0.335806 0.001876 0.914661 -0.199137
H85   H     H_    0.359417 0.024408 0.883413 0.177963
H86   H     H_    0.319901 0.011394 0.948578 0.155101
H87   H     H_    0.304450 0.011717 0.903852 0.201874
O64   O     O_3   0.465655 0.116163 0.156455 -0.556040
C226  C     C_3   0.431170 0.161198 0.137878 -0.095296
H88   H     H_    0.410053 0.155587 0.124608 0.159539
H89   H     H_    0.449386 0.188975 0.107918 0.186492
H90   H     H_    0.404235 0.176569 0.168325 0.237008
O65   O     O_3   0.899495 0.965162 0.371887 -0.595517
C227  C     C_3   0.879102 0.017229 0.357698 -0.180509
H91   H     H_    0.908834 0.033778 0.337534 0.183042
H92   H     H_    0.851240 0.030262 0.389710 0.191775
H93   H     H_    0.859774 0.030614 0.331745 0.195253
O66   O     O_3   0.098534 0.036187 0.628876 -0.586126
C228  C     C_3   0.119805 0.984171 0.642980 -0.212197
H94   H     H_    0.148375 0.971322 0.611020 0.187282
H95   H     H_    0.090664 0.966941 0.662657 0.152432
H96   H     H_    0.138480 0.971327 0.669331 0.199282
O67   O     O_3   0.634479 0.083814 0.045614 -0.586140
C229  C     C_3   0.655524 0.100125 0.993532 -0.211796
H97   H     H_    0.628268 0.131676 0.975284 0.185470
H98   H     H_    0.672810 0.069024 0.979377 0.155688
H99   H     H_    0.685356 0.113318 0.983205 0.199450
O68   O     O_3   0.532387 0.848522 0.877679 -0.558595
C230  C     C_3   0.576519 0.859678 0.845986 -0.055492
H100  H     H_    0.599709 0.848419 0.867515 0.140061
H101  H     H_    0.569429 0.899434 0.822569 0.173861
H102  H     H_    0.598062 0.837756 0.820685 0.237481
O69   O     O_3   0.042778 0.635110 0.084195 -0.574754
C231  C     C_3   0.055739 0.669085 0.036183 -0.224140
H103  H     H_    0.035620 0.675018 0.014004 0.174427
H104  H     H_    0.096402 0.657155 0.016594 0.193050
H105  H     H_    0.044852 0.705210 0.039373 0.196393
O70   O     O_3   0.955104 0.365685 0.917345 -0.575182
C232  C     C_3   0.935543 0.334210 0.964636 -0.223645
H106  H     H_    0.894376 0.347757 0.977470 0.179227
H107  H     H_    0.948727 0.329751 0.992111 0.191721
H108  H     H_    0.948579 0.297129 0.962377 0.201303
O71   O     O_3   0.099895 0.168464 0.472871 -0.584932
C233  C     C_3   0.061979 0.205657 0.453035 -0.198263
H109  H     H_    0.024431 0.208559 0.481461 0.180825
H110  H     H_    0.064840 0.199546 0.421507 0.171293
H111  H     H_    0.066966 0.241758 0.438298 0.196866
O72   O     O_3   0.902314 0.830392 0.525799 -0.592507
C234  C     C_3   0.940500 0.793621 0.545419 -0.180214
H112  H     H_    0.937293 0.799647 0.577168 0.195703
H113  H     H_    0.977940 0.791387 0.516902 0.178649
H114  H     H_    0.936216 0.757234 0.559838 0.196799
Cl37  Cl    Cl    0.632228 0.968842 0.852251 -0.532930
Cl38  Cl    Cl    0.344330 0.976952 0.067306 -0.551029
Cl39  Cl    Cl    0.962057 0.855449 0.631636 -0.590668
Cl40  Cl    Cl    0.970397 0.086782 0.343520 -0.600570
Cl41  Cl    Cl    0.855409 0.631359 0.962075 -0.538723
Cl42  Cl    Cl    0.145071 0.368752 0.036019 -0.544492
Cl43  Cl    Cl    0.972412 0.343624 0.081385 -0.580336
Cl44  Cl    Cl    0.026365 0.656153 0.923091 -0.566966
Cl45  Cl    Cl    0.144929 0.036630 0.368431 -0.526651
Cl46  Cl    Cl    0.917821 0.028199 0.656311 -0.514821
Cl47  Cl    Cl    0.370255 0.137524 0.051291 -0.573349
Cl48  Cl    Cl    0.656309 0.915988 0.028514 -0.507395

loop_
_geom_bond_atom_site_label_1
_geom_bond_atom_site_label_2
_ccdc_geom_bond_type
O12   Zn6   S    
C126  C127  A    
C86   O32   A    
O63   C225  S    
C17   Cl23  S    
C179  H23   S    
C13   C25   A    
C89   O39   A    
C90   O36   A    
C45   C57   A    
O31   Zn8   S    
O2    Zn2   S    
C15   Cl21  S    
O3    Zn3   S    
O62   C224  S    
C18   C210  A    
C150  C167  A    
C147  C164  A    
C94   N2    A    
C57   H33   S    
C125  Cl47  S    
C41   C149  S    
C28   C40   A    
C79   O25   A    
O37   Zn7   S    
C13   Cl19  S    
C105  C123  A    
O16   Zn3   S    
C164  Cl2   S    
C89   C205  S    
O27   Zn9   S    
C155  C167  A    
O50   C212  S    
C79   C201  S    
O28   Zn10  S    
C182  C194  A    
C97   C115  A    
C182  H26   S    
C222  H77   S    
C161  H5    S    
C180  H24   S    
C88   C210  S    
C101  O53   S    
C50   O68   S    
C113  O17   A    
C149  C168  A    
C191  C203  A    
O18   Zn5   S    
C184  H28   S    
C198  H18   S    
C176  C188  A    
O20   Zn3   S    
C145  C166  A    
C66   H42   S    
O43   Zn8   S    
C213  H49   S    
C114  O18   A    
C168  Cl6   S    
C211  H45   S    
O38   Zn8   S    
C215  H55   S    
O39   Zn9   S    
C53   O71   S    
C214  H53   S    
C101  C137  A    
C26   C38   A    
C228  H96   S    
C44   O62   S    
C4    O7    A    
C72   C113  S    
C99   O51   S    
C111  O20   A    
C178  H22   S    
C233  H110  S    
C15   C27   A    
C218  H64   S    
C37   C181  A    
C93   N3    A    
C192  C204  A    
C14   C26   A    
C216  H60   S    
C58   H34   S    
C10   C202  A    
C107  C125  A    
C213  H50   S    
C64   H40   S    
C166  Cl4   S    
C7    C19   A    
C14   C206  A    
O44   Zn7   S    
O7    Zn3   S    
O34   Zn11  S    
C103  C121  A    
C109  O22   A    
C1    O1    A    
C227  H91   S    
C110  O21   A    
C152  C171  A    
C150  C161  A    
C56   H32   S    
C229  H98   S    
C88   O34   A    
C112  O16   A    
C1    C131  S    
C222  H76   S    
C12   Cl18  S    
C83   O45   A    
C92   N6    A    
O42   Zn12  S    
C223  H79   S    
C53   C78   A    
C36   C144  S    
C108  C133  A    
C109  O13   A    
C220  H70   S    
C110  O14   A    
C9    C21   A    
O46   Zn11  S    
C11   C23   A    
O67   C229  S    
O35   Zn10  S    
C228  H95   S    
C47   C59   A    
O36   Zn9   S    
C179  C191  A    
C139  C157  A    
C4    O4    A    
C233  H109  S    
C106  C124  A    
O57   C219  S    
C5    O5    A    
C60   C72   A    
C29   Cl35  S    
C149  C162  A    
C185  C197  A    
C143  C161  A    
C189  H9    S    
C43   C73   A    
O55   C217  S    
C215  H57   S    
O5    Zn5   S    
C6    C130  S    
O24   Zn5   S    
C163  Cl1   S    
C221  H73   S    
C81   O47   A    
C226  H89   S    
C162  H6    S    
C232  H106  S    
C104  C137  A    
C5    O12   A    
C24   C36   A    
O47   Zn10  S    
C51   O69   S    
C107  C134  A    
C186  C198  A    
C234  H113  S    
C96   C138  S    
C26   Cl32  S    
C104  C122  A    
C188  C200  A    
C97   O49   S    
O58   C220  S    
C212  H47   S    
O60   C222  S    
C38   C146  S    
C140  C158  A    
C84   O46   A    
C141  C159  A    
C231  H103  S    
C18   Cl24  S    
C153  C170  A    
O32   Zn7   S    
C119  C131  A    
C174  Cl12  S    
C53   C65   A    
C191  H11   S    
C229  H99   S    
C227  H93   S    
C113  O24   A    
C54   C77   A    
C90   O40   A    
C170  Cl8   S    
C3    O8    A    
C46   C58   A    
C217  H61   S    
O4    Zn4   S    
C219  H67   S    
C35   C179  A    
C22   C34   A    
C95   C137  S    
C193  C205  A    
C195  H15   S    
C33   C177  A    
C223  H81   S    
C96   N4    A    
C220  H72   S    
O40   Zn10  S    
C28   Cl34  S    
O52   C214  S    
C190  C202  A    
C91   N1    A    
C33   C141  S    
C56   C68   A    
C214  H52   S    
C211  H44   S    
C196  C208  A    
C99   C117  A    
C75   C153  S    
C67   C110  S    
C62   H38   S    
C226  H88   S    
C160  H4    S    
C103  O55   S    
C155  C174  A    
C43   C55   A    
C16   Cl22  S    
C146  C165  A    
C157  H1    S    
C224  H84   S    
C123  C130  A    
C61   H37   S    
C8    C200  A    
C49   O67   S    
C121  C132  A    
C122  C131  A    
C83   O29   A    
C85   C207  S    
C20   C32   A    
C232  H108  S    
C100  O52   S    
C63   C68   A    
C47   O65   S    
C153  C165  A    
C92   C134  S    
C93   C135  S    
C190  H10   S    
C6    O6    A    
C54   C66   A    
C188  H8    S    
C140  C171  A    
C65   C72   A    
C12   C24   A    
C38   C182  A    
C108  C126  A    
C192  H12   S    
C77   C155  S    
C115  Cl37  S    
C185  H29   S    
C231  H105  S    
C76   C154  S    
C124  Cl46  S    
O33   Zn12  S    
C148  C157  A    
C12   C204  A    
C84   O30   A    
C198  C210  A    
O9    Zn1   S    
C175  C187  A    
C230  H100  S    
C108  O60   S    
C81   O27   A    
O54   C216  S    
C96   N6    A    
O56   C218  S    
C40   C184  A    
C147  C158  A    
C31   C139  S    
C219  H69   S    
C15   C207  A    
C100  C136  A    
C92   N2    A    
C61   C70   A    
C7    Cl13  S    
C159  H3    S    
C17   C29   A    
C36   C180  A    
C51   C74   A    
C19   C31   A    
O6    Zn6   S    
O45   Zn12  S    
C119  Cl41  S    
C80   O44   A    
C10   C22   A    
C104  O56   S    
C224  H82   S    
C106  O58   S    
O48   Zn9   S    
C154  C169  A    
C215  H56   S    
C32   C140  S    
C17   C209  A    
C2    C132  S    
C178  C190  A    
C69   C112  S    
C93   N1    A    
C222  H78   S    
C225  H85   S    
C85   O37   A    
C86   O38   A    
O66   C228  S    
C30   Cl36  S    
C23   Cl29  S    
C90   C206  S    
C80   C202  S    
C213  H51   S    
C87   O33   A    
O23   Zn6   S    
C88   O42   A    
C97   C133  A    
C216  H59   S    
C181  C193  A    
C29   C41   A    
C82   O48   A    
O22   Zn1   S    
C5    C129  S    
O69   C231  S    
C6    O11   A    
C87   C209  S    
C105  O57   S    
C102  O54   S    
C227  H92   S    
C158  H2    S    
C156  C173  A    
C49   C61   A    
C40   C148  S    
C51   C63   A    
C52   C64   A    
C103  C138  A    
C86   C208  S    
C4    C128  S    
C10   Cl16  S    
C217  H63   S    
C184  C196  A    
C71   C114  S    
C187  C199  A    
C223  H80   S    
C234  H112  S    
C22   Cl28  S    
C91   N5    A    
C118  Cl40  S    
C44   C56   A    
C114  O23   A    
C173  Cl11  S    
O53   C215  S    
C171  Cl9   S    
C99   C135  A    
C139  C172  A    
C59   H35   S    
C11   C203  A    
C169  Cl7   S    
C9    C201  A    
C142  C169  A    
C186  H30   S    
C63   H39   S    
C80   O26   A    
C165  Cl3   S    
O25   Zn7   S    
C13   C205  A    
C34   C178  A    
C123  Cl45  S    
C102  C120  A    
O41   Zn11  S    
C34   C142  S    
O1    Zn1   S    
C55   H31   S    
C58   C70   A    
C214  H54   S    
C221  H74   S    
C46   O64   S    
O26   Zn8   S    
C233  H111  S    
C85   O31   A    
C183  C195  A    
C120  Cl42  S    
C50   C75   A    
C89   O35   A    
O21   Zn2   S    
C1    O10   A    
C2    O9    A    
C141  C170  A    
C107  O59   S    
C124  C129  A    
C30   C42   A    
C68   C109  S    
C212  H46   S    
C82   O28   A    
C23   C35   A    
C221  H75   S    
C70   C111  S    
O30   Zn12  S    
O49   C211  S    
C193  H13   S    
C195  C207  A    
O70   C232  S    
C62   C69   A    
C231  H104  S    
C48   O66   S    
C156  C168  A    
C154  C166  A    
C143  C174  A    
O15   Zn4   S    
C39   C183  A    
C35   C143  S    
C230  H101  S    
O17   Zn6   S    
C16   C28   A    
C2    O2    A    
C60   H36   S    
C229  H97   S    
O51   C213  S    
O29   Zn11  S    
O14   Zn1   S    
C78   C156  S    
C46   C76   A    
C81   C203  S    
C31   C175  A    
C84   C200  S    
C32   C176  A    
C8    C20   A    
C118  C130  A    
C217  H62   S    
C220  H71   S    
O19   Zn4   S    
C3    C127  S    
C172  Cl10  S    
C219  H68   S    
C115  C127  A    
C102  C138  A    
C48   C78   A    
C54   O72   S    
O64   C226  S    
C3    O3    A    
C112  O19   A    
C117  Cl39  S    
C126  Cl48  S    
C66   C71   A    
C27   C39   A    
C45   O63   S    
C144  C173  A    
C125  C128  A    
C94   C136  S    
C18   C30   A    
C21   C33   A    
C79   O43   A    
C175  H19   S    
C25   C37   A    
C42   C186  A    
C111  O15   A    
O68   C230  S    
C98   O50   S    
C224  H83   S    
C73   C151  S    
C7    C199  A    
C74   C152  S    
O8    Zn4   S    
O10   Zn2   S    
C48   C60   A    
C226  H90   S    
C232  H107  S    
C194  C206  A    
C196  H16   S    
C177  C189  A    
C101  C119  A    
C64   C67   A    
C52   C73   A    
C180  C192  A    
C234  H114  S    
C145  C160  A    
C52   O70   S    
C146  C159  A    
C189  C201  A    
C151  C172  A    
C212  H48   S    
C44   C74   A    
C14   Cl20  S    
C94   N4    A    
C8    Cl14  S    
C181  H25   S    
C98   C116  A    
O61   C223  S    
C91   C133  S    
C176  H20   S    
O71   C233  S    
C49   C76   A    
C41   C185  A    
O13   Zn2   S    
C152  C164  A    
C105  C136  A    
C197  H17   S    
C106  C135  A    
C151  C163  A    
C65   H41   S    
C37   C145  S    
C50   C62   A    
C167  Cl5   S    
C47   C77   A    
C83   C199  S    
C95   N3    A    
C117  C129  A    
C194  H14   S    
O59   C221  S    
C187  H7    S    
C95   N5    A    
C11   Cl17  S    
C24   Cl30  S    
C144  C162  A    
C120  C132  A    
C148  C163  A    
C9    Cl15  S    
C142  C160  A    
C16   C208  A    
C177  H21   S    
C55   C67   A    
C20   Cl26  S    
C21   Cl27  S    
C116  Cl38  S    
C98   C134  A    
C43   O61   S    
C45   C75   A    
C121  Cl43  S    
C87   O41   A    
C211  H43   S    
C230  H102  S    
C183  H27   S    
C82   C204  S    
C228  H94   S    
C225  H86   S    
C218  H65   S    
C27   Cl33  S    
C42   C150  S    
O72   C234  S    
C197  C209  A    
C25   Cl31  S    
O65   C227  S    
C218  H66   S    
C100  C118  A    
C116  C128  A    
C39   C147  S    
C57   C69   A    
C216  H58   S    
C19   Cl25  S    
C59   C71   A    
O11   Zn5   S    
C225  H87   S    
C122  Cl44  S    
