data_mof_unit_13350.cif
_audit_creation_date              2012-12-11T17:28:27-0500
_audit_creation_method            fapswitch 2.2
_symmetry_space_group_name_H-M    P1
_symmetry_Int_Tables_number       1
_space_group_crystal_system       triclinic
_cell_length_a                    24.292286
_cell_length_b                    24.390297
_cell_length_c                    25.524051
_cell_angle_alpha                 89.828374
_cell_angle_beta                  90.093914
_cell_angle_gamma                 89.980193
_cell_volume                      15122.8108261

loop_
_atom_site_label
_atom_site_type_symbol
_atom_type_description
_atom_site_fract_x
_atom_site_fract_y
_atom_site_fract_z
_atom_type_partial_charge
C1    C     C_R   0.627281 0.436442 0.408622 -0.062962
C2    C     C_R   0.362017 0.571772 0.574565 -0.038584
C3    C     C_R   0.424917 0.362155 0.427159 -0.135876
C4    C     C_R   0.561377 0.627369 0.591264 -0.084281
C5    C     C_R   0.361953 0.572931 0.425724 -0.111629
C6    C     C_R   0.627512 0.435392 0.591413 -0.083938
C7    C     C_R   0.560831 0.627640 0.408841 -0.088800
C8    C     C_R   0.426334 0.361978 0.573389 -0.063566
C9    C     C_R   0.627862 0.564064 0.590914 -0.070377
C10   C     C_R   0.361609 0.428200 0.426293 -0.046031
C11   C     C_R   0.425661 0.637581 0.573778 -0.120286
C12   C     C_R   0.560405 0.373539 0.407771 -0.095596
C13   C     C_R   0.361966 0.427059 0.574085 -0.117685
C14   C     C_R   0.627929 0.565005 0.409182 -0.083217
C15   C     C_R   0.560550 0.372653 0.591473 -0.088776
C16   C     C_R   0.426343 0.637967 0.426407 -0.065224
C17   C     C_R   0.127322 0.936396 0.908667 -0.063243
C18   C     C_R   0.862027 0.071757 0.074596 -0.037890
C19   C     C_R   0.924967 0.862257 0.926889 -0.132837
C20   C     C_R   0.061480 0.127441 0.091200 -0.084180
C21   C     C_R   0.861876 0.072930 0.925943 -0.133448
C22   C     C_R   0.127487 0.935425 0.091443 -0.083863
C23   C     C_R   0.060778 0.127588 0.908787 -0.089232
C24   C     C_R   0.926322 0.861972 0.073367 -0.063897
C25   C     C_R   0.127970 0.064141 0.090798 -0.070562
C26   C     C_R   0.861712 0.928361 0.926063 -0.064828
C27   C     C_R   0.925669 0.137573 0.073807 -0.119780
C28   C     C_R   0.060461 0.873479 0.907832 -0.095663
C29   C     C_R   0.861953 0.927055 0.074050 -0.116696
C30   C     C_R   0.127886 0.064967 0.909134 -0.083353
C31   C     C_R   0.060561 0.872650 0.091483 -0.088736
C32   C     C_R   0.926258 0.137944 0.926391 -0.066256
C33   C     C_R   0.253502 0.257671 0.636898 0.071774
C34   C     C_R   0.654390 0.682566 0.237556 0.075825
C35   C     C_R   0.247257 0.735778 0.636005 0.079367
C36   C     C_R   0.670321 0.331495 0.237559 0.093932
C37   C     C_R   0.667285 0.670989 0.762845 0.093013
C38   C     C_R   0.244288 0.266202 0.365148 0.075301
C39   C     C_R   0.653909 0.318790 0.763525 0.077128
C40   C     C_R   0.253862 0.743464 0.363713 0.071272
C41   C     C_R   0.753317 0.757945 0.137004 0.071888
C42   C     C_R   0.154458 0.182314 0.737396 0.075837
C43   C     C_R   0.747163 0.235651 0.136043 0.079410
C44   C     C_R   0.170500 0.831551 0.737625 0.093713
C45   C     C_R   0.168011 0.170374 0.262827 0.093209
C46   C     C_R   0.743564 0.767547 0.864527 0.077671
C47   C     C_R   0.154171 0.819017 0.263635 0.077313
C48   C     C_R   0.753498 0.242910 0.863385 0.070593
C49   C     C_1   0.211175 0.228437 0.663082 0.003669
C50   C     C_1   0.681312 0.706404 0.193734 -0.004033
C51   C     C_1   0.214959 0.775553 0.662268 -0.003391
C52   C     C_1   0.691867 0.304047 0.193122 -0.005613
C53   C     C_1   0.687971 0.699402 0.807177 -0.004493
C54   C     C_1   0.211742 0.226805 0.338486 0.001044
C55   C     C_1   0.681242 0.295310 0.807398 -0.004177
C56   C     C_1   0.211483 0.773190 0.337911 0.003396
C57   C     C_1   0.710983 0.728747 0.163205 0.003748
C58   C     C_1   0.181468 0.206109 0.693595 -0.004031
C59   C     C_1   0.714790 0.275416 0.162250 -0.003519
C60   C     C_1   0.192068 0.804162 0.693173 -0.005526
C61   C     C_1   0.188906 0.198252 0.307397 -0.004536
C62   C     C_1   0.710783 0.728225 0.838043 0.001027
C63   C     C_1   0.181567 0.795628 0.307534 -0.004228
C64   C     C_1   0.711139 0.272750 0.837700 0.004930
C65   C     C_R   0.332378 0.331992 0.602854 -0.187991
C66   C     C_R   0.626935 0.635091 0.333608 -0.191583
C67   C     C_R   0.329256 0.663732 0.604326 -0.186785
C68   C     C_R   0.628083 0.369888 0.332052 -0.188900
C69   C     C_R   0.628252 0.630827 0.667629 -0.185736
C70   C     C_R   0.327615 0.336792 0.397053 -0.170789
C71   C     C_R   0.625903 0.365889 0.667404 -0.191320
C72   C     C_R   0.332361 0.668076 0.396893 -0.193159
C73   C     C_R   0.832339 0.832017 0.102808 -0.188968
C74   C     C_R   0.126831 0.134974 0.833476 -0.191511
C75   C     C_R   0.829266 0.163694 0.104400 -0.187213
C76   C     C_R   0.128189 0.869774 0.832150 -0.188966
C77   C     C_R   0.128607 0.130965 0.167434 -0.185630
C78   C     C_R   0.827747 0.837214 0.896215 -0.170680
C79   C     C_R   0.125907 0.865958 0.167487 -0.191077
C80   C     C_R   0.832132 0.167794 0.896799 -0.190859
C81   C     C_R   0.606546 0.391742 0.381304 0.183603
C82   C     C_R   0.372152 0.625251 0.588725 0.176735
C83   C     C_R   0.371181 0.374615 0.412580 0.182250
C84   C     C_R   0.607659 0.609320 0.617754 0.176872
C85   C     C_R   0.372806 0.626697 0.411837 0.204056
C86   C     C_R   0.606894 0.389765 0.617879 0.180249
C87   C     C_R   0.607505 0.610831 0.382804 0.177512
C88   C     C_R   0.372810 0.373253 0.587833 0.201370
C89   C     C_R   0.106621 0.891655 0.881381 0.183421
C90   C     C_R   0.872167 0.125228 0.088777 0.176521
C91   C     C_R   0.871320 0.874864 0.912074 0.186719
C92   C     C_R   0.107856 0.109453 0.117606 0.176767
C93   C     C_R   0.872680 0.126613 0.911917 0.212273
C94   C     C_R   0.106883 0.889795 0.117925 0.179947
C95   C     C_R   0.107430 0.110763 0.882719 0.177266
C96   C     C_R   0.872789 0.873247 0.087781 0.201381
C97   C     C_R   0.242916 0.289037 0.592285 -0.372753
C98   C     C_R   0.652007 0.625821 0.242084 -0.348905
C99   C     C_R   0.280338 0.749797 0.593429 -0.374239
C100  C     C_R   0.614327 0.342322 0.241531 -0.370135
C101  C     C_R   0.704085 0.659155 0.722569 -0.349917
C102  C     C_R   0.250887 0.316618 0.340243 -0.351001
C103  C     C_R   0.644204 0.285384 0.720319 -0.341143
C104  C     C_R   0.303974 0.739593 0.337485 -0.348932
C105  C     C_R   0.243507 0.712051 0.408311 -0.372148
C106  C     C_R   0.649336 0.375462 0.759383 -0.353833
C107  C     C_R   0.277088 0.251692 0.407933 -0.372206
C108  C     C_R   0.611026 0.663157 0.756153 -0.363694
C109  C     C_R   0.705311 0.339391 0.280196 -0.350632
C110  C     C_R   0.252785 0.685164 0.660840 -0.356601
C111  C     C_R   0.643234 0.715897 0.280463 -0.342183
C112  C     C_R   0.304042 0.260901 0.662609 -0.348898
C113  C     C_R   0.742756 0.789286 0.092371 -0.373163
C114  C     C_R   0.152152 0.125577 0.742019 -0.349202
C115  C     C_R   0.780148 0.249632 0.093383 -0.374187
C116  C     C_R   0.114477 0.842184 0.741632 -0.370192
C117  C     C_R   0.204664 0.158759 0.222373 -0.350932
C118  C     C_R   0.750942 0.817677 0.839230 -0.356872
C119  C     C_R   0.144302 0.785536 0.220517 -0.341768
C120  C     C_R   0.803522 0.238872 0.837028 -0.349709
C121  C     C_R   0.743229 0.211688 0.908113 -0.370837
C122  C     C_R   0.149640 0.875676 0.259391 -0.353611
C123  C     C_R   0.776070 0.752903 0.907478 -0.372059
C124  C     C_R   0.111696 0.162863 0.256161 -0.364024
C125  C     C_R   0.205485 0.839513 0.780253 -0.350647
C126  C     C_R   0.752854 0.185114 0.160992 -0.356115
C127  C     C_R   0.143104 0.215708 0.780209 -0.342115
C128  C     C_R   0.803890 0.761079 0.162668 -0.348760
C129  C     C_R   0.282198 0.327409 0.575179 0.565816
C130  C     C_R   0.639680 0.601209 0.290527 0.528523
C131  C     C_R   0.322158 0.713722 0.577098 0.569213
C132  C     C_R   0.592174 0.360056 0.289317 0.510792
C133  C     C_R   0.685314 0.637293 0.675148 0.508190
C134  C     C_R   0.291525 0.352933 0.356716 0.479536
C135  C     C_R   0.628719 0.308353 0.672223 0.512314
C136  C     C_R   0.344352 0.702924 0.354551 0.495343
C137  C     C_R   0.282572 0.673146 0.424970 0.565454
C138  C     C_R   0.636467 0.399947 0.710899 0.527095
C139  C     C_R   0.319934 0.286798 0.424054 0.571759
C140  C     C_R   0.590723 0.644103 0.708050 0.510685
C141  C     C_R   0.685041 0.360418 0.327342 0.509783
C142  C     C_R   0.294429 0.649079 0.645996 0.483462
C143  C     C_R   0.628005 0.692705 0.328523 0.512954
C144  C     C_R   0.344604 0.297015 0.645083 0.493566
C145  C     C_R   0.782145 0.827484 0.075145 0.566065
C146  C     C_R   0.139736 0.101033 0.790477 0.528345
C147  C     C_R   0.822018 0.213599 0.077069 0.569299
C148  C     C_R   0.092287 0.859798 0.789437 0.511199
C149  C     C_R   0.185707 0.137273 0.174852 0.508220
C150  C     C_R   0.792181 0.853402 0.855455 0.476334
C151  C     C_R   0.128665 0.808422 0.172408 0.512643
C152  C     C_R   0.843969 0.202350 0.854214 0.491821
C153  C     C_R   0.782322 0.172862 0.924848 0.570703
C154  C     C_R   0.136659 0.900081 0.210898 0.526976
C155  C     C_R   0.819332 0.787523 0.923483 0.571431
C156  C     C_R   0.091219 0.144174 0.207989 0.510854
C157  C     C_R   0.185174 0.860465 0.827418 0.509802
C158  C     C_R   0.794553 0.149082 0.146166 0.483245
C159  C     C_R   0.127787 0.192585 0.828276 0.512941
C160  C     C_R   0.844518 0.797081 0.145076 0.493754
H1    H     H_    0.664922 0.457833 0.400139 0.090606
H2    H     H_    0.322236 0.551900 0.572916 0.108660
H3    H     H_    0.443116 0.321731 0.428878 0.103286
H4    H     H_    0.536559 0.662875 0.599905 0.089519
H5    H     H_    0.322170 0.553106 0.426334 0.085729
H6    H     H_    0.665719 0.455829 0.599962 0.086904
H7    H     H_    0.534432 0.661719 0.399010 0.096065
H8    H     H_    0.444626 0.321649 0.570599 0.081138
H9    H     H_    0.665410 0.542500 0.599466 0.096851
H10   H     H_    0.321937 0.448125 0.428769 0.075176
H11   H     H_    0.443995 0.677927 0.572173 0.091553
H12   H     H_    0.535137 0.338498 0.398668 0.090753
H13   H     H_    0.322203 0.446943 0.573445 0.096631
H14   H     H_    0.666327 0.544708 0.401108 0.089234
H15   H     H_    0.534164 0.338598 0.601308 0.094560
H16   H     H_    0.444637 0.678292 0.429150 0.080255
H17   H     H_    0.164972 0.957778 0.900201 0.090862
H18   H     H_    0.822246 0.051883 0.072963 0.108386
H19   H     H_    0.943103 0.821801 0.928518 0.101682
H20   H     H_    0.036682 0.162962 0.099841 0.089668
H21   H     H_    0.822068 0.053210 0.926959 0.102325
H22   H     H_    0.165667 0.955900 0.100016 0.087094
H23   H     H_    0.034342 0.161629 0.898931 0.096285
H24   H     H_    0.944618 0.821644 0.070583 0.081037
H25   H     H_    0.165545 0.042591 0.099278 0.096602
H26   H     H_    0.822121 0.948385 0.928541 0.084408
H27   H     H_    0.943995 0.177924 0.072209 0.091463
H28   H     H_    0.035229 0.838403 0.898776 0.090926
H29   H     H_    0.822188 0.946935 0.073389 0.096312
H30   H     H_    0.166271 0.044658 0.901040 0.089479
H31   H     H_    0.034211 0.838551 0.101290 0.095415
H32   H     H_    0.944533 0.178285 0.929027 0.079461
H33   H     H_    0.203993 0.284735 0.571976 0.148036
H34   H     H_    0.662100 0.601111 0.208369 0.147080
H35   H     H_    0.273941 0.788681 0.573782 0.146717
H36   H     H_    0.588103 0.336797 0.207599 0.152600
H37   H     H_    0.747377 0.668395 0.727646 0.148672
H38   H     H_    0.226296 0.326678 0.306054 0.153495
H39   H     H_    0.651204 0.241604 0.723342 0.148629
H40   H     H_    0.310555 0.763258 0.302065 0.150523
H41   H     H_    0.204883 0.716709 0.428947 0.148706
H42   H     H_    0.658004 0.400251 0.793446 0.148441
H43   H     H_    0.270098 0.212883 0.427492 0.146190
H44   H     H_    0.583012 0.672664 0.787815 0.149767
H45   H     H_    0.748251 0.327941 0.277015 0.146778
H46   H     H_    0.225898 0.674733 0.693205 0.145476
H47   H     H_    0.648878 0.759847 0.277244 0.148061
H48   H     H_    0.310871 0.237195 0.697989 0.150527
H49   H     H_    0.703797 0.785058 0.072124 0.147720
H50   H     H_    0.162381 0.100827 0.708370 0.147155
H51   H     H_    0.773631 0.288449 0.073650 0.146689
H52   H     H_    0.088242 0.836568 0.707719 0.152801
H53   H     H_    0.247997 0.167822 0.227426 0.148468
H54   H     H_    0.726733 0.827699 0.804779 0.153355
H55   H     H_    0.151283 0.741764 0.223629 0.148324
H56   H     H_    0.810017 0.262355 0.801484 0.150945
H57   H     H_    0.704669 0.216458 0.928841 0.148745
H58   H     H_    0.158456 0.900515 0.293383 0.148538
H59   H     H_    0.768554 0.714318 0.927267 0.146190
H60   H     H_    0.083776 0.172246 0.287933 0.150042
H61   H     H_    0.248452 0.828172 0.777047 0.146770
H62   H     H_    0.726050 0.174705 0.193424 0.145439
H63   H     H_    0.148664 0.259662 0.776919 0.148041
H64   H     H_    0.810699 0.737384 0.198059 0.150517
N1    N     N_R   0.592620 0.447430 0.448130 -0.056927
N2    N     N_R   0.407380 0.552570 0.551870 -0.060353
N3    N     N_R   0.447430 0.407380 0.448130 -0.047466
N4    N     N_R   0.552570 0.592620 0.551870 -0.054259
N5    N     N_R   0.407380 0.552570 0.448130 -0.052095
N6    N     N_R   0.592620 0.447430 0.551870 -0.054796
N7    N     N_R   0.552570 0.592620 0.448130 -0.056223
N8    N     N_R   0.447430 0.407380 0.551870 -0.055883
N9    N     N_R   0.592620 0.552570 0.551870 -0.056742
N10   N     N_R   0.407380 0.447430 0.448130 -0.055267
N11   N     N_R   0.447430 0.592620 0.551870 -0.046893
N12   N     N_R   0.552570 0.407380 0.448130 -0.053375
N13   N     N_R   0.407380 0.447430 0.551870 -0.052830
N14   N     N_R   0.592620 0.552570 0.448130 -0.055262
N15   N     N_R   0.552570 0.407380 0.551870 -0.055788
N16   N     N_R   0.447430 0.592620 0.448130 -0.056004
N17   N     N_R   0.092620 0.947430 0.948130 -0.056956
N18   N     N_R   0.907380 0.052570 0.051870 -0.059916
N19   N     N_R   0.947430 0.907380 0.948130 -0.046914
N20   N     N_R   0.052570 0.092620 0.051870 -0.054241
N21   N     N_R   0.907380 0.052570 0.948130 -0.051529
N22   N     N_R   0.092620 0.947430 0.051870 -0.054801
N23   N     N_R   0.052570 0.092620 0.948130 -0.056260
N24   N     N_R   0.947430 0.907380 0.051870 -0.055831
N25   N     N_R   0.092620 0.052570 0.051870 -0.056672
N26   N     N_R   0.907380 0.947430 0.948130 -0.054288
N27   N     N_R   0.947430 0.092620 0.051870 -0.046816
N28   N     N_R   0.052570 0.907380 0.948130 -0.053508
N29   N     N_R   0.907380 0.947430 0.051870 -0.052429
N30   N     N_R   0.092620 0.052570 0.948130 -0.055316
N31   N     N_R   0.052570 0.907380 0.051870 -0.055866
N32   N     N_R   0.947430 0.092620 0.948130 -0.055106
Ni1   Ni    Ni4+2 0.591800 0.500000 0.500000 0.222022
Ni2   Ni    Ni4+2 0.408200 0.500000 0.500000 0.221009
Ni3   Ni    Ni4+2 0.500000 0.408200 0.500000 0.221940
Ni4   Ni    Ni4+2 0.500000 0.591800 0.500000 0.222008
Ni5   Ni    Ni4+2 0.091800 0.000000 0.000000 0.221813
Ni6   Ni    Ni4+2 0.908200 0.000000 0.000000 0.220384
Ni7   Ni    Ni4+2 0.000000 0.908200 0.000000 0.221968
Ni8   Ni    Ni4+2 0.000000 0.091800 0.000000 0.222067
O1    O     O_3   0.275599 0.356211 0.528560 -0.641938
C161  C     C_3   0.225785 0.386345 0.527141 0.152450
H65   H     H_    0.236488 0.430308 0.521872 0.107693
H66   H     H_    0.200601 0.383743 0.563603 0.083963
C162  C     C_3   0.191715 0.368016 0.479944 -0.249248
H67   H     H_    0.216845 0.372205 0.443873 0.194768
H68   H     H_    0.180182 0.324194 0.484552 0.198002
C163  C     C_3   0.139670 0.402470 0.473848 -1.040625
H69   H     H_    0.113304 0.398311 0.509151 0.274156
H70   H     H_    0.116091 0.388194 0.439172 0.274425
H71   H     H_    0.150481 0.446327 0.468008 0.263333
O2    O     O_3   0.635483 0.544592 0.295647 -0.649666
C164  C     C_3   0.683313 0.517624 0.277034 0.173167
H72   H     H_    0.696947 0.488353 0.307811 0.094844
H73   H     H_    0.719119 0.545410 0.270022 0.083721
C165  C     C_3   0.669513 0.484933 0.227595 -0.248491
H74   H     H_    0.641525 0.450900 0.238200 0.215943
H75   H     H_    0.647474 0.510953 0.198686 0.197643
C166  C     C_3   0.721257 0.461966 0.201899 -1.028411
H76   H     H_    0.747762 0.495973 0.187670 0.266800
H77   H     H_    0.709530 0.436023 0.167996 0.278193
H78   H     H_    0.744974 0.436596 0.230134 0.265813
O3    O     O_3   0.351654 0.722246 0.531140 -0.640807
C167  C     C_3   0.374563 0.775473 0.527708 0.150387
H79   H     H_    0.419629 0.770755 0.521836 0.110697
H80   H     H_    0.369588 0.800924 0.563636 0.078602
C168  C     C_3   0.350567 0.804966 0.479877 -0.241778
H81   H     H_    0.358683 0.780204 0.444247 0.194772
H82   H     H_    0.305288 0.809232 0.484355 0.198741
C169  C     C_3   0.376039 0.861621 0.472637 -1.039771
H83   H     H_    0.367714 0.887577 0.507424 0.272942
H84   H     H_    0.357825 0.881701 0.437562 0.273817
H85   H     H_    0.421220 0.858099 0.466847 0.264983
O4    O     O_3   0.537104 0.374666 0.292556 -0.642421
C170  C     C_3   0.503385 0.327888 0.285821 0.157769
H86   H     H_    0.508758 0.299290 0.319487 0.088041
H87   H     H_    0.512857 0.305441 0.249051 0.093645
C171  C     C_3   0.443268 0.346060 0.282754 -0.199556
H88   H     H_    0.433111 0.371798 0.317175 0.219982
H89   H     H_    0.437131 0.371310 0.246890 0.202075
C172  C     C_3   0.404436 0.296894 0.281023 -1.031482
H90   H     H_    0.415090 0.269618 0.247772 0.264959
H91   H     H_    0.361492 0.311336 0.275563 0.292607
H92   H     H_    0.406976 0.273329 0.318272 0.256641
O5    O     O_3   0.720832 0.629297 0.633203 -0.659459
C173  C     C_3   0.766743 0.596337 0.647027 0.167853
H93   H     H_    0.767208 0.560347 0.620448 0.110280
H94   H     H_    0.765637 0.579440 0.687677 0.071692
C174  C     C_3   0.819820 0.628922 0.638710 -0.246281
H95   H     H_    0.822483 0.642058 0.597050 0.208141
H96   H     H_    0.819390 0.666236 0.663544 0.193507
C175  C     C_3   0.870459 0.594712 0.652439 -1.030989
H97   H     H_    0.869249 0.582177 0.694302 0.268568
H98   H     H_    0.908214 0.619379 0.645709 0.273504
H99   H     H_    0.872291 0.557547 0.627449 0.268963
O6    O     O_3   0.301129 0.401144 0.329207 -0.657104
C176  C     C_3   0.254972 0.436666 0.331554 0.177666
H100  H     H_    0.268045 0.474894 0.351603 0.110424
H101  H     H_    0.219173 0.420226 0.354098 0.083353
C177  C     C_3   0.236519 0.451287 0.275958 -0.252952
H102  H     H_    0.271633 0.469576 0.254182 0.212911
H103  H     H_    0.223358 0.413509 0.255210 0.190692
C178  C     C_3   0.188842 0.492054 0.276457 -1.023948
H104  H     H_    0.152858 0.474206 0.297194 0.268738
H105  H     H_    0.176513 0.501913 0.235590 0.274959
H106  H     H_    0.201415 0.530588 0.296251 0.266766
O7    O     O_3   0.623680 0.275991 0.627757 -0.655567
C179  C     C_3   0.584126 0.233858 0.634605 0.172263
H107  H     H_    0.551486 0.239714 0.604561 0.105852
H108  H     H_    0.563066 0.234083 0.673385 0.076833
C180  C     C_3   0.611219 0.178097 0.625600 -0.250641
H109  H     H_    0.630074 0.177390 0.585951 0.210452
H110  H     H_    0.644330 0.171498 0.655021 0.193270
C181  C     C_3   0.569429 0.131585 0.629821 -1.032212
H111  H     H_    0.551521 0.130175 0.669794 0.271474
H112  H     H_    0.590158 0.091864 0.622039 0.275450
H113  H     H_    0.535869 0.137286 0.600682 0.266265
O8    O     O_3   0.392467 0.694952 0.326198 -0.654365
C182  C     C_3   0.421844 0.744570 0.318832 0.181431
H114  H     H_    0.463861 0.738550 0.334967 0.098987
H115  H     H_    0.404244 0.780654 0.339832 0.084229
C183  C     C_3   0.426539 0.756824 0.260159 -0.251631
H116  H     H_    0.448847 0.722736 0.240652 0.209478
H117  H     H_    0.384806 0.759701 0.242558 0.194559
C184  C     C_3   0.457124 0.810413 0.249956 -1.036180
H118  H     H_    0.435936 0.845072 0.269601 0.270871
H119  H     H_    0.458239 0.818698 0.207173 0.275942
H120  H     H_    0.500063 0.807534 0.264506 0.264517
O9    O     O_3   0.276125 0.644144 0.471471 -0.638271
C185  C     C_3   0.226057 0.614470 0.472875 0.143996
H121  H     H_    0.236356 0.570354 0.477777 0.105477
H122  H     H_    0.200635 0.617595 0.436511 0.081558
C186  C     C_3   0.192508 0.632758 0.520333 -0.237881
H123  H     H_    0.217343 0.626722 0.556489 0.212306
H124  H     H_    0.182539 0.677071 0.516710 0.195576
C187  C     C_3   0.139209 0.600091 0.525181 -1.024209
H125  H     H_    0.113114 0.606354 0.489887 0.268680
H126  H     H_    0.116051 0.614141 0.560128 0.275346
H127  H     H_    0.148373 0.555697 0.529761 0.265923
O10   O     O_3   0.629331 0.456317 0.705927 -0.650362
C188  C     C_3   0.674267 0.485872 0.727260 0.176913
H128  H     H_    0.687252 0.516642 0.697693 0.095037
H129  H     H_    0.711542 0.460312 0.735190 0.083360
C189  C     C_3   0.655989 0.516471 0.776603 -0.251879
H130  H     H_    0.628226 0.550526 0.765166 0.213280
H131  H     H_    0.632280 0.488955 0.802881 0.200010
C190  C     C_3   0.705169 0.539165 0.806824 -1.027592
H132  H     H_    0.730441 0.504975 0.822724 0.266518
H133  H     H_    0.690397 0.564576 0.839976 0.277840
H134  H     H_    0.731261 0.564924 0.780999 0.267315
O11   O     O_3   0.350243 0.277282 0.469454 -0.643498
C191  C     C_3   0.371548 0.223359 0.472473 0.151235
H135  H     H_    0.416785 0.226663 0.478152 0.111387
H136  H     H_    0.365543 0.198348 0.436390 0.080525
C192  C     C_3   0.347105 0.194296 0.520259 -0.244046
H137  H     H_    0.356564 0.218405 0.556024 0.194703
H138  H     H_    0.301647 0.191719 0.516163 0.199150
C193  C     C_3   0.370595 0.136681 0.526787 -1.038255
H139  H     H_    0.360840 0.111378 0.491871 0.272752
H140  H     H_    0.352152 0.116953 0.561871 0.273722
H141  H     H_    0.415952 0.138489 0.532158 0.265327
O12   O     O_3   0.535131 0.632568 0.701893 -0.650149
C194  C     C_3   0.502234 0.679988 0.709233 0.185510
H142  H     H_    0.479321 0.687820 0.672278 0.107112
H143  H     H_    0.525785 0.718235 0.717918 0.076814
C195  C     C_3   0.460423 0.669273 0.752743 -0.254869
H144  H     H_    0.436320 0.631969 0.743074 0.212359
H145  H     H_    0.482323 0.661929 0.790351 0.193182
C196  C     C_3   0.421079 0.717595 0.759180 -1.062326
H146  H     H_    0.444280 0.755283 0.769543 0.277083
H147  H     H_    0.391351 0.708534 0.791051 0.271823
H148  H     H_    0.397737 0.724803 0.722313 0.264178
O13   O     O_3   0.718430 0.364896 0.371431 -0.659435
C197  C     C_3   0.766854 0.395550 0.361304 0.172197
H149  H     H_    0.768241 0.429951 0.389711 0.111258
H150  H     H_    0.768556 0.414715 0.321615 0.071878
C198  C     C_3   0.817450 0.359293 0.370223 -0.250256
H151  H     H_    0.817680 0.344358 0.411413 0.207888
H152  H     H_    0.815698 0.323076 0.344006 0.193559
C199  C     C_3   0.870627 0.390671 0.359635 -1.027376
H153  H     H_    0.871818 0.404888 0.318260 0.268301
H154  H     H_    0.906469 0.363365 0.366754 0.274176
H155  H     H_    0.873825 0.426627 0.386076 0.268203
O14   O     O_3   0.300272 0.598027 0.669648 -0.663910
C200  C     C_3   0.306809 0.603206 0.724443 0.173404
H156  H     H_    0.265723 0.606009 0.743390 0.110234
H157  H     H_    0.331729 0.639935 0.735067 0.107136
C201  C     C_3   0.336239 0.552229 0.745274 -0.249423
H158  H     H_    0.311293 0.515248 0.736171 0.208031
H159  H     H_    0.376793 0.548051 0.725559 0.207888
C202  C     C_3   0.345158 0.555490 0.804381 -1.024298
H160  H     H_    0.370756 0.591728 0.814354 0.268873
H161  H     H_    0.366719 0.517973 0.818176 0.278801
H162  H     H_    0.304999 0.558521 0.824920 0.269482
O15   O     O_3   0.621719 0.725103 0.372824 -0.655938
C203  C     C_3   0.581534 0.766566 0.365299 0.172042
H163  H     H_    0.548660 0.760297 0.394926 0.105310
H164  H     H_    0.560945 0.765848 0.326249 0.076575
C204  C     C_3   0.607516 0.822808 0.374480 -0.251256
H165  H     H_    0.625997 0.823945 0.414335 0.210498
H166  H     H_    0.640757 0.829924 0.345412 0.192742
C205  C     C_3   0.564887 0.868547 0.369689 -1.031631
H167  H     H_    0.547192 0.869439 0.329559 0.271993
H168  H     H_    0.584815 0.908671 0.377475 0.275378
H169  H     H_    0.531258 0.862381 0.398563 0.266156
O16   O     O_3   0.393226 0.304378 0.672943 -0.655618
C206  C     C_3   0.422222 0.254419 0.679787 0.181410
H170  H     H_    0.463992 0.259952 0.663022 0.098568
H171  H     H_    0.403787 0.218562 0.659043 0.084349
C207  C     C_3   0.427948 0.242024 0.738362 -0.252495
H172  H     H_    0.451049 0.275805 0.757567 0.208797
H173  H     H_    0.386536 0.239633 0.756576 0.194637
C208  C     C_3   0.458096 0.188047 0.748032 -1.036167
H174  H     H_    0.435987 0.153658 0.728832 0.270728
H175  H     H_    0.460169 0.179782 0.790790 0.275736
H176  H     H_    0.500689 0.190350 0.732638 0.264553
O17   O     O_3   0.775655 0.856113 0.028415 -0.640746
C209  C     C_3   0.725960 0.886427 0.026872 0.152407
H177  H     H_    0.736848 0.930232 0.020779 0.108896
H178  H     H_    0.701121 0.884621 0.063592 0.083133
C210  C     C_3   0.691349 0.867411 0.980272 -0.249944
H179  H     H_    0.716362 0.870057 0.943999 0.196679
H180  H     H_    0.678994 0.823966 0.986032 0.196490
C211  C     C_3   0.639945 0.902677 0.973484 -1.038170
H181  H     H_    0.613756 0.900159 0.009044 0.273625
H182  H     H_    0.615841 0.887779 0.939382 0.274444
H183  H     H_    0.651577 0.946112 0.966312 0.263678
O18   O     O_3   0.135614 0.044418 0.795690 -0.649996
C212  C     C_3   0.183465 0.017467 0.777104 0.173046
H184  H     H_    0.197093 0.988209 0.807892 0.094790
H185  H     H_    0.219264 0.045269 0.770120 0.083863
C213  C     C_3   0.169708 0.984760 0.727664 -0.248626
H186  H     H_    0.141812 0.950657 0.738282 0.215689
H187  H     H_    0.147574 0.010726 0.698778 0.197715
C214  C     C_3   0.221488 0.961930 0.701922 -1.028348
H188  H     H_    0.247890 0.996008 0.687676 0.266746
H189  H     H_    0.209798 0.935963 0.668024 0.278184
H190  H     H_    0.245298 0.936617 0.730134 0.265779
O19   O     O_3   0.851421 0.222060 0.031046 -0.640942
C215  C     C_3   0.874202 0.275329 0.027440 0.150531
H191  H     H_    0.919269 0.270695 0.021517 0.110794
H192  H     H_    0.869224 0.300873 0.063308 0.078708
C216  C     C_3   0.850064 0.304627 0.979565 -0.242229
H193  H     H_    0.858200 0.279792 0.943986 0.194655
H194  H     H_    0.804779 0.308785 0.984088 0.198710
C217  C     C_3   0.875372 0.361331 0.972155 -1.039389
H195  H     H_    0.867021 0.387360 0.006886 0.272921
H196  H     H_    0.857059 0.381267 0.937051 0.273764
H197  H     H_    0.920556 0.357914 0.966321 0.264969
O20   O     O_3   0.037137 0.874092 0.792715 -0.642705
C218  C     C_3   0.003700 0.827094 0.786073 0.156525
H198  H     H_    0.009070 0.798724 0.819912 0.088392
H199  H     H_    0.013463 0.804456 0.749477 0.093729
C219  C     C_3   0.943498 0.844910 0.782638 -0.199691
H200  H     H_    0.933043 0.870869 0.816823 0.219668
H201  H     H_    0.937379 0.869837 0.746565 0.202433
C220  C     C_3   0.904962 0.795504 0.781118 -1.028901
H202  H     H_    0.915944 0.768003 0.748134 0.264747
H203  H     H_    0.861961 0.809641 0.775349 0.293250
H204  H     H_    0.907451 0.772277 0.818562 0.255885
O21   O     O_3   0.221086 0.129428 0.132771 -0.659576
C221  C     C_3   0.267025 0.096382 0.146316 0.168314
H205  H     H_    0.267424 0.060557 0.119534 0.110320
H206  H     H_    0.266005 0.079230 0.186870 0.071635
C222  C     C_3   0.320089 0.129007 0.138064 -0.246949
H207  H     H_    0.322663 0.142381 0.096467 0.208088
H208  H     H_    0.319722 0.166179 0.163092 0.193207
C223  C     C_3   0.370752 0.094712 0.151512 -1.030847
H209  H     H_    0.369632 0.081938 0.193313 0.268542
H210  H     H_    0.408497 0.119410 0.144835 0.273465
H211  H     H_    0.372521 0.057690 0.126325 0.268958
O22   O     O_3   0.802609 0.901206 0.827660 -0.656441
C224  C     C_3   0.757807 0.937830 0.832806 0.177472
H212  H     H_    0.741963 0.938882 0.873823 0.085713
H213  H     H_    0.723786 0.925649 0.806049 0.106347
C225  C     C_3   0.777113 0.995447 0.817813 -0.234365
H214  H     H_    0.815121 0.005578 0.840004 0.203995
H215  H     H_    0.787089 0.996613 0.775341 0.205170
C226  C     C_3   0.733324 0.038531 0.829661 -1.055442
H216  H     H_    0.695252 0.030044 0.806942 0.276129
H217  H     H_    0.748932 0.079788 0.818686 0.278913
H218  H     H_    0.723521 0.038571 0.872147 0.254436
O23   O     O_3   0.123433 0.776002 0.127992 -0.655831
C227  C     C_3   0.084290 0.733546 0.135162 0.172449
H219  H     H_    0.051529 0.738931 0.105157 0.105752
H220  H     H_    0.063287 0.733851 0.173969 0.077224
C228  C     C_3   0.111883 0.677976 0.126394 -0.251741
H221  H     H_    0.130359 0.677099 0.086588 0.210169
H222  H     H_    0.145353 0.671981 0.155560 0.193608
C229  C     C_3   0.070647 0.631061 0.131390 -1.030802
H223  H     H_    0.053228 0.629778 0.171562 0.271727
H224  H     H_    0.091712 0.591497 0.123684 0.275136
H225  H     H_    0.036695 0.636174 0.102568 0.266305
O24   O     O_3   0.892021 0.194245 0.825804 -0.654706
C230  C     C_3   0.921396 0.243828 0.818221 0.181983
H226  H     H_    0.963431 0.237868 0.834333 0.098900
H227  H     H_    0.903821 0.280003 0.839098 0.084363
C231  C     C_3   0.926020 0.255840 0.759500 -0.251957
H228  H     H_    0.948280 0.221659 0.740091 0.209328
H229  H     H_    0.884264 0.258673 0.741940 0.194561
C232  C     C_3   0.956625 0.309369 0.749063 -1.036071
H230  H     H_    0.935478 0.344122 0.768597 0.270837
H231  H     H_    0.957698 0.317476 0.706249 0.275948
H232  H     H_    0.999579 0.306528 0.763583 0.264493
O25   O     O_3   0.775890 0.144024 0.971438 -0.637728
C233  C     C_3   0.725906 0.114205 0.972853 0.140828
H233  H     H_    0.736314 0.070041 0.977074 0.106359
H234  H     H_    0.700080 0.117864 0.936801 0.088604
C234  C     C_3   0.692757 0.131765 0.020799 -0.239135
H235  H     H_    0.717954 0.125375 0.056673 0.212574
H236  H     H_    0.682600 0.176083 0.017732 0.196242
C235  C     C_3   0.639628 0.098836 0.025722 -1.023375
H237  H     H_    0.613187 0.105428 0.990715 0.269142
H238  H     H_    0.616740 0.112365 0.061016 0.275280
H239  H     H_    0.649001 0.054425 0.029724 0.266041
O26   O     O_3   0.129655 0.956458 0.205849 -0.650380
C236  C     C_3   0.174769 0.985915 0.226966 0.176913
H240  H     H_    0.187652 0.016670 0.197346 0.094867
H241  H     H_    0.212036 0.960271 0.234684 0.083499
C237  C     C_3   0.156844 0.016532 0.276417 -0.251990
H242  H     H_    0.129223 0.050742 0.265117 0.213125
H243  H     H_    0.133063 0.989130 0.302742 0.200027
C238  C     C_3   0.206261 0.038905 0.306508 -1.027213
H244  H     H_    0.231388 0.004549 0.322288 0.266454
H245  H     H_    0.191755 0.064355 0.339739 0.277805
H246  H     H_    0.232414 0.064545 0.280628 0.267308
O27   O     O_3   0.849387 0.777833 0.968992 -0.642398
C239  C     C_3   0.870406 0.723793 0.971979 0.151557
H247  H     H_    0.915682 0.726838 0.977507 0.111061
H248  H     H_    0.864100 0.698769 0.935947 0.080466
C240  C     C_3   0.845952 0.694899 0.019851 -0.243382
H249  H     H_    0.855757 0.718918 0.055586 0.194611
H250  H     H_    0.800458 0.692673 0.015924 0.199240
C241  C     C_3   0.869018 0.637102 0.026264 -1.038690
H251  H     H_    0.858894 0.611883 0.991388 0.272774
H252  H     H_    0.850591 0.617511 0.061426 0.273776
H253  H     H_    0.914413 0.638555 0.031435 0.265413
O28   O     O_3   0.035581 0.132836 0.201906 -0.650185
C242  C     C_3   0.002867 0.180347 0.209425 0.185350
H254  H     H_    0.980038 0.188463 0.172476 0.107030
H255  H     H_    0.026554 0.218452 0.218341 0.077166
C243  C     C_3   0.960966 0.169560 0.252838 -0.254932
H256  H     H_    0.936785 0.132356 0.242997 0.212418
H257  H     H_    0.982801 0.162010 0.290444 0.193263
C244  C     C_3   0.921728 0.217948 0.259407 -1.061853
H258  H     H_    0.945007 0.255544 0.269914 0.277239
H259  H     H_    0.891951 0.208836 0.291223 0.271747
H260  H     H_    0.898433 0.225341 0.222547 0.264198
O29   O     O_3   0.218555 0.865003 0.871510 -0.659499
C245  C     C_3   0.266980 0.895652 0.861377 0.172115
H261  H     H_    0.268369 0.930056 0.889782 0.111254
H262  H     H_    0.268680 0.914815 0.821689 0.071872
C246  C     C_3   0.317574 0.859394 0.870301 -0.249953
H263  H     H_    0.317805 0.844468 0.911494 0.207842
H264  H     H_    0.315820 0.823171 0.844093 0.193551
C247  C     C_3   0.370752 0.890768 0.859707 -1.028166
H265  H     H_    0.371943 0.904976 0.818329 0.268213
H266  H     H_    0.406593 0.863463 0.866831 0.274146
H267  H     H_    0.373951 0.926730 0.886141 0.268292
O30   O     O_3   0.800552 0.098110 0.169936 -0.663825
C248  C     C_3   0.807289 0.103480 0.224692 0.173534
H268  H     H_    0.766273 0.106348 0.243768 0.110239
H269  H     H_    0.832247 0.140250 0.235113 0.106938
C249  C     C_3   0.836798 0.052578 0.245589 -0.249435
H270  H     H_    0.811842 0.015559 0.236652 0.208143
H271  H     H_    0.877298 0.048357 0.225783 0.207837
C250  C     C_3   0.845879 0.056020 0.304664 -1.024194
H272  H     H_    0.871472 0.092309 0.314478 0.268883
H273  H     H_    0.867511 0.018562 0.318505 0.278812
H274  H     H_    0.805775 0.059076 0.325296 0.269519
O31   O     O_3   0.121299 0.225078 0.872486 -0.655971
C251  C     C_3   0.081003 0.266397 0.864768 0.172048
H275  H     H_    0.048095 0.260137 0.894362 0.105230
H276  H     H_    0.060482 0.265479 0.825689 0.076544
C252  C     C_3   0.106793 0.322752 0.873809 -0.251321
H277  H     H_    0.125169 0.324098 0.913701 0.210354
H278  H     H_    0.140086 0.329859 0.844794 0.192716
C253  C     C_3   0.064035 0.368342 0.868757 -1.031728
H279  H     H_    0.046423 0.369008 0.828590 0.272029
H280  H     H_    0.083822 0.408560 0.876426 0.275338
H281  H     H_    0.030362 0.362196 0.897590 0.266163
O32   O     O_3   0.893181 0.804368 0.172892 -0.655543
C254  C     C_3   0.922067 0.754349 0.179769 0.181540
H282  H     H_    0.963849 0.759769 0.162992 0.098407
H283  H     H_    0.903543 0.718519 0.159053 0.084327
C255  C     C_3   0.927781 0.741991 0.238352 -0.253226
H284  H     H_    0.951053 0.775688 0.257506 0.208701
H285  H     H_    0.886376 0.739805 0.256603 0.194850
C256  C     C_3   0.957691 0.687887 0.248047 -1.035198
H286  H     H_    0.935361 0.653571 0.228961 0.270849
H287  H     H_    0.959837 0.679695 0.290815 0.275611
H288  H     H_    0.000249 0.689953 0.232542 0.264487

loop_
_geom_bond_atom_site_label_1
_geom_bond_atom_site_label_2
_ccdc_geom_bond_type
C230  C231  S    
C252  H277  S    
C124  H60   S    
C11   H11   S    
C186  H123  S    
C24   H24   S    
C104  H40   S    
C248  H268  S    
C9    H9    S    
C168  H81   S    
C41   C128  A    
C235  H239  S    
C214  H188  S    
C194  C195  S    
C128  H64   S    
C48   C120  A    
C208  H174  S    
C13   H13   S    
C20   C92   A    
C241  H253  S    
C256  H286  S    
C74   C159  A    
C46   C62   S    
N18   N27   A    
N15   Ni3   S    
C203  H163  S    
C24   C96   A    
C77   C156  A    
C157  O29   S    
C78   C155  A    
N22   N31   A    
C142  O14   S    
C15   N15   A    
C27   C90   A    
C233  H233  S    
C97   H33   S    
C27   N27   A    
C8    H8    S    
N28   Ni7   S    
C25   N25   A    
C239  C240  S    
N30   Ni5   S    
C177  H102  S    
C249  C250  S    
C29   N29   A    
C138  O10   S    
C191  C192  S    
C19   N19   A    
C17   N17   A    
C256  H287  S    
N19   N26   A    
N17   Ni5   S    
C42   C58   S    
C189  H130  S    
N21   N32   A    
C118  C150  A    
O9    C185  S    
C204  C205  S    
C235  H237  S    
C100  H36   S    
C163  H70   S    
C11   N11   A    
C76   C157  A    
C173  H94   S    
C34   C50   S    
C9    N9    A    
C242  H254  S    
C167  C168  S    
C80   C152  A    
C17   C89   A    
C251  H275  S    
C37   C108  A    
C12   H12   S    
C180  H110  S    
C65   C144  A    
O8    C182  S    
C244  H260  S    
C195  H145  S    
C66   C143  A    
C99   C131  A    
C175  H97   S    
C212  C213  S    
C211  H183  S    
C245  H261  S    
C218  H199  S    
C154  O26   S    
C73   C160  A    
C246  C247  S    
O28   C242  S    
C234  H236  S    
C27   H27   S    
C165  H74   S    
C117  H53   S    
C114  C146  A    
N22   Ni5   S    
C25   H25   S    
C216  H194  S    
N31   Ni7   S    
C186  C187  S    
C255  H285  S    
C162  H68   S    
C35   C51   S    
C16   C85   A    
C248  C249  S    
C29   H29   S    
O4    C170  S    
C68   C81   S    
C194  H142  S    
C19   H19   S    
O27   C239  S    
C2    N2    A    
C253  H281  S    
C178  H105  S    
C208  H176  S    
C17   H17   S    
N10   Ni2   S    
C241  H251  S    
C217  H195  S    
C50   C57   T    
C203  C204  S    
C41   C113  A    
O30   C248  S    
C47   C122  A    
N9    Ni1   S    
O11   C191  S    
C100  C132  A    
O24   C230  S    
C54   C61   T    
C101  C133  A    
C255  C256  S    
C196  H146  S    
C211  H181  S    
N1    Ni1   S    
C188  H128  S    
C237  H242  S    
O20   C218  S    
C21   C93   A    
C177  C178  S    
C23   C95   A    
C33   C97   A    
C203  H164  S    
C210  H179  S    
C244  H259  S    
C170  C171  S    
C215  H191  S    
C180  H109  S    
C76   C148  A    
C116  H52   S    
C176  H100  S    
C179  H108  S    
C252  C253  S    
N13   Ni2   S    
C70   C134  A    
C117  C149  A    
C8    C88   A    
C200  H156  S    
C33   C49   S    
C189  C190  S    
C184  H118  S    
C31   H31   S    
C43   C59   S    
C49   C58   T    
O15   C203  S    
C251  C252  S    
C2    H2    S    
C198  H151  S    
C253  H279  S    
C254  C255  S    
C80   C153  A    
C206  H171  S    
C147  O19   S    
C214  H189  S    
C46   C118  A    
C236  H240  S    
C132  O4    S    
C175  H99   S    
C201  H158  S    
C168  H82   S    
C235  H238  S    
C150  O22   S    
C215  C216  S    
C101  H37   S    
C174  H96   S    
C40   C104  A    
C152  O24   S    
C225  H214  S    
C221  C222  S    
C68   C132  A    
C45   C61   S    
C38   C107  A    
N26   Ni6   S    
C183  H117  S    
C42   C114  A    
C206  H170  S    
C213  H186  S    
C172  H91   S    
N8    Ni3   S    
C66   C87   S    
C245  H262  S    
C202  H161  S    
C28   C89   A    
C102  H38   S    
C36   C52   S    
C111  C143  A    
C76   C89   S    
C37   C53   S    
N5    Ni2   S    
C176  C177  S    
C239  H248  S    
C32   C93   A    
C228  C229  S    
C232  H230  S    
C166  H78   S    
C22   C94   A    
N6    N15   A    
C221  H205  S    
N19   Ni7   S    
C187  H125  S    
C191  H136  S    
C220  H202  S    
C11   C82   A    
C196  H148  S    
C171  H89   S    
C44   C125  A    
C202  H162  S    
N20   N25   A    
C237  C238  S    
C238  H246  S    
C179  H107  S    
C79   C94   S    
C188  C189  S    
C48   C121  A    
C22   N22   A    
N24   N29   A    
C247  H265  S    
C192  C193  S    
C40   C56   S    
C73   C145  A    
C224  H213  S    
C167  H80   S    
C210  C211  S    
C23   H23   S    
O21   C221  S    
C71   C86   S    
C240  H250  S    
C105  H41   S    
O31   C251  S    
N6    Ni1   S    
C190  H134  S    
O25   C233  S    
N18   Ni6   S    
C244  H258  S    
C200  C201  S    
C109  H45   S    
C222  H208  S    
C44   C116  A    
N4    N9    A    
C161  H66   S    
C255  H284  S    
C184  H120  S    
C181  H112  S    
C182  H115  S    
N8    N13   A    
C197  H150  S    
C234  C235  S    
C130  O2    S    
C228  H221  S    
C111  H47   S    
C198  C199  S    
C183  C184  S    
C45   C117  A    
C230  H227  S    
C185  C186  S    
C123  H59   S    
C243  H256  S    
C72   C137  A    
C25   C92   A    
C104  C136  A    
C245  C246  S    
N1    N12   A    
C121  H57   S    
C201  C202  S    
C179  C180  S    
O18   C212  S    
C194  H143  S    
C217  H197  S    
C250  H274  S    
C160  O32   S    
C226  H216  S    
N4    Ni4   S    
C125  H61   S    
C181  H113  S    
C6    C86   A    
C225  C226  S    
C31   N31   A    
C6    N6    A    
C229  H223  S    
C80   C93   S    
C113  H49   S    
C22   H22   S    
C69   C84   S    
O13   C197  S    
C37   C101  A    
C26   H26   S    
C18   N18   A    
C213  C214  S    
C12   C81   A    
C227  C228  S    
C233  H234  S    
C30   H30   S    
C23   N23   A    
C219  H200  S    
C240  C241  S    
C231  H228  S    
C105  C137  A    
N23   N30   A    
O2    C164  S    
C18   H18   S    
C215  H192  S    
C185  H121  S    
C232  H232  S    
C166  H76   S    
C247  H267  S    
C109  C141  A    
C51   C60   T    
C209  H177  S    
C162  H67   S    
C187  H127  S    
C155  O27   S    
C227  H219  S    
C243  C244  S    
C39   C106  A    
C6    H6    S    
C193  H139  S    
C169  H84   S    
C233  C234  S    
C238  H244  S    
C199  H155  S    
N2    Ni2   S    
C189  H131  S    
C207  H172  S    
C192  H137  S    
C204  H166  S    
C123  C155  A    
C128  C160  A    
C121  C153  A    
N7    N14   A    
C79   C151  A    
O26   C236  S    
C251  H276  S    
C236  C237  S    
C28   H28   S    
C47   C63   S    
C169  H83   S    
C125  C157  A    
C48   C64   S    
C205  H167  S    
C1    C81   A    
C190  H132  S    
C115  C147  A    
C10   C83   A    
C220  H204  S    
C223  H209  S    
C98   H34   S    
N14   Ni1   S    
C175  H98   S    
C113  C145  A    
C212  H185  S    
C163  H71   S    
C7    H7    S    
C26   N26   A    
C146  O18   S    
C124  C156  A    
C7    C87   A    
C254  H282  S    
C246  H264  S    
C193  H140  S    
C30   N30   A    
N20   Ni8   S    
C3    H3    S    
C39   C55   S    
C16   H16   S    
C69   C140  A    
C226  H217  S    
C1    H1    S    
C70   C139  A    
C186  H124  S    
C234  H235  S    
C248  H269  S    
C133  O5    S    
C72   C85   S    
C71   C138  A    
C208  H175  S    
C241  H252  S    
C10   N10   A    
C18   C90   A    
C230  H226  S    
C169  H85   S    
C134  O6    S    
C14   N14   A    
C193  H141  S    
C75   C147  A    
C26   C91   A    
C161  C162  S    
O19   C215  S    
C211  H182  S    
C158  O30   S    
C240  H249  S    
C28   N28   A    
C30   C95   A    
C29   C96   A    
O3    C167  S    
C38   C54   S    
C32   N32   A    
C151  O23   S    
C36   C100  A    
C33   C112  A    
N16   Ni4   S    
C221  H206  S    
C70   C83   S    
C35   C110  A    
C42   C127  A    
C15   C86   A    
C75   C158  A    
C256  H288  S    
C252  H278  S    
C46   C123  A    
C2    C82   A    
C77   C149  A    
C31   C94   A    
C3    N3    A    
C129  O1    S    
C202  H160  S    
C65   C88   S    
C116  C148  A    
C226  H218  S    
C1    N1    A    
C20   N20   A    
N3    N10   A    
C173  H93   S    
C250  H273  S    
C74   C146  A    
C199  H154  S    
C180  C181  S    
C13   N13   A    
C254  H283  S    
C177  H103  S    
C39   C103  A    
C195  H144  S    
C115  H51   S    
C10   H10   S    
N7    Ni4   S    
C136  O8    S    
C223  H211  S    
C135  O7    S    
C224  C225  S    
C201  H159  S    
O12   C194  S    
C41   C57   S    
C178  H104  S    
C14   H14   S    
O7    C179  S    
O6    C176  S    
C218  C219  S    
C114  H50   S    
C174  H95   S    
C44   C60   S    
C143  O15   S    
C34   C98   A    
C225  H215  S    
C4    N4    A    
O32   C254  S    
C19   C91   A    
C9    C84   A    
C97   C129  A    
C216  C217  S    
O14   C200  S    
C213  H187  S    
C172  H90   S    
C162  C163  S    
C137  O9    S    
C73   C96   S    
C67   C142  A    
C237  H243  S    
C173  C174  S    
N29   Ni6   S    
C131  O3    S    
C182  H114  S    
C228  H222  S    
C77   C92   S    
C119  H55   S    
C141  O13   S    
C166  H77   S    
C170  H86   S    
C195  C196  S    
C187  H126  S    
O17   C209  S    
C164  H73   S    
O23   C227  S    
C20   H20   S    
O5    C173  S    
O10   C188  S    
C21   H21   S    
C196  H147  S    
C171  C172  S    
C99   H35   S    
C238  H245  S    
C192  H138  S    
C165  H75   S    
C14   C87   A    
C188  H129  S    
C71   C135  A    
C217  H196  S    
C72   C136  A    
C110  C142  A    
C224  H212  S    
C210  H180  S    
C103  C135  A    
O16   C206  S    
C139  O11   S    
C43   C115  A    
C253  H280  S    
C204  H165  S    
C176  H101  S    
C4    C84   A    
C4    H4    S    
C5    H5    S    
C200  H157  S    
O1    C161  S    
N23   Ni8   S    
C127  H63   S    
N27   Ni8   S    
C38   C102  A    
N24   Ni7   S    
C149  O21   S    
C75   C90   S    
C47   C119  A    
C184  H119  S    
C107  C139  A    
C34   C111  A    
C122  C154  A    
C197  C198  S    
C98   C130  A    
C107  H43   S    
C212  H184  S    
N17   N28   A    
C35   C99   A    
N21   Ni6   S    
C43   C126  A    
C198  H152  S    
C206  C207  S    
C242  H255  S    
C126  C158  A    
C45   C124  A    
C119  C151  A    
C214  H190  S    
C243  H257  S    
C120  C152  A    
C168  C169  S    
C249  H270  S    
C112  H48   S    
C118  H54   S    
C144  O16   S    
C218  H198  S    
C108  C140  A    
N11   Ni4   S    
C174  C175  S    
C21   N21   A    
C219  C220  S    
C190  H133  S    
C148  O20   S    
N2    N11   A    
C249  H271  S    
C229  H224  S    
C102  C134  A    
C153  O25   S    
C52   C59   T    
C65   C129  A    
C106  H42   S    
C53   C62   T    
C216  H193  S    
C172  H92   S    
C55   C64   T    
C164  C165  S    
C56   C63   T    
C68   C141  A    
C110  H46   S    
C103  H39   S    
N5    N16   A    
C219  H201  S    
C170  H87   S    
C16   N16   A    
C231  H229  S    
C247  H266  S    
C239  H247  S    
C106  C138  A    
C181  H111  S    
C185  H122  S    
C165  C166  S    
C232  H231  S    
C5    N5    A    
C24   N24   A    
C229  H225  S    
C163  H69   S    
C209  H178  S    
C127  C159  A    
C191  H135  S    
C78   C150  A    
C227  H220  S    
C222  H207  S    
C199  H153  S    
C12   N12   A    
C171  H88   S    
N12   Ni3   S    
C69   C133  A    
C122  H58   S    
C74   C95   S    
C67   C131  A    
C231  C232  S    
C178  H106  S    
C207  H173  S    
C126  H62   S    
N3    Ni3   S    
C78   C91   S    
C120  H56   S    
C32   H32   S    
C15   H15   S    
C242  C243  S    
C167  H79   S    
C112  C144  A    
C209  C210  S    
N32   Ni8   S    
C140  O12   S    
C5    C85   A    
C108  H44   S    
C79   C154  A    
C3    C83   A    
C8    N8    A    
C183  H116  S    
C205  H168  S    
C7    N7    A    
C13   C88   A    
O22   C224  S    
C220  H203  S    
C223  H210  S    
O29   C245  S    
C222  C223  S    
C207  C208  S    
C161  H65   S    
C250  H272  S    
C236  H241  S    
C159  O31   S    
C67   C82   S    
C246  H263  S    
C182  C183  S    
C36   C109  A    
C197  H149  S    
N25   Ni5   S    
C164  H72   S    
C156  O28   S    
C145  O17   S    
C40   C105  A    
C66   C130  A    
C205  H169  S    
