data_mof_unit_8964.cif
_audit_creation_date              2012-12-10T18:03:17-0500
_audit_creation_method            fapswitch 2.2
_symmetry_space_group_name_H-M    P1
_symmetry_Int_Tables_number       1
_space_group_crystal_system       triclinic
_cell_length_a                    10.841923
_cell_length_b                    9.580713
_cell_length_c                    15.08642
_cell_angle_alpha                 90.000102
_cell_angle_beta                  91.496914
_cell_angle_gamma                 90.00012
_cell_volume                      1566.54223361

loop_
_atom_site_label
_atom_site_type_symbol
_atom_type_description
_atom_site_fract_x
_atom_site_fract_y
_atom_site_fract_z
_atom_type_partial_charge
C1    C     C_R   0.262263 0.500256 0.500765 0.778281
C2    C     C_R   0.737737 0.500256 0.499235 0.778281
C3    C     C_R   0.500151 0.499766 0.330124 0.839464
C4    C     C_R   0.499849 0.499766 0.669875 0.839464
C5    C     C_R   0.426887 0.075471 0.440710 0.394343
C6    C     C_R   0.565315 0.925674 0.563744 0.374223
C7    C     C_R   0.573113 0.075473 0.559290 0.394344
C8    C     C_R   0.434684 0.925673 0.436256 0.374227
C9    C     C_R   0.063663 0.375205 0.502357 -0.196457
C10   C     C_R   0.936059 0.628362 0.499763 -0.173204
C11   C     C_R   0.936336 0.375205 0.497652 -0.196451
C12   C     C_R   0.063941 0.628362 0.500228 -0.173201
C13   C     C_R   0.568578 0.595965 0.095050 0.464606
C14   C     C_R   0.570644 0.393939 0.904997 0.359401
C15   C     C_R   0.431418 0.595960 0.904951 0.464606
C16   C     C_R   0.429366 0.393932 0.095002 0.359401
C17   C     C_R   0.568544 0.596924 0.187853 -0.343626
C18   C     C_R   0.567757 0.396395 0.812754 -0.166701
C19   C     C_R   0.431452 0.596919 0.812147 -0.343626
C20   C     C_R   0.432251 0.396389 0.187245 -0.166702
C21   C     C_R   0.500045 0.498199 0.233635 -0.159485
C22   C     C_R   0.499957 0.498199 0.766365 -0.159480
C23   C     C_R   0.498851 0.494464 0.048579 -0.020021
C24   C     C_R   0.501153 0.494464 0.951421 -0.020021
C25   C     C_R   0.871671 0.501370 0.498507 -0.009958
C26   C     C_R   0.128329 0.501370 0.501493 -0.009959
Cu1   Cu    Cu3+1 0.500000 0.640660 0.500000 1.012758
Cu2   Cu    Cu3+1 0.500000 0.359340 0.500000 1.020035
H1    H     H_    0.623532 0.672944 0.224395 0.143447
H2    H     H_    0.620900 0.319809 0.777144 0.202646
H3    H     H_    0.376458 0.672934 0.775605 0.143443
H4    H     H_    0.379113 0.319798 0.222854 0.202648
H5    H     H_    0.111066 0.276406 0.506613 0.144491
H6    H     H_    0.887992 0.727484 0.499996 0.155577
H7    H     H_    0.888934 0.276405 0.493404 0.144494
H8    H     H_    0.112008 0.727484 0.499988 0.155581
N1    N     N_R   0.500000 0.852070 0.500000 -0.269895
N2    N     N_R   0.500000 0.147930 0.500000 -0.268506
O1    O     O_R   0.319640 0.618740 0.499990 -0.563832
O2    O     O_R   0.680360 0.381260 0.500010 -0.559071
O3    O     O_R   0.680360 0.618740 0.500010 -0.563834
O4    O     O_R   0.319640 0.381260 0.499990 -0.559071
O5    O     O_R   0.499990 0.618780 0.371460 -0.542377
O6    O     O_R   0.500010 0.381220 0.628540 -0.543640
O7    O     O_R   0.500010 0.618780 0.628540 -0.542378
O8    O     O_R   0.499990 0.381220 0.371460 -0.543642
O9    O     O_3   0.353187 0.151219 0.381613 -0.549081
C27   C     C_3   0.228656 0.108293 0.384950 -0.266078
H9    H     H_    0.169433 0.198002 0.365326 0.175581
H10   H     H_    0.201486 0.073279 0.452160 0.122613
H11   H     H_    0.208536 0.025000 0.335701 0.197941
O10   O     O_3   0.627237 0.852942 0.630338 -0.549328
C28   C     C_3   0.572196 0.881641 0.712379 -0.227042
H12   H     H_    0.606786 0.804387 0.761780 0.199369
H13   H     H_    0.469770 0.872725 0.708105 0.135334
H14   H     H_    0.598377 0.986155 0.738211 0.187904
O11   O     O_3   0.646810 0.151222 0.618388 -0.549082
C29   C     C_3   0.771339 0.108290 0.615063 -0.266076
H15   H     H_    0.830563 0.198002 0.634683 0.175575
H16   H     H_    0.798516 0.073261 0.547857 0.122617
H17   H     H_    0.791450 0.025008 0.664320 0.197950
O12   O     O_3   0.372758 0.852938 0.369665 -0.549331
C30   C     C_3   0.427787 0.881641 0.287620 -0.227027
H18   H     H_    0.393205 0.804374 0.238224 0.199366
H19   H     H_    0.530215 0.872747 0.291889 0.135324
H20   H     H_    0.401586 0.986146 0.261785 0.187910
O13   O     O_3   0.636550 0.691775 0.048284 -0.702275
H21   H     H_    0.679325 0.755667 0.090692 0.324408
O14   O     O_3   0.642378 0.292448 0.946185 -0.707248
H22   H     H_    0.644702 0.307006 0.011062 0.332585
O15   O     O_3   0.363442 0.691764 0.951717 -0.702275
H23   H     H_    0.320661 0.755652 0.909309 0.324408
O16   O     O_3   0.357639 0.292435 0.053814 -0.707249
H24   H     H_    0.355314 0.306994 0.988936 0.332584

loop_
_geom_bond_atom_site_label_1
_geom_bond_atom_site_label_2
_ccdc_geom_bond_type
C5    C8    A    
C15   C19   A    
C23   C24   S    
C30   H19   S    
C6    C7    A    
C18   H2    S    
C13   C17   A    
C17   H1    S    
C12   H8    S    
C4    C22   S    
O16   H24   S    
C14   C18   A    
C3    O8    A    
O9    C27   S    
Cu2   N2    S    
C16   C20   A    
C19   H3    S    
Cu1   O7    S    
C29   H17   S    
C27   H10   S    
C30   H20   S    
O15   H23   S    
C10   H6    S    
C18   C22   A    
C28   H12   S    
O10   C28   S    
C9    H5    S    
C9    C11   A    
Cu2   O8    S    
O11   C29   S    
O12   C30   S    
C10   C12   A    
C14   C24   A    
Cu1   N1    S    
O13   H21   S    
C3    O5    A    
C10   C25   A    
Cu2   O4    S    
C15   C24   A    
C5    O9    S    
C7    N2    A    
C7    O11   S    
C9    C26   A    
C16   C23   A    
C4    O7    A    
C28   H13   S    
C20   H4    S    
O14   H22   S    
C14   O14   S    
C6    N1    A    
Cu1   O1    S    
C1    C26   S    
C3    C21   S    
C8    N1    A    
C11   C25   A    
C2    O3    A    
C29   H16   S    
C16   O16   S    
C2    O2    A    
C2    C25   S    
C1    O4    A    
C15   O15   S    
C20   C21   A    
C13   C23   A    
C19   C22   A    
C13   O13   S    
C28   H14   S    
C8    O12   S    
Cu1   Cu2   S    
Cu1   O5    S    
Cu2   O2    S    
C27   H9    S    
C1    O1    A    
C4    O6    A    
C6    O10   S    
C29   H15   S    
C5    N2    A    
C11   H7    S    
Cu2   O6    S    
C27   H11   S    
C17   C21   A    
C30   H18   S    
C12   C26   A    
Cu1   O3    S    
