data_mof_unit_24622.cif
_audit_creation_date              2012-12-11T15:06:46-0500
_audit_creation_method            fapswitch 2.2
_symmetry_space_group_name_H-M    P1
_symmetry_Int_Tables_number       1
_space_group_crystal_system       triclinic
_cell_length_a                    7.218359
_cell_length_b                    15.205771
_cell_length_c                    22.307433
_cell_angle_alpha                 89.999919
_cell_angle_beta                  90.000052
_cell_angle_gamma                 90.000862
_cell_volume                      2448.47977219

loop_
_atom_site_label
_atom_site_type_symbol
_atom_type_description
_atom_site_fract_x
_atom_site_fract_y
_atom_site_fract_z
_atom_type_partial_charge
O1    O     O_R   0.390810 0.844810 0.447340 -0.533800
O2    O     O_R   0.109190 0.155190 0.947340 -0.533801
O3    O     O_R   0.890810 0.655190 0.552660 -0.533800
O4    O     O_R   0.609190 0.344810 0.052660 -0.533802
O5    O     O_R   0.720550 0.655820 0.440420 -0.500972
O6    O     O_R   0.779450 0.344180 0.940420 -0.500969
O7    O     O_R   0.220550 0.844180 0.559580 -0.500965
O8    O     O_R   0.279450 0.155820 0.059580 -0.500972
C1    C     C_R   0.551307 0.626289 0.426773 0.734693
C2    C     C_R   0.948693 0.373709 0.926772 0.734688
C3    C     C_R   0.051309 0.873708 0.573229 0.734691
C4    C     C_R   0.448691 0.126290 0.073228 0.734690
O9    O     O_R   0.720530 0.844130 0.440420 -0.509705
O10   O     O_R   0.779470 0.155870 0.940420 -0.509710
O11   O     O_R   0.220530 0.655870 0.559580 -0.509711
O12   O     O_R   0.279470 0.344130 0.059580 -0.509706
O13   O     O_R   0.890830 0.844810 0.552660 -0.548398
O14   O     O_R   0.609170 0.155190 0.052660 -0.548392
O15   O     O_R   0.390830 0.655190 0.447340 -0.548395
O16   O     O_R   0.109170 0.344810 0.947340 -0.548398
C5    C     C_R   0.552587 0.870137 0.423875 0.830440
C6    C     C_R   0.947412 0.129863 0.923875 0.830430
C7    C     C_R   0.052586 0.629864 0.576126 0.830429
C8    C     C_R   0.447414 0.370137 0.076125 0.830435
O17   O     O_3   0.557310 0.749980 0.536820 -0.367426
O18   O     O_3   0.942690 0.250020 0.036820 -0.367421
O19   O     O_3   0.057310 0.750020 0.463180 -0.367421
O20   O     O_3   0.442690 0.249980 0.963180 -0.367426
V1    V     V_3+5 0.832160 0.749980 0.493170 1.618594
V2    V     V_3+5 0.667840 0.250020 0.993170 1.618600
V3    V     V_3+5 0.332160 0.750020 0.506830 1.618598
V4    V     V_3+5 0.167840 0.249980 0.006830 1.618597
C9    C     C_R   0.096007 0.594860 0.871389 -0.102176
C10   C     C_R   0.403942 0.405145 0.371391 -0.102167
C11   C     C_R   0.596016 0.905146 0.128612 -0.102155
C12   C     C_R   0.904094 0.094871 0.628613 -0.102158
H1    H     H_    0.041283 0.538164 0.957448 0.148368
H2    H     H_    0.458618 0.461847 0.457450 0.148370
H3    H     H_    0.541323 0.961845 0.042552 0.148369
H4    H     H_    0.958834 0.038176 0.542555 0.148368
H5    H     H_    0.229424 0.706079 0.792191 0.155457
H6    H     H_    0.270558 0.293924 0.292189 0.155460
H7    H     H_    0.729408 0.793925 0.207810 0.155461
H8    H     H_    0.770678 0.206095 0.707807 0.155457
H9    H     H_    0.145214 0.655874 0.890838 0.137940
H10   H     H_    0.354699 0.344137 0.390839 0.137942
H11   H     H_    0.645239 0.844135 0.109163 0.137940
H12   H     H_    0.854934 0.155893 0.609164 0.137926
C13   C     C_R   0.968024 0.449262 0.885833 -0.040513
C14   C     C_R   0.531975 0.550733 0.385836 -0.040512
C15   C     C_R   0.468017 0.050737 0.114166 -0.040515
C16   C     C_R   0.031990 0.949258 0.614170 -0.040520
C17   C     C_R   0.003605 0.471917 0.595816 0.308951
C18   C     C_R   0.496404 0.528082 0.095815 0.308940
C19   C     C_R   0.503597 0.028081 0.404187 0.308942
C20   C     C_R   0.996358 0.971914 0.904187 0.308958
C21   C     C_R   0.013827 0.397632 0.631983 -0.147602
C22   C     C_R   0.486209 0.602367 0.131983 -0.147599
C23   C     C_R   0.513793 0.102367 0.368019 -0.147609
C24   C     C_R   0.986122 0.897629 0.868019 -0.147626
C25   C     C_R   0.050240 0.404549 0.693094 0.221948
C26   C     C_R   0.449821 0.595449 0.193095 0.221958
C27   C     C_R   0.550188 0.095453 0.306908 0.221970
C28   C     C_R   0.949715 0.904547 0.806909 0.221971
C29   C     C_R   0.055487 0.488933 0.720424 -0.006041
C30   C     C_R   0.444556 0.511064 0.220425 -0.006057
C31   C     C_R   0.555457 0.011069 0.279577 -0.006049
C32   C     C_R   0.944491 0.988930 0.779577 -0.006022
C33   C     C_R   0.087101 0.563550 0.682406 -0.075019
C34   C     C_R   0.412917 0.436449 0.182406 -0.075006
C35   C     C_R   0.587089 0.936453 0.317595 -0.075012
C36   C     C_R   0.912897 0.063550 0.817595 -0.075022
C37   C     C_R   0.041378 0.501220 0.783993 0.077196
C38   C     C_R   0.458657 0.498774 0.283995 0.077132
C39   C     C_R   0.541350 0.998780 0.216007 0.077144
C40   C     C_R   0.958624 0.001218 0.716008 0.077196
C41   C     C_R   0.100835 0.581606 0.809158 0.072382
C42   C     C_R   0.399158 0.418394 0.309159 0.072383
C43   C     C_R   0.600823 0.918397 0.190843 0.072382
C44   C     C_R   0.899226 0.081613 0.690843 0.072388
C45   C     C_R   0.170100 0.647373 0.772258 -0.221111
C46   C     C_R   0.329895 0.352628 0.272257 -0.221019
C47   C     C_R   0.670083 0.852630 0.227743 -0.220990
C48   C     C_R   0.829972 0.147384 0.727742 -0.221053
C49   C     C_R   0.160963 0.640521 0.710004 0.323162
C50   C     C_R   0.339041 0.359481 0.210004 0.323138
C51   C     C_R   0.660954 0.859484 0.289996 0.323137
C52   C     C_R   0.839067 0.140525 0.789995 0.323145
C53   C     C_R   0.965772 0.437281 0.823336 -0.197845
C54   C     C_R   0.534284 0.562705 0.323339 -0.197810
C55   C     C_R   0.465735 0.062714 0.176663 -0.197805
C56   C     C_R   0.034196 0.937269 0.676666 -0.197835
C57   C     C_R   0.033494 0.528586 0.909370 -0.087321
C58   C     C_R   0.466449 0.471419 0.409373 -0.087330
C59   C     C_R   0.533512 0.971419 0.090630 -0.087328
C60   C     C_R   0.966587 0.028593 0.590633 -0.087321
C61   C     C_R   0.048490 0.555337 0.619241 -0.159967
C62   C     C_R   0.451515 0.444663 0.119241 -0.159962
C63   C     C_R   0.548489 0.944665 0.380760 -0.159962
C64   C     C_R   0.951498 0.055335 0.880760 -0.159962
H13   H     H_    0.905836 0.378045 0.806251 0.172526
H14   H     H_    0.594291 0.621926 0.306255 0.172516
H15   H     H_    0.405758 0.121940 0.193747 0.172525
H16   H     H_    0.094058 0.878016 0.693751 0.172550
H17   H     H_    0.003147 0.333058 0.611706 0.171444
H18   H     H_    0.496899 0.666941 0.111706 0.171457
H19   H     H_    0.503097 0.166940 0.388298 0.171460
H20   H     H_    0.996790 0.833054 0.888298 0.171452
Cl1   Cl    Cl    0.957035 0.455917 0.518872 -0.667355
Cl2   Cl    Cl    0.542957 0.544082 0.018870 -0.667350
Cl3   Cl    Cl    0.457038 0.044079 0.481132 -0.667345
Cl4   Cl    Cl    0.042917 0.955914 0.981131 -0.667347
N1    N     N_2   0.120852 0.327957 0.721835 -0.543711
H21   H     H_    0.028997 0.289485 0.744952 0.269404
C65   C     C_3   0.307345 0.332156 0.745491 -0.422733
H22   H     H_    0.357373 0.264480 0.754772 0.226048
H23   H     H_    0.310650 0.370107 0.787939 0.203702
H24   H     H_    0.402195 0.362938 0.712325 0.205768
N2    N     N_2   0.379261 0.672049 0.221840 -0.543696
H25   H     H_    0.471134 0.710487 0.244976 0.269423
C66   C     C_3   0.192745 0.667872 0.245480 -0.422742
H26   H     H_    0.142865 0.735543 0.254865 0.226012
H27   H     H_    0.189309 0.629780 0.287868 0.203685
H28   H     H_    0.097844 0.637254 0.212258 0.205783
N3    N     N_2   0.620742 0.172056 0.278166 -0.543725
H29   H     H_    0.528868 0.210504 0.255040 0.269425
C67   C     C_3   0.807254 0.167895 0.254525 -0.422784
H30   H     H_    0.857131 0.235574 0.245166 0.226016
H31   H     H_    0.810675 0.129832 0.212125 0.203715
H32   H     H_    0.902142 0.137251 0.287737 0.205799
N4    N     N_2   0.879118 0.827953 0.778166 -0.543736
H33   H     H_    0.971000 0.789448 0.755086 0.269396
C68   C     C_3   0.692655 0.832145 0.754484 -0.422702
H34   H     H_    0.642630 0.764466 0.745213 0.226043
H35   H     H_    0.689408 0.870075 0.712027 0.203704
H36   H     H_    0.597769 0.862948 0.787631 0.205771
Cl5   Cl    Cl    0.274976 0.725911 0.672183 -0.746386
Cl6   Cl    Cl    0.225021 0.274093 0.172182 -0.746391
Cl7   Cl    Cl    0.774979 0.774097 0.327817 -0.746402
Cl8   Cl    Cl    0.725029 0.225909 0.827814 -0.746387

loop_
_geom_bond_atom_site_label_1
_geom_bond_atom_site_label_2
_ccdc_geom_bond_type
O17   V3    S    
C21   H17   S    
C22   C26   A    
C19   C23   A    
O19   V1    S    
C9    H9    S    
O3    C7    A    
H6    C46   S    
C44   C48   A    
C11   H11   S    
C36   C64   A    
C29   C37   A    
C30   C34   A    
O1    C5    A    
C8    C62   S    
C28   C32   A    
O9    V1    S    
H4    C60   S    
C18   C22   A    
O4    C8    A    
C29   C33   A    
C65   H22   S    
C30   C38   A    
O1    V3    S    
H7    C47   S    
C18   Cl2   S    
O2    V4    S    
O3    V1    S    
C12   C60   A    
C54   H14   S    
C66   H28   S    
C3    C16   S    
C15   C55   A    
C1    O15   A    
C52   Cl8   S    
C2    O16   A    
C65   H23   S    
O2    C6    A    
C68   H36   S    
C16   C60   A    
O14   V2    S    
C24   H20   S    
C39   C55   A    
C53   H13   S    
O11   C7    A    
O15   V3    S    
O12   C8    A    
O10   V2    S    
C36   C52   A    
C14   C54   A    
O5    V1    S    
N2    C66   S    
C27   C31   A    
C6    C64   S    
C26   C30   A    
H1    C57   S    
O8    V4    S    
C40   C44   A    
O7    V3    S    
C12   C44   A    
C51   Cl7   S    
C17   C21   A    
O18   V4    S    
C14   C58   A    
C17   C61   A    
C46   C50   A    
C35   C63   A    
O6    V2    S    
C23   H19   S    
C20   C24   A    
C32   C36   A    
C22   H18   S    
O7    C3    A    
C67   H31   S    
O5    C1    A    
C42   C46   A    
C56   H16   S    
C28   N4    S    
C41   C45   A    
O8    C4    A    
C65   H24   S    
H5    C45   S    
H2    C58   S    
C66   H26   S    
O9    C5    A    
O11   V3    S    
H3    C59   S    
C26   N2    S    
C27   N3    S    
C40   C56   A    
C10   H10   S    
C7    C61   S    
C10   C58   A    
C25   N1    S    
N3    H29   S    
C35   C51   A    
C16   C56   A    
C32   C40   A    
C20   C64   A    
C19   C63   A    
C67   H30   S    
C34   C50   A    
C49   Cl5   S    
C4    C15   S    
C33   C49   A    
N3    C67   S    
N1    H21   S    
O16   V4    S    
C17   Cl1   S    
C3    O13   A    
C13   C53   A    
C19   Cl3   S    
C1    C14   S    
C48   C52   A    
C55   H15   S    
N4    C68   S    
C9    C57   A    
C47   C51   A    
O6    C2    A    
N2    H25   S    
C21   C25   A    
C11   C59   A    
O12   V4    S    
C23   C27   A    
H8    C48   S    
C24   C28   A    
O10   C6    A    
O20   V2    S    
C67   H32   S    
C37   C53   A    
O13   V1    S    
C10   C42   A    
C43   C47   A    
C9    C41   A    
C68   H34   S    
C5    C63   S    
C38   C54   A    
C11   C43   A    
C12   H12   S    
C31   C35   A    
N4    H33   S    
O4    V2    S    
C66   H27   S    
C50   Cl6   S    
C25   C29   A    
C31   C39   A    
C38   C42   A    
C4    O14   A    
C68   H35   S    
C37   C41   A    
C18   C62   A    
C13   C57   A    
C2    C13   S    
C39   C43   A    
C20   Cl4   S    
C45   C49   A    
C34   C62   A    
C15   C59   A    
N1    C65   S    
C33   C61   A    
