data_mof_unit_18010.cif
_audit_creation_date              2013-03-05T15:49:33-0500
_audit_creation_method            fapswitch 2.2
_symmetry_space_group_name_H-M    P1
_symmetry_Int_Tables_number       1
_space_group_crystal_system       triclinic
_cell_length_a                    25.170199
_cell_length_b                    7.23094
_cell_length_c                    21.904041
_cell_angle_alpha                 90.085802
_cell_angle_beta                  110.096245
_cell_angle_gamma                 90.103996
_cell_volume                      3743.89296968

loop_
_atom_site_label
_atom_site_type_symbol
_atom_site_description
_atom_site_fract_x
_atom_site_fract_y
_atom_site_fract_z
_atom_type_partial_charge
O1    O     O_R   0.554350 0.505270 0.581390 -0.577596
O2    O     O_R   0.445650 0.005270 0.418610 -0.578409
O3    O     O_R   0.553380 0.177580 0.454800 -0.595261
O4    O     O_R   0.446620 0.677580 0.545200 -0.595203
C1    C     C_R   0.565826 0.344590 0.438246 0.910170
C2    C     C_R   0.434168 0.844542 0.561757 0.910795
O5    O     O_R   0.560970 0.175640 0.583140 -0.580077
O6    O     O_R   0.439030 0.675640 0.416860 -0.579435
O7    O     O_R   0.453290 0.004120 0.547860 -0.593170
O8    O     O_R   0.546710 0.504120 0.452140 -0.592948
C3    C     C_R   0.575915 0.344141 0.607551 0.934775
C4    C     C_R   0.424005 0.843744 0.392486 0.934797
O9    O     O_3   0.464660 0.338800 0.488280 -0.284174
O10   O     O_3   0.535340 0.838800 0.511720 -0.283989
V1    V     V_3+5 0.506560 0.064420 0.502170 1.166192
V2    V     V_3+5 0.493440 0.564420 0.497830 1.167527
C5    C     C_R   0.151537 0.011811 0.286557 -0.161265
C6    C     C_R   0.851848 0.433653 0.711646 -0.159591
H1    H     H_    0.068158 0.060357 0.219626 0.122373
H2    H     H_    0.937337 0.436242 0.777341 0.120698
H3    H     H_    0.235091 0.993623 0.399450 0.127331
H4    H     H_    0.767122 0.443129 0.599493 0.127843
H5    H     H_    0.140108 0.056922 0.327614 0.120765
H6    H     H_    0.865020 0.438437 0.669471 0.120788
C7    C     C_R   0.122246 0.945356 0.171422 -0.237641
C8    C     C_R   0.878053 0.437484 0.828686 -0.233751
C9    C     C_R   0.398569 0.829752 0.273794 -0.274018
C10   C     C_R   0.602328 0.304106 0.725481 -0.270176
C11   C     C_R   0.360757 0.846302 0.210058 0.396511
C12   C     C_R   0.641657 0.283513 0.788189 0.400127
C13   C     C_R   0.303218 0.876613 0.199464 -0.201988
C14   C     C_R   0.699177 0.314944 0.798886 -0.200843
C15   C     C_R   0.281826 0.882215 0.251260 0.062595
C16   C     C_R   0.718345 0.376033 0.748741 0.060501
C17   C     C_R   0.321961 0.880175 0.316069 0.111462
C18   C     C_R   0.677847 0.383568 0.684206 0.112828
C19   C     C_R   0.222481 0.905772 0.240863 -0.026241
C20   C     C_R   0.777192 0.413026 0.759600 -0.028740
C21   C     C_R   0.207100 0.958498 0.295128 0.160642
C22   C     C_R   0.794345 0.425099 0.704259 0.159230
C23   C     C_R   0.247245 0.958837 0.357914 -0.201156
C24   C     C_R   0.754088 0.428597 0.641555 -0.204968
C25   C     C_R   0.303327 0.914152 0.368496 -0.180892
C26   C     C_R   0.696713 0.414289 0.631763 -0.180578
C27   C     C_R   0.177634 0.882301 0.179275 0.266873
C28   C     C_R   0.820031 0.436868 0.822582 0.262913
C29   C     C_R   0.110335 0.012621 0.225077 -0.205774
C30   C     C_R   0.893157 0.433161 0.773099 -0.220178
C31   C     C_R   0.380317 0.850556 0.326853 -0.216215
C32   C     C_R   0.619589 0.350065 0.673219 -0.217864
H7    H     H_    0.443101 0.806578 0.282494 0.167421
H8    H     H_    0.557904 0.277343 0.716551 0.167665
H9    H     H_    0.276347 0.905624 0.150456 0.208379
H10   H     H_    0.728651 0.280052 0.846046 0.208928
H11   H     H_    0.332528 0.914476 0.418121 0.102741
H12   H     H_    0.667347 0.419326 0.582265 0.103488
C33   C     C_R   0.121381 0.765250 0.882449 -0.105463
C34   C     C_R   0.879145 0.265197 0.118237 -0.119452
H13   H     H_    0.106365 0.637190 0.896398 0.133698
H14   H     H_    0.894534 0.137191 0.104783 0.132423
C35   C     C_R   0.157357 0.755376 0.845953 -0.129019
C36   C     C_R   0.843149 0.255331 0.154712 -0.123707
H15   H     H_    0.168803 0.620318 0.833057 0.117447
H16   H     H_    0.832052 0.120331 0.168074 0.117380
C37   C     C_R   0.178011 0.917131 0.826204 0.116050
C38   C     C_R   0.822043 0.417036 0.173859 0.114557
C39   C     C_R   0.161918 0.089210 0.844401 -0.120166
C40   C     C_R   0.837700 0.589033 0.155081 -0.121028
H17   H     H_    0.176962 0.216869 0.830212 0.120472
H18   H     H_    0.822294 0.716648 0.168789 0.120942
C41   C     C_R   0.125913 0.099184 0.880964 -0.139199
C42   C     C_R   0.873714 0.598997 0.118528 -0.120646
H19   H     H_    0.114345 0.234295 0.893669 0.133743
H20   H     H_    0.884910 0.734062 0.105333 0.131956
C43   C     C_R   0.104926 0.937288 0.900367 -0.109711
C44   C     C_R   0.895157 0.437174 0.099729 -0.104428
N1    N     N_R   0.235750 0.061979 0.767310 -0.070425
N2    N     N_R   0.764039 0.561923 0.232382 -0.069883
N3    N     N_R   0.269355 0.051944 0.731765 -0.071709
N4    N     N_R   0.730423 0.551944 0.267919 -0.071322
C45   C     C_R   0.284551 0.885617 0.713878 0.115549
C46   C     C_R   0.715462 0.385689 0.286143 0.115537
N5    N     N_R   0.264595 0.729754 0.733246 -0.071276
N6    N     N_R   0.735663 0.229841 0.267123 -0.071151
N7    N     N_R   0.230994 0.739789 0.768794 -0.071731
N8    N     N_R   0.769278 0.239821 0.231589 -0.071578
C47   C     C_R   0.215789 0.906114 0.786671 0.121901
C48   C     C_R   0.784248 0.406072 0.213374 0.122504
C49   C     C_R   0.338032 0.702493 0.655694 -0.125297
C50   C     C_R   0.662049 0.202650 0.344455 -0.124503
H21   H     H_    0.322823 0.574863 0.669696 0.118583
H22   H     H_    0.677318 0.075042 0.330563 0.118827
C51   C     C_R   0.373898 0.692475 0.618965 -0.145501
C52   C     C_R   0.626175 0.192633 0.381175 -0.145630
H23   H     H_    0.385225 0.557389 0.605950 0.130700
H24   H     H_    0.614909 0.057565 0.394292 0.130980
C53   C     C_R   0.395062 0.854326 0.599776 -0.125604
C54   C     C_R   0.604933 0.354447 0.400227 -0.126640
C55   C     C_R   0.378977 0.026374 0.618104 -0.146182
C56   C     C_R   0.620943 0.526466 0.381766 -0.147142
H25   H     H_    0.394209 0.154352 0.604367 0.133786
H26   H     H_    0.605649 0.654411 0.395393 0.134267
C57   C     C_R   0.343128 0.036304 0.654755 -0.123947
C58   C     C_R   0.656795 0.536394 0.345113 -0.124480
H27   H     H_    0.331951 0.171360 0.667963 0.117589
H28   H     H_    0.667915 0.671420 0.331798 0.118238
C59   C     C_R   0.322259 0.874581 0.674261 0.117636
C60   C     C_R   0.677745 0.374696 0.325751 0.116890
O11   O     O_R   0.953220 0.285790 0.047790 -0.594303
O12   O     O_R   0.046780 0.785790 0.952210 -0.587356
O13   O     O_R   0.939020 0.617570 0.916840 -0.582241
O14   O     O_R   0.060980 0.117570 0.083160 -0.582686
C61   C     C_R   0.923904 0.448214 0.892634 1.000063
C62   C     C_R   0.076195 0.949024 0.107394 0.996197
O15   O     O_R   0.946600 0.615450 0.045180 -0.596258
O16   O     O_R   0.053400 0.115450 0.954820 -0.599837
O17   O     O_R   0.054370 0.786770 0.081410 -0.573105
O18   O     O_R   0.945630 0.286770 0.918590 -0.581835
C63   C     C_R   0.934352 0.446952 0.061785 0.968095
C64   C     C_R   0.065711 0.946989 0.938283 0.962516
O19   O     O_3   0.035300 0.454160 0.011680 -0.273969
O20   O     O_3   0.964700 0.954160 0.988320 -0.282584
V3    V     V_3+5 0.993450 0.728620 0.997830 1.218031
V4    V     V_3+5 0.006550 0.228620 0.002170 1.209750
N9    N     N_R   0.185811 0.776462 0.127706 0.221765
O21   O     O_R   0.170398 0.841944 0.068892 -0.420143
O22   O     O_R   0.207243 0.611116 0.139187 -0.370853
N10   N     N_R   0.805511 0.486277 0.878396 0.216888
O23   O     O_R   0.771785 0.624863 0.875336 -0.358125
O24   O     O_R   0.827247 0.397482 0.932926 -0.422732
N11   N     N_R   0.380917 0.835563 0.156010 0.252910
O25   O     O_R   0.434560 0.814450 0.165774 -0.356421
O26   O     O_R   0.345805 0.844759 0.096476 -0.329382
N12   N     N_R   0.623390 0.225782 0.840790 0.254377
O27   O     O_R   0.570355 0.189149 0.830477 -0.355620
O28   O     O_R   0.659463 0.211306 0.899665 -0.322196

loop_
_geom_bond_atom_site_label_1
_geom_bond_atom_site_label_2
_geom_bond_distance
_ccdc_geom_bond_type
C34   C36   1.400595 A    
C38   C40   1.407986 A    
C45   C59   1.492069 S    
C51   C53   1.408255 A    
C9    C11   1.398919 A    
C55   C57   1.400633 A    
O1    C3    1.330805 A    
C42   C44   1.408419 A    
O2    C4    1.330369 A    
N10   O23   1.301349 A    
C2    O7    1.324956 A    
C58   H28   1.082888 S    
C4    C31   1.480702 S    
C34   C44   1.408960 A    
C21   C23   1.399087 A    
H4    C24   1.084152 S    
O5    C3    1.330459 A    
C5    H5    1.084059 S    
C6    H6    1.083991 S    
C28   N10   1.435993 S    
N6    N8    1.333954 A    
O14   V4    2.001733 S    
C38   C48   1.492035 S    
N2    N4    1.333986 A    
C33   H13   1.082864 S    
C52   C54   1.408263 A    
C34   H14   1.082843 S    
C56   C58   1.400660 A    
C5    C21   1.400528 A    
C14   H10   1.075136 S    
C35   H15   1.082886 S    
C6    C22   1.401301 A    
O19   V4    1.765754 S    
C36   H16   1.082890 S    
C45   N5    1.359516 A    
C10   C32   1.397139 A    
C57   H27   1.082883 S    
C27   N9    1.435874 S    
C37   C39   1.408011 A    
C17   C31   1.421961 A    
C13   C15   1.413694 A    
C37   C47   1.492073 S    
C46   C60   1.492033 S    
C49   H21   1.082846 S    
C17   C25   1.403120 A    
C7    C29   1.395935 A    
C39   C41   1.402411 A    
C8    C30   1.395024 A    
O6    V2    2.001753 S    
N7    C47   1.359961 A    
C51   H23   1.082903 S    
C23   C25   1.388433 A    
C24   C26   1.388808 A    
O14   C62   1.333314 A    
C53   C55   1.408827 A    
C9    H7    1.083845 S    
C50   C52   1.402327 A    
N1    N3    1.333987 A    
N2    C48   1.359537 A    
C41   C43   1.408417 A    
C44   C63   1.494124 S    
O15   V3    1.993847 S    
C36   C38   1.406858 A    
N8    C48   1.359941 A    
O13   V3    1.997602 S    
C12   C14   1.402917 A    
C2    C53   1.493567 S    
N4    C46   1.359958 A    
O12   C64   1.333311 A    
C41   H19   1.082869 S    
N12   O28   1.301738 A    
O5    V1    1.997618 S    
N11   O26   1.301740 A    
C15   C19   1.441998 A    
O16   C64   1.337250 A    
N10   O24   1.301052 A    
C40   C42   1.402366 A    
C39   H17   1.082847 S    
C14   C16   1.413922 A    
O4    V2    1.994032 S    
O12   V3    1.972877 S    
C26   H12   1.082913 S    
C50   H22   1.082830 S    
O6    C4    1.330589 A    
C49   C59   1.408070 A    
C56   H26   1.082891 S    
H1    C29   1.083873 S    
O13   C61   1.335393 A    
O1    V2    1.989923 S    
O18   V4    1.988763 S    
C13   H9    1.075208 S    
C52   H24   1.082903 S    
O2    V1    1.987548 S    
H2    C30   1.083788 S    
H3    C23   1.084192 S    
C42   H20   1.082861 S    
N5    N7    1.333967 A    
C46   N6    1.359519 A    
N9    O21   1.301302 A    
C18   C26   1.403426 A    
O4    C2    1.328717 A    
C19   C27   1.440498 A    
N11   O25   1.301719 A    
C7    C27   1.420848 A    
C58   C60   1.406940 A    
C18   C32   1.422269 A    
O11   C63   1.333623 A    
N3    C45   1.359971 A    
C25   H11   1.082933 S    
O16   V4    1.994329 S    
C55   H25   1.082905 S    
C16   C20   1.441639 A    
C43   C64   1.494113 S    
C5    C29   1.389013 A    
O3    C1    1.328916 A    
C6    C30   1.389683 A    
O11   V4    1.973271 S    
C33   C35   1.400596 A    
N12   O27   1.301718 A    
O15   C63   1.337478 A    
C12   N12   1.441518 S    
C33   C43   1.408981 A    
C10   C12   1.398404 A    
O17   V3    1.986424 S    
C8    C61   1.479317 S    
C50   C60   1.408042 A    
C1    O8    1.325294 A    
C19   C21   1.422475 A    
C3    C32   1.480641 S    
O8    V2    1.977994 S    
C7    C62   1.481293 S    
C20   C22   1.422388 A    
C10   H8    1.083897 S    
C11   N11   1.441440 S    
C22   C24   1.399152 A    
C15   C17   1.431994 A    
C16   C18   1.431957 A    
C49   C51   1.402388 A    
C54   C56   1.408819 A    
C20   C28   1.439424 A    
C62   O17   1.335305 A    
C8    C28   1.420046 A    
C61   O18   1.332571 A    
C35   C37   1.406866 A    
C1    C54   1.493558 S    
N1    C47   1.359528 A    
C11   C13   1.403456 A    
O9    V2    1.766543 S    
N9    O22   1.301432 A    
C40   H18   1.082832 S    
O10   V1    1.769548 S    
O3    V1    1.993552 S    
C57   C59   1.406934 A    
O20   V3    1.768754 S    
C9    C31   1.396815 A    
O7    V1    1.977580 S    
