data_mof_unit_44023.cif
_audit_creation_date              2012-12-11T19:20:37-0500
_audit_creation_method            fapswitch 2.2
_symmetry_space_group_name_H-M    P1
_symmetry_Int_Tables_number       1
_space_group_crystal_system       triclinic
_cell_length_a                    8.170814
_cell_length_b                    15.059624
_cell_length_c                    18.757448
_cell_angle_alpha                 101.595983
_cell_angle_beta                  91.61034
_cell_angle_gamma                 98.211702
_cell_volume                      2233.95595445

loop_
_atom_site_label
_atom_site_type_symbol
_atom_type_description
_atom_site_fract_x
_atom_site_fract_y
_atom_site_fract_z
_atom_type_partial_charge
Ba1   Ba    Ba6+2 0.853510 0.540900 0.466480 1.642872
Ba2   Ba    Ba6+2 0.336320 0.459170 0.533530 1.645683
C1    C     C_3   0.652791 0.862449 0.290036 -0.353620
C2    C     C_R   0.889131 0.412232 0.092105 0.030823
C3    C     C_R   0.726793 0.371998 0.066919 -0.077130
C4    C     C_3   0.138110 0.720329 0.272471 0.346535
C5    C     C_R   0.665765 0.376383 0.997529 -0.084123
C6    C     C_R   0.766693 0.419826 0.951380 0.025169
C7    C     C_R   0.929271 0.461414 0.976032 0.017221
C8    C     C_R   0.707741 0.420786 0.880725 -0.099888
C9    C     C_R   0.810534 0.459948 0.832343 -0.002488
C10   C     C_R   0.972654 0.504459 0.857491 0.034621
C11   C     C_R   0.030822 0.505785 0.929880 0.021766
C12   C     C_3   0.654232 0.773616 0.316633 0.367833
C13   C     C_R   0.756962 0.454503 0.759109 0.028532
C14   C     C_R   0.865344 0.490359 0.711659 -0.282751
C15   C     C_R   0.023943 0.537416 0.735449 0.017001
C16   C     C_3   0.114577 0.739922 0.196732 -0.336378
C17   C     C_R   0.077569 0.546253 0.810249 -0.050486
C18   C     C_R   0.151551 0.500245 0.072317 0.011191
C19   C     C_R   0.211459 0.498666 0.143966 -0.007569
C20   C     C_R   0.107758 0.455164 0.190783 -0.044934
C21   C     C_R   0.950195 0.408228 0.162108 -0.037197
C22   C     C_R   0.233287 0.594580 0.839153 0.005161
C23   C     C_3   0.460531 0.310951 0.308564 0.307158
C24   C     C_R   0.291630 0.598260 0.911356 -0.056675
C25   C     C_R   0.191382 0.550047 0.955890 -0.033863
C26   C     C_R   0.251703 0.546268 0.026757 0.014232
C27   C     C_R   0.449409 0.646644 0.940368 0.431683
C28   C     C_3   0.247256 0.742748 0.627876 0.296193
C29   C     C_R   0.509831 0.637681 0.008786 -0.114536
C30   C     C_R   0.412983 0.588320 0.051978 -0.042084
C31   C     C_R   0.374769 0.541508 0.168666 -0.042524
C32   C     C_R   0.475025 0.583277 0.121104 -0.085273
C33   C     C_R   0.431329 0.544035 0.240982 -0.005999
C34   C     C_3   0.440304 0.280836 0.226115 -0.390541
C35   C     C_R   0.324038 0.507584 0.288313 -0.300494
C36   C     C_R   0.164337 0.462121 0.264868 0.044923
C37   C     C_R   0.334475 0.822789 0.451330 -0.019899
C38   C     C_R   0.577087 0.792515 0.515936 0.063382
C39   C     C_R   0.767079 0.230672 0.519902 -0.291396
C40   C     C_3   0.290753 0.846685 0.650576 -0.380728
C41   C     C_R   0.860613 0.173534 0.547122 0.015760
C42   C     C_R   0.799039 0.079859 0.539263 -0.136108
C43   C     C_R   0.641268 0.042090 0.502767 0.020566
C44   C     C_R   0.555155 0.101499 0.471087 -0.019284
C45   C     C_3   0.060463 0.280087 0.727067 0.362122
C46   C     C_R   0.567000 0.947875 0.495227 0.010458
C47   C     C_R   0.404475 0.916859 0.459213 -0.045846
C48   C     C_R   0.322186 0.981485 0.431984 -0.086506
C49   C     C_R   0.403208 0.068117 0.433264 -0.071475
C50   C     C_R   0.647110 0.884517 0.524712 -0.126550
C51   C     C_R   0.425142 0.761927 0.477034 -0.286014
C52   C     C_3   0.949146 0.255968 0.370320 0.294829
C53   C     C_R   0.619430 0.194991 0.479288 0.015548
C54   C     C_3   0.913167 0.152122 0.347029 -0.380535
C55   C     C_3   0.781500 0.697842 0.692040 0.266201
C56   C     C_3   0.069956 0.258970 0.802927 -0.359023
C57   C     C_3   0.885291 0.763254 0.754945 -0.251084
C58   C     C_1   0.150596 0.969758 0.406417 0.330132
C59   C     C_3   0.534385 0.225566 0.683134 0.351101
C60   C     C_3   0.495525 0.131304 0.701601 -0.353021
C61   C     C_R   0.989982 0.458258 0.046935 0.007846
H1    H     H_    0.744018 0.786467 0.364352 0.111310
H2    H     H_    0.865009 0.662115 0.654838 0.024076
H3    H     H_    0.697808 0.645509 0.713321 0.057191
H4    H     H_    0.627010 0.917377 0.335585 0.080197
H5    H     H_    0.970016 0.814859 0.733874 0.102970
H6    H     H_    0.958978 0.725071 0.785279 0.119852
H7    H     H_    0.804758 0.800652 0.792851 0.187389
H8    H     H_    0.528751 0.752209 0.334015 -0.072991
H9    H     H_    0.554853 0.852468 0.245517 0.108791
H10   H     H_    0.341791 0.329937 0.329006 0.019482
H11   H     H_    0.559383 0.371507 0.322244 0.059705
H12   H     H_    0.385391 0.865260 0.697026 0.155018
H13   H     H_    0.337895 0.222302 0.210580 0.134808
H14   H     H_    0.411238 0.338275 0.201509 0.054045
H15   H     H_    0.556946 0.259503 0.204574 0.121217
H16   H     H_    0.774936 0.884071 0.269141 0.157910
H17   H     H_    0.171014 0.690529 0.156367 0.074681
H18   H     H_    0.146230 0.344263 0.727122 0.091391
H19   H     H_    0.932114 0.290720 0.714775 -0.076648
H20   H     H_    0.200256 0.255516 0.819379 0.145350
H21   H     H_    0.024278 0.313506 0.843199 0.063094
H22   H     H_    0.991801 0.192241 0.803282 0.123833
H23   H     H_    0.340500 0.876206 0.604841 0.056618
H24   H     H_    0.669618 0.240560 0.677920 -0.066606
H25   H     H_    0.468916 0.223498 0.630108 0.093256
H26   H     H_    0.545231 0.079767 0.660256 0.066943
H27   H     H_    0.359415 0.111116 0.701885 0.152185
H28   H     H_    0.071268 0.650756 0.272549 0.079677
H29   H     H_    0.553143 0.132117 0.756116 0.122084
H30   H     H_    0.646387 0.337489 0.101072 0.064572
H31   H     H_    0.539885 0.344699 0.979572 0.074678
H32   H     H_    0.823202 0.484225 0.655444 0.069151
H33   H     H_    0.581985 0.388860 0.863782 0.102104
H34   H     H_    0.178521 0.877725 0.666943 0.113589
H35   H     H_    0.871237 0.369995 0.194222 0.096212
H36   H     H_    0.312588 0.625524 0.804047 0.149589
H37   H     H_    0.633314 0.671262 0.029331 0.131249
H38   H     H_    0.601271 0.614445 0.137597 0.112558
H39   H     H_    0.272277 0.722239 0.284250 -0.068696
H40   H     H_    0.367576 0.512291 0.344147 0.072330
H41   H     H_    0.372193 0.690586 0.470771 0.069182
H42   H     H_    0.763730 0.904745 0.555954 0.083617
H43   H     H_    0.814755 0.302805 0.526238 0.067429
H44   H     H_    0.877150 0.039100 0.561546 0.076745
H45   H     H_    0.835447 0.282723 0.388628 0.012192
H46   H     H_    0.338149 0.111369 0.406929 0.099999
H47   H     H_    0.980369 0.733199 0.181180 0.153175
H48   H     H_    0.175316 0.810573 0.195717 0.121640
H49   H     H_    0.358463 0.713456 0.609238 0.026665
H50   H     H_    0.149381 0.725723 0.582979 0.065015
H51   H     H_    0.511995 0.739680 0.787986 0.341595
H52   H     H_    0.045863 0.274397 0.415582 0.072518
H53   H     H_    0.812940 0.131861 0.302992 0.135593
H54   H     H_    0.873833 0.121238 0.393676 0.078095
H55   H     H_    0.026748 0.125057 0.326724 0.129231
N1    N     N_1   0.013436 0.963938 0.386283 -0.292519
O1    O     O_2   0.871970 0.437290 0.322980 -0.470660
O2    O     O_2   0.202395 0.180186 0.543622 -0.491542
O3    O     O_3   0.105879 0.206791 0.676359 -0.596697
O4    O     O_3   0.121420 0.444460 0.412460 -0.491107
O5    O     O_3   0.580410 0.613230 0.540280 -0.479656
O6    O     O_2   0.337420 0.273080 0.457680 -0.469360
O7    O     O_3   0.502996 0.238177 0.338000 -0.644984
O8    O     O_2   0.415830 0.458292 0.754870 -0.489119
O9    O     O_3   0.481329 0.291229 0.738383 -0.609963
O10   O     O_3   0.661430 0.607560 0.372520 -0.480736
O11   O     O_2   0.774825 0.542236 0.245006 -0.492793
O12   O     O_3   0.685019 0.749221 0.658536 -0.646730
O13   O     O_3   0.002239 0.291166 0.310170 -0.638875
O14   O     O_3   0.702076 0.707397 0.260310 -0.603090
O15   O     O_2   0.852280 0.726960 0.542370 -0.473591
O16   O     O_3   0.083990 0.657360 0.410240 -0.485376
O17   O     O_2   0.991454 0.815934 0.458568 -0.481739
O18   O     O_2   0.679662 0.794730 0.951742 -0.260986
O19   O     O_2   0.701380 0.661404 0.855873 -0.381728
O20   O     O_3   0.481361 0.767751 0.837275 -0.515520
O21   O     O_3   0.074309 0.786747 0.323172 -0.584168
O22   O     O_2   0.317740 0.562750 0.677070 -0.458977
O23   O     O_3   0.068290 0.555610 0.587550 -0.496391
O24   O     O_3   0.528280 0.392520 0.627490 -0.477406
O25   O     O_3   0.192625 0.708965 0.688535 -0.637417
O26   O     O_3   0.609300 0.386850 0.459730 -0.480260
O27   O     O_3   0.105720 0.342720 0.589770 -0.488214
P1    P     P_3+3 0.039440 0.410950 0.333260 0.973352
P2    P     P_3+3 0.676740 0.714970 0.563520 0.983488
P3    P     P_3+3 0.123232 0.772769 0.411445 0.952497
P4    P     P_3+3 0.150270 0.589130 0.666750 0.968357
P5    P     P_3+3 0.068501 0.224730 0.588379 0.949624
P6    P     P_3+3 0.641893 0.598309 0.278783 0.946689
P7    P     P_3+3 0.519820 0.272054 0.433135 0.932386
P8    P     P_3+3 0.546566 0.400493 0.721082 0.954992
S1    S     S_3+6 0.581734 0.718520 0.895383 -0.109157

loop_
_geom_bond_atom_site_label_1
_geom_bond_atom_site_label_2
_ccdc_geom_bond_type
O19   S1    D    
Ba2   P4    S    
C22   H36   S    
C54   H54   S    
Ba1   O26   S    
C15   P4    S    
C55   H3    S    
C41   C42   A    
C1    H16   S    
O17   P3    D    
C5    C6    A    
C43   C44   A    
Ba2   O26   S    
O5    P2    S    
C2    C61   A    
C40   H12   S    
C57   H7    S    
C33   C35   A    
C22   C24   A    
C23   H11   S    
Ba1   O10   S    
C34   H14   S    
C55   C57   S    
C19   C31   A    
C51   H41   S    
C13   C14   A    
C20   C36   A    
C60   H26   S    
C28   O25   S    
O18   S1    D    
C58   N1    T    
Ba1   Ba2   S    
C12   H8    S    
C45   H19   S    
C7    C11   A    
C39   C53   A    
C13   P8    S    
O25   P4    S    
Ba1   O23   S    
C59   H24   S    
C31   C33   A    
C9    C13   A    
C6    C7    A    
C29   H37   S    
C60   H29   S    
C44   C53   A    
O15   P2    D    
C24   C27   A    
C40   H23   S    
C8    H33   S    
C34   H13   S    
O9    P8    S    
C27   S1    S    
O26   P7    S    
C4    H39   S    
C49   H46   S    
C19   C20   A    
Ba2   O24   S    
C39   C41   A    
O14   P6    S    
C28   C40   S    
O8    P8    D    
O6    P7    D    
O22   P4    D    
C48   C49   A    
C54   H53   S    
C4    C16   S    
C52   C54   S    
C32   H38   S    
C39   H43   S    
C38   P2    S    
C26   C30   A    
C16   H48   S    
O10   P6    S    
C40   H34   S    
C3    C5    A    
C2    C21   A    
C14   C15   A    
C45   O3    S    
C18   C26   A    
O16   P3    S    
C44   C49   A    
O2    P5    D    
C28   H49   S    
C43   C46   A    
Ba1   O1    S    
C30   C32   A    
C23   O7    S    
Ba1   O4    S    
C35   C36   A    
C59   H25   S    
C56   H21   S    
C57   H5    S    
C29   C30   A    
O20   S1    S    
C12   H1    S    
C52   H52   S    
C31   C32   A    
C24   C25   A    
O12   P2    S    
H51   O20   S    
C18   C19   A    
C1    C12   S    
C57   H6    S    
C16   H17   S    
C46   C47   A    
C37   C47   A    
O4    P1    S    
C50   H42   S    
C38   C51   A    
O11   P6    D    
Ba2   O23   S    
Ba1   P1    S    
C33   P6    S    
Ba1   O15   S    
C56   H22   S    
C41   P5    S    
C42   C43   A    
C35   H40   S    
C42   H44   S    
C53   P7    S    
C5    H31   S    
C14   H32   S    
C7    C61   A    
O13   P1    S    
C54   H55   S    
C55   O12   S    
C1    H4    S    
C16   H47   S    
C55   H2    S    
C2    C3    A    
O24   P8    S    
C3    H30   S    
C9    C10   A    
C12   O14   S    
Ba2   O5    S    
Ba2   O27   S    
C52   O13   S    
C37   P3    S    
C52   H45   S    
C48   C58   S    
O3    P5    S    
O23   P4    S    
C18   C61   A    
C17   C22   A    
Ba1   O5    S    
C27   C29   A    
C38   C50   A    
C56   H20   S    
C45   C56   S    
C37   C51   A    
C60   H27   S    
C10   C17   A    
C15   C17   A    
C1    H9    S    
C59   O9    S    
C23   H10   S    
C45   H18   S    
C4    O21   S    
C59   C60   S    
C36   P1    S    
C8    C9    A    
C23   C34   S    
O27   P5    S    
Ba2   O6    S    
C46   C50   A    
C21   H35   S    
C10   C11   A    
O1    P1    D    
C6    C8    A    
C47   C48   A    
C25   C26   A    
Ba2   O22   S    
C20   C21   A    
C11   C25   A    
Ba1   P2    S    
C34   H15   S    
O7    P7    S    
Ba1   O16   S    
O21   P3    S    
Ba2   O4    S    
C4    H28   S    
C28   H50   S    
