data_mof_unit_32111.cif
_audit_creation_date              2012-12-11T14:35:50-0500
_audit_creation_method            fapswitch 2.2
_symmetry_space_group_name_H-M    P1
_symmetry_Int_Tables_number       1
_space_group_crystal_system       triclinic
_cell_length_a                    14.46733
_cell_length_b                    16.048021
_cell_length_c                    7.012177
_cell_angle_alpha                 89.709209
_cell_angle_beta                  80.822623
_cell_angle_gamma                 90.038534
_cell_volume                      1607.16884505

loop_
_atom_site_label
_atom_site_type_symbol
_atom_type_description
_atom_site_fract_x
_atom_site_fract_y
_atom_site_fract_z
_atom_type_partial_charge
O1    O     O_R   0.337460 0.413110 0.524760 -0.544574
O2    O     O_R   0.662540 0.913110 0.475240 -0.551522
O3    O     O_R   0.348690 0.587910 0.191230 -0.519505
O4    O     O_R   0.651310 0.087910 0.808770 -0.505989
O5    O     O_R   0.166530 0.586890 0.082470 -0.526593
O6    O     O_R   0.833470 0.086890 0.917530 -0.524144
C1    C     C_R   0.373747 0.614166 0.352218 0.619932
C2    C     C_R   0.628906 0.116248 0.646186 0.627547
O7    O     O_R   0.348700 0.413830 0.191250 -0.520281
O8    O     O_R   0.651300 0.913830 0.808750 -0.520235
O9    O     O_R   0.166530 0.411570 0.082490 -0.549199
O10   O     O_R   0.833470 0.911570 0.917510 -0.547925
C3    C     C_R   0.370828 0.385893 0.354194 0.730622
C4    C     C_R   0.628278 0.886159 0.647071 0.727762
O11   O     O_R   0.337460 0.588430 0.524740 -0.554383
O12   O     O_R   0.662540 0.088430 0.475260 -0.559801
O13   O     O_3   0.192230 0.499460 0.407330 -0.347926
O14   O     O_3   0.807770 0.999460 0.592670 -0.347379
V1    V     V_3+5 0.263080 0.500100 0.108540 1.562683
V2    V     V_3+5 0.736920 0.000100 0.891460 1.578349
O15   O     O_R   0.155290 0.412090 0.756570 -0.542322
O16   O     O_R   0.844710 0.912090 0.243430 -0.544186
C5    C     C_R   0.132709 0.383615 0.933861 0.698366
C6    C     C_R   0.867252 0.883521 0.066526 0.689213
O17   O     O_R   0.155290 0.586170 0.756550 -0.499099
O18   O     O_R   0.844710 0.086170 0.243450 -0.498455
C7    C     C_R   0.129548 0.612846 0.933491 0.717514
C8    C     C_R   0.870447 0.112810 0.066183 0.727295
V3    V     V_3+5 0.240910 0.499900 0.616030 1.550386
V4    V     V_3+5 0.759090 0.999900 0.383970 1.545808
O19   O     O_3   0.311760 0.500540 0.867100 -0.370147
O20   O     O_3   0.688240 0.000540 0.132900 -0.367210
C9    C     C_3   0.098215 0.757648 0.065302 -0.385433
C10   C     C_3   0.902040 0.257783 0.933028 -0.374045
H1    H     H_    0.118217 0.737550 0.204604 0.218312
H2    H     H_    0.882706 0.238001 0.793295 0.221915
H3    H     H_    0.163721 0.779511 0.973420 0.121438
H4    H     H_    0.836234 0.279217 0.023769 0.144457
C11   C     C_3   0.028928 0.831597 0.102789 -0.321308
C12   C     C_3   0.971334 0.331945 0.896176 -0.322144
H5    H     H_    0.061206 0.888522 0.028913 0.158508
H6    H     H_    0.938854 0.388551 0.969489 0.167371
H7    H     H_    0.014862 0.844886 0.260393 0.166213
H8    H     H_    0.985851 0.345814 0.738528 0.167555
H9    H     H_    0.971908 0.624920 0.222504 0.239534
H10   H     H_    0.028282 0.125861 0.778391 0.240684
H11   H     H_    0.879194 0.743817 0.290791 0.209966
H12   H     H_    0.121263 0.244615 0.710154 0.209706
C13   C     C_3   0.961525 0.656497 0.089902 -0.246048
C14   C     C_3   0.038500 0.156838 0.911085 -0.260982
C15   C     C_3   0.030381 0.717061 0.771071 0.364693
C16   C     C_3   0.969107 0.216581 0.228990 0.369416
C17   C     C_3   0.056219 0.683205 0.964725 -0.033752
C18   C     C_3   0.943724 0.183211 0.034941 -0.038986
H13   H     H_    0.095741 0.742520 0.684860 0.048241
H14   H     H_    0.903558 0.241613 0.314407 0.056280
C19   C     C_3   0.936327 0.811426 0.029159 -0.001074
C20   C     C_3   0.063605 0.311565 0.971240 0.000881
C21   C     C_3   0.894057 0.731863 0.133582 -0.293907
C22   C     C_3   0.106071 0.232329 0.867643 -0.298728
C23   C     C_3   0.960242 0.791201 0.809470 -0.355355
C24   C     C_3   0.039112 0.290968 0.190867 -0.359594
H15   H     H_    0.991584 0.847146 0.729394 0.109710
H16   H     H_    0.007442 0.346672 0.269831 0.113693
H17   H     H_    0.894036 0.778268 0.754477 0.210294
H18   H     H_    0.105111 0.278225 0.246939 0.207358
H19   H     H_    0.924752 0.608808 0.017642 0.206953
H20   H     H_    0.074893 0.108842 0.984081 0.198435
H21   H     H_    0.825877 0.717168 0.086828 0.188327
H22   H     H_    0.174048 0.217525 0.915318 0.170352
H23   H     H_    0.605639 0.774292 0.386610 0.209441
H24   H     H_    0.481203 0.343114 0.610398 0.206637
H25   H     H_    0.414362 0.713800 0.627645 0.140552
H26   H     H_    0.573686 0.199439 0.351885 0.189852
C25   C     C_2   0.453493 0.673682 0.339165 0.255851
C26   C     C_2   0.560789 0.185873 0.655495 0.261650
C27   C     C_2   0.466452 0.717856 0.497761 -0.196632
C28   C     C_2   0.542921 0.223726 0.491886 -0.214954
H27   H     H_    0.497702 0.822332 0.781068 0.181867
H28   H     H_    0.435391 0.270470 0.235344 0.251948
C29   C     C_2   0.552795 0.823531 0.656474 -0.248000
C30   C     C_2   0.435149 0.314905 0.348719 -0.238509
C31   C     C_2   0.547963 0.773239 0.505729 -0.018889
C32   C     C_2   0.484425 0.299473 0.491685 -0.038102
S1    S     S_3+6 0.536446 0.678074 0.122266 -0.015462
O21   O     O_2   0.558413 0.767446 0.069243 -0.352317
O22   O     O_2   0.625145 0.635931 0.156769 -0.333807
O23   O     O_3   0.497040 0.631600 0.936077 -0.489451
H29   H     H_    0.515296 0.572308 0.943092 0.356343
S2    S     S_3+6 0.505176 0.218853 0.884892 -0.059011
O24   O     O_2   0.559575 0.291544 0.943874 -0.343228
O25   O     O_2   0.406050 0.245534 0.878418 -0.365590
O26   O     O_3   0.503476 0.141864 0.049246 -0.514054
H30   H     H_    0.461436 0.098838 0.009191 0.330736
S3    S     S_3+6 0.989746 0.636317 0.623321 -0.068286
O27   O     O_2   0.897859 0.658147 0.562638 -0.365514
O28   O     O_2   0.064800 0.629522 0.450479 -0.377932
O29   O     O_3   0.978109 0.541698 0.729483 -0.528667
H31   H     H_    0.972572 0.502285 0.623612 0.350479
S4    S     S_3+6 0.009702 0.135725 0.378209 -0.078661
O30   O     O_2   0.101526 0.157697 0.438915 -0.379386
O31   O     O_2   0.934626 0.128590 0.551117 -0.375292
O32   O     O_3   0.021366 0.041275 0.273541 -0.533547
H32   H     H_    0.025843 0.001599 0.380362 0.346401

loop_
_geom_bond_atom_site_label_1
_geom_bond_atom_site_label_2
_ccdc_geom_bond_type
C20   C24   S    
C5    C20   S    
O26   H30   S    
O11   V3    S    
O13   V3    S    
S3    O27   D    
C15   C23   S    
O4    C2    A    
V1    O19   S    
S3    O29   S    
C11   H5    S    
S1    O21   D    
O9    V1    S    
C14   C18   S    
C10   C12   S    
C26   C28   D    
O3    C1    A    
C19   C21   S    
C27   C31   S    
O12   V4    S    
C11   C19   S    
C2    C26   S    
O7    V1    S    
C23   H15   S    
O7    C3    A    
C24   H16   S    
O13   V1    S    
O5    C7    A    
C25   S1    S    
O6    C8    A    
O8    V2    S    
C6    C19   S    
O3    V1    S    
O14   V4    S    
C22   H22   S    
O16   V4    S    
C15   H13   S    
C12   H6    S    
C2    O12   A    
C9    C17   S    
S4    O31   D    
C29   C31   D    
C16   C18   S    
H12   C22   S    
H23   C31   S    
S1    O22   D    
O17   V3    S    
C12   C20   S    
C24   H18   S    
H28   C30   S    
O8    C4    A    
H27   C29   S    
C8    C18   S    
C11   H7    S    
C1    O11   A    
O15   V3    S    
C3    C30   S    
C16   S4    S    
S4    O32   S    
C9    H3    S    
C15   C17   S    
C23   H17   S    
S2    O25   D    
H9    C13   S    
O10   V2    S    
O1    V3    S    
C9    C11   S    
C25   C27   D    
H24   C32   S    
C21   H21   S    
C10   C18   S    
C30   C32   D    
O15   C5    A    
O16   C6    A    
O1    C3    A    
S2    O26   S    
V2    O20   S    
S1    O23   S    
O10   C6    A    
S3    O28   D    
C13   H19   S    
C10   H4    S    
C1    C25   S    
C7    C17   S    
C19   C23   S    
O5    V1    S    
O17   C7    A    
O6    V2    S    
H10   C14   S    
O18   C8    A    
C13   C21   S    
O2    V4    S    
C14   C22   S    
V3    O19   S    
C16   C24   S    
V4    O20   S    
S2    O24   D    
C14   H20   S    
C13   C17   S    
O9    C5    A    
S4    O30   D    
C9    H1    S    
C10   H2    S    
O14   V2    S    
O2    C4    A    
H11   C21   S    
O4    V2    S    
C28   C32   S    
C12   H8    S    
O23   H29   S    
O29   H31   S    
H26   C28   S    
C26   S2    S    
O32   H32   S    
H25   C27   S    
C4    C29   S    
C20   C22   S    
C16   H14   S    
C15   S3    S    
O18   V4    S    
