data_mof_unit_29685.cif
_audit_creation_date              2012-12-10T18:59:57-0500
_audit_creation_method            fapswitch 2.2
_symmetry_space_group_name_H-M    P1
_symmetry_Int_Tables_number       1
_space_group_crystal_system       triclinic
_cell_length_a                    10.767533
_cell_length_b                    10.662342
_cell_length_c                    9.839373
_cell_angle_alpha                 89.521006
_cell_angle_beta                  91.453002
_cell_angle_gamma                 89.145253
_cell_volume                      1129.09804595

loop_
_atom_site_label
_atom_site_type_symbol
_atom_type_description
_atom_site_fract_x
_atom_site_fract_y
_atom_site_fract_z
_atom_type_partial_charge
C1    C     C_R   0.501545 0.260128 0.500403 0.949122
C2    C     C_R   0.496680 0.739859 0.499535 0.877761
C3    C     C_R   0.872537 0.501965 0.506102 -0.113509
C4    C     C_R   0.127315 0.498293 0.494161 -0.107679
C5    C     C_R   0.943516 0.469166 0.623928 0.022610
C6    C     C_R   0.056227 0.531221 0.376431 0.024307
C7    C     C_R   0.426445 0.068857 0.403494 -0.273858
C8    C     C_R   0.568529 0.931534 0.596024 -0.346680
C9    C     C_R   0.419110 0.940502 0.403650 0.457836
C10   C     C_R   0.572878 0.060893 0.597875 0.463751
C11   C     C_R   0.493092 0.872336 0.499477 -0.176391
C12   C     C_R   0.501070 0.127808 0.500813 -0.161695
C13   C     C_R   0.527081 0.606306 0.071669 -0.068732
C14   C     C_R   0.472986 0.393676 0.928336 -0.062397
C15   C     C_R   0.527207 0.606243 0.927941 -0.040177
C16   C     C_R   0.472884 0.393733 0.072064 -0.046781
C17   C     C_R   0.259843 0.500200 0.497831 0.861611
C18   C     C_R   0.740104 0.499929 0.502217 0.896849
C19   C     C_R   0.143437 0.719253 0.062638 0.016585
C20   C     C_R   0.861666 0.285807 0.942533 0.007485
C21   C     C_R   0.108586 0.691385 0.196560 0.333888
C22   C     C_R   0.891285 0.311392 0.806402 0.376485
C23   C     C_R   0.107412 0.564515 0.242130 -0.015627
C24   C     C_R   0.892224 0.437661 0.758756 -0.008209
C25   C     C_R   0.137710 0.467469 0.151470 0.077289
C26   C     C_R   0.863034 0.536018 0.848248 0.069537
C27   C     C_R   0.173522 0.497444 0.019268 -0.263942
C28   C     C_R   0.828780 0.507948 0.981461 -0.264031
C29   C     C_R   0.177922 0.621693 0.974294 0.443730
C30   C     C_R   0.826784 0.384438 0.029160 0.445840
C31   C     C_R   0.929368 0.534675 0.385261 -0.158649
C32   C     C_R   0.070463 0.466039 0.615241 -0.161756
H1    H     H_    0.549789 0.691208 0.873852 0.124897
H2    H     H_    0.450312 0.308766 0.126154 0.128186
H3    H     H_    0.197251 0.423247 0.949644 0.157460
H4    H     H_    0.805107 0.583102 0.049931 0.158895
H5    H     H_    0.874865 0.563751 0.296017 0.195046
H6    H     H_    0.124995 0.438156 0.704914 0.190140
H7    H     H_    0.370081 0.122998 0.330529 0.173287
H8    H     H_    0.625512 0.876915 0.667996 0.149420
H9    H     H_    0.549350 0.691321 0.125553 0.144058
H10   H     H_    0.450707 0.308660 0.874456 0.145343
N1    N     N_R   0.499970 0.499970 0.857200 -0.068100
N2    N     N_R   0.500030 0.500030 0.142800 -0.068354
O1    O     O_R   0.499990 0.316750 0.614620 -0.586642
O2    O     O_R   0.500010 0.683250 0.385380 -0.627393
O3    O     O_R   0.499990 0.316780 0.385290 -0.642556
O4    O     O_R   0.500010 0.683220 0.614710 -0.622987
O5    O     O_R   0.316760 0.500000 0.614660 -0.580076
O6    O     O_R   0.683240 0.500000 0.385340 -0.575961
O7    O     O_R   0.316760 0.500020 0.385330 -0.640483
O8    O     O_R   0.683240 0.499980 0.614670 -0.626343
Zn1   Zn    Zn3+2 0.500000 0.499980 0.653120 0.987067
Zn2   Zn    Zn3+2 0.500000 0.500020 0.346880 0.968288
O9    O     O_3   0.214597 0.643124 0.842755 -0.747261
H11   H     H_    0.216477 0.734340 0.823889 0.355968
O10   O     O_3   0.792094 0.364678 0.161650 -0.746171
H12   H     H_    0.789491 0.273709 0.181649 0.359158
N3    N     N_3   0.141534 0.846844 0.015255 -0.463124
H13   H     H_    0.051358 0.883030 0.024298 0.217813
H14   H     H_    0.200981 0.898650 0.077975 0.262166
N4    N     N_3   0.871133 0.159935 0.994686 -0.460017
H15   H     H_    0.961880 0.126840 0.981282 0.217759
H16   H     H_    0.810739 0.103632 0.938454 0.214731
O11   O     O_3   0.073269 0.790567 0.277549 -0.757401
H17   H     H_    0.066525 0.762120 0.372932 0.342241
O12   O     O_3   0.922540 0.210915 0.725361 -0.761257
H18   H     H_    0.924486 0.238138 0.629120 0.351809
N5    N     N_3   0.127060 0.338433 0.192801 -0.413765
H19   H     H_    0.199808 0.317775 0.262014 0.196179
H20   H     H_    0.139104 0.278998 0.110013 0.174384
N6    N     N_3   0.873056 0.664461 0.804553 -0.420138
H21   H     H_    0.798822 0.684379 0.737014 0.192680
H22   H     H_    0.863140 0.725028 0.886752 0.172008
O13   O     O_3   0.337610 0.886552 0.311700 -0.758783
H23   H     H_    0.312740 0.803943 0.347373 0.347840
O14   O     O_3   0.648358 0.123311 0.689684 -0.747472
H24   H     H_    0.692864 0.060702 0.748612 0.332892

loop_
_geom_bond_atom_site_label_1
_geom_bond_atom_site_label_2
_ccdc_geom_bond_type
O9    H11   S    
C27   C29   A    
C26   N6    S    
C17   O7    A    
C13   H9    S    
C18   O8    A    
C20   C30   A    
O14   H24   S    
C2    O2    A    
C2    O4    A    
O6    Zn2   S    
C19   C21   A    
C24   C26   A    
C30   O10   S    
C3    C18   S    
N5    H20   S    
N4    H16   S    
C16   H2    S    
N1    Zn1   S    
C32   H6    S    
C16   N2    A    
C14   H10   S    
C5    C32   A    
C6    C31   A    
O1    Zn1   S    
N3    H13   S    
C7    C12   A    
C1    C12   S    
C2    C11   S    
C10   O14   S    
O4    Zn1   S    
N3    H14   S    
O12   H18   S    
C4    C6    A    
C17   O5    A    
C1    O3    A    
C29   O9    S    
C19   N3    S    
C31   H5    S    
O13   H23   S    
N4    H15   S    
O2    Zn2   S    
C3    C31   A    
C9    C11   A    
C4    C32   A    
C10   C12   A    
O3    Zn2   S    
C4    C17   S    
N6    H22   S    
C20   C22   A    
C13   C15   A    
C22   C24   A    
C25   N5    S    
C19   C29   A    
O8    Zn1   S    
C18   O6    A    
C7    C9    A    
C21   O11   S    
N6    H21   S    
C3    C5    A    
C25   C27   A    
C8    H8    S    
C26   C28   A    
O7    Zn2   S    
C27   H3    S    
C21   C23   A    
C15   N1    A    
C1    O1    A    
O10   H12   S    
C5    C24   S    
C8    C11   A    
O5    Zn1   S    
C6    C23   S    
C28   C30   A    
C14   C16   A    
C23   C25   A    
C20   N4    S    
N5    H19   S    
C22   O12   S    
N2    Zn2   S    
C28   H4    S    
C8    C10   A    
O11   H17   S    
C7    H7    S    
C9    O13   S    
C15   H1    S    
C13   N2    A    
C14   N1    A    
