data_mof_unit_33937.cif
_audit_creation_date              2012-10-26T20:43:00-0400
_audit_creation_method            fapswitch 2.2
_symmetry_space_group_name_H-M    P1
_symmetry_Int_Tables_number       1
_space_group_crystal_system       triclinic
_cell_length_a                    10.831691
_cell_length_b                    9.511357
_cell_length_c                    15.089508
_cell_angle_alpha                 89.642452
_cell_angle_beta                  90.252312
_cell_angle_gamma                 89.957711
_cell_volume                      1554.53688127

loop_
_atom_site_label
_atom_site_type_symbol
_atom_type_description
_atom_site_fract_x
_atom_site_fract_y
_atom_site_fract_z
_atom_type_partial_charge
C1    C     C_R   0.262041 0.500030 0.499922 0.568867
C2    C     C_R   0.128211 0.500034 0.499954 0.036072
C3    C     C_R   0.423736 0.075048 0.444415 0.027713
C4    C     C_R   0.576264 0.924952 0.555585 0.027713
C5    C     C_R   0.576226 0.073843 0.555608 0.036398
C6    C     C_R   0.423774 0.926157 0.444392 0.036398
C7    C     C_R   0.503644 0.500558 0.328824 0.572842
C8    C     C_R   0.496356 0.499442 0.671176 0.572842
C9    C     C_R   0.558929 0.600455 0.812828 -0.148501
C10   C     C_R   0.441071 0.399545 0.187171 -0.148501
C11   C     C_R   0.491294 0.498126 0.767876 -0.022810
C12   C     C_R   0.737959 0.499970 0.500078 0.568867
C13   C     C_R   0.508706 0.501874 0.232124 -0.022811
C14   C     C_R   0.423966 0.394619 0.815094 0.042821
C15   C     C_R   0.576034 0.605381 0.184906 0.042821
C16   C     C_R   0.427205 0.395097 0.908807 -0.005506
C17   C     C_R   0.572795 0.604902 0.091193 -0.005506
C18   C     C_R   0.497768 0.498849 0.953319 0.046043
C19   C     C_R   0.502232 0.501151 0.046681 0.046043
C20   C     C_R   0.563488 0.600996 0.904747 0.014088
C21   C     C_R   0.436512 0.399004 0.095253 0.014088
C22   C     C_R   0.360185 0.296565 0.959465 -0.108772
C23   C     C_R   0.365725 0.298050 0.051446 -0.122760
C24   C     C_R   0.639815 0.703435 0.040535 -0.108772
C25   C     C_2   0.347638 0.290704 0.766237 0.576924
C26   C     C_2   0.652362 0.709296 0.233763 0.576924
C27   C     C_R   0.634275 0.701950 0.948554 -0.122760
C28   C     C_R   0.063964 0.372262 0.501902 -0.129133
C29   C     C_R   0.936036 0.627738 0.498098 -0.129133
C30   C     C_R   0.936254 0.372230 0.501963 -0.129593
C31   C     C_R   0.063746 0.627770 0.498037 -0.129593
C32   C     C_R   0.871789 0.499966 0.500046 0.036072
Cu1   Cu    Cu3+1 0.500000 0.640660 0.500000 0.983323
Cu2   Cu    Cu3+1 0.500000 0.359340 0.500000 0.983323
H1    H     H_    0.610876 0.678431 0.775727 0.124577
H2    H     H_    0.111703 0.727650 0.496420 0.128768
H3    H     H_    0.362639 0.131705 0.399917 0.104405
H4    H     H_    0.637361 0.868295 0.600083 0.104405
H5    H     H_    0.637260 0.129542 0.600133 0.112751
H6    H     H_    0.362740 0.870458 0.399867 0.112751
H7    H     H_    0.210631 0.257639 0.677868 0.335051
H8    H     H_    0.789369 0.742361 0.322132 0.335051
H9    H     H_    0.389124 0.321569 0.224273 0.124577
H10   H     H_    0.302412 0.217693 0.929023 0.161027
H11   H     H_    0.697587 0.782307 0.070977 0.161027
H12   H     H_    0.313824 0.220181 0.088491 0.120200
H13   H     H_    0.686176 0.779819 0.911509 0.120200
H14   H     H_    0.112096 0.272394 0.503463 0.124697
H15   H     H_    0.887904 0.727606 0.496537 0.124697
H16   H     H_    0.888297 0.272349 0.503580 0.128768
N1    N     N_R   0.500000 0.852070 0.500000 -0.226789
N2    N     N_R   0.500000 0.147930 0.500000 -0.226789
O1    O     O_R   0.319640 0.618740 0.499990 -0.514038
O2    O     O_R   0.255080 0.337775 0.708387 -0.687384
O3    O     O_2   0.632334 0.835168 0.224909 -0.529844
O4    O     O_R   0.744919 0.662225 0.291613 -0.687384
O5    O     O_R   0.680360 0.381260 0.500010 -0.514038
O6    O     O_R   0.680360 0.618740 0.500010 -0.505299
O7    O     O_R   0.319640 0.381260 0.499990 -0.505299
O8    O     O_R   0.499970 0.618800 0.370260 -0.479762
O9    O     O_R   0.500030 0.381200 0.629740 -0.479762
O10   O     O_R   0.500030 0.618800 0.629740 -0.506376
O11   O     O_R   0.499970 0.381200 0.370260 -0.506375
O12   O     O_2   0.367666 0.164832 0.775091 -0.529844

loop_
_geom_bond_atom_site_label_1
_geom_bond_atom_site_label_2
_ccdc_geom_bond_type
Cu2   O5    S    
C16   C22   A    
C3    N2    A    
C5    N2    A    
Cu1   O6    S    
C20   C27   A    
C6    N1    A    
Cu1   N1    S    
C2    C31   A    
C9    C20   A    
Cu2   N2    S    
C24   C27   A    
C8    O9    A    
C3    C6    A    
C12   O6    A    
C26   O3    D    
C13   C15   A    
Cu1   Cu2   S    
C30   H16   S    
C29   C31   A    
C23   H12   S    
C29   H15   S    
C14   C25   S    
C12   C32   S    
C30   C32   A    
Cu1   O8    S    
C9    C11   A    
C7    O11   A    
C8    C11   S    
C24   H11   S    
C28   C30   A    
Cu2   O11   S    
C17   C19   A    
C4    H4    S    
C1    C2    S    
C29   C32   A    
C18   C20   A    
C1    O7    A    
C10   C21   A    
Cu1   O1    S    
Cu2   O7    S    
C11   C14   A    
C14   C16   A    
H7    O2    S    
C17   C24   A    
C12   O5    A    
C4    N1    A    
C9    H1    S    
C7    O8    A    
C7    C13   S    
C6    H6    S    
C25   O2    S    
C3    H3    S    
C16   C18   A    
C18   C19   A    
C27   H13   S    
C15   C17   A    
C5    H5    S    
C1    O1    A    
C31   H2    S    
C28   H14   S    
C15   C26   S    
C2    C28   A    
H8    O4    S    
C10   H9    S    
C22   C23   A    
Cu1   O10   S    
C21   C23   A    
C10   C13   A    
Cu2   O9    S    
C22   H10   S    
C8    O10   A    
C4    C5    A    
C19   C21   A    
C25   O12   D    
C26   O4    S    
