data_mof_unit_32437.cif
_audit_creation_date              2012-12-11T14:36:05-0500
_audit_creation_method            fapswitch 2.2
_symmetry_space_group_name_H-M    P1
_symmetry_Int_Tables_number       1
_space_group_crystal_system       triclinic
_cell_length_a                    14.681069
_cell_length_b                    15.84923
_cell_length_c                    6.914851
_cell_angle_alpha                 90.000591
_cell_angle_beta                  81.083269
_cell_angle_gamma                 89.999839
_cell_volume                      1589.52769151

loop_
_atom_site_label
_atom_site_type_symbol
_atom_type_description
_atom_site_fract_x
_atom_site_fract_y
_atom_site_fract_z
_atom_type_partial_charge
O1    O     O_R   0.337460 0.413110 0.524760 -0.536737
O2    O     O_R   0.662540 0.913110 0.475240 -0.536743
O3    O     O_R   0.348690 0.587910 0.191230 -0.547356
O4    O     O_R   0.651310 0.087910 0.808770 -0.547355
O5    O     O_R   0.166530 0.586890 0.082470 -0.542047
O6    O     O_R   0.833470 0.086890 0.917530 -0.542048
C1    C     C_R   0.369014 0.617910 0.353865 0.748816
C2    C     C_R   0.630986 0.117911 0.646135 0.748817
O7    O     O_R   0.348700 0.413830 0.191250 -0.543307
O8    O     O_R   0.651300 0.913830 0.808750 -0.543299
O9    O     O_R   0.166530 0.411570 0.082490 -0.543635
O10   O     O_R   0.833470 0.911570 0.917510 -0.543633
C3    C     C_R   0.371534 0.385738 0.353268 0.760323
C4    C     C_R   0.628465 0.885740 0.646732 0.760334
O11   O     O_R   0.337460 0.588430 0.524740 -0.539532
O12   O     O_R   0.662540 0.088430 0.475260 -0.539532
O13   O     O_3   0.192230 0.499460 0.407330 -0.376266
O14   O     O_3   0.807770 0.999460 0.592670 -0.376268
V1    V     V_3+5 0.263080 0.500100 0.108540 1.384958
V2    V     V_3+5 0.736920 0.000100 0.891460 1.384971
O15   O     O_R   0.155290 0.412090 0.756570 -0.543609
O16   O     O_R   0.844710 0.912090 0.243430 -0.543612
C5    C     C_R   0.133805 0.381922 0.932518 0.668334
C6    C     C_R   0.866195 0.881922 0.067480 0.668345
O17   O     O_R   0.155290 0.586170 0.756550 -0.544219
O18   O     O_R   0.844710 0.086170 0.243450 -0.544219
C7    C     C_R   0.133715 0.616259 0.932808 0.659510
C8    C     C_R   0.866283 0.116261 0.067195 0.659504
V3    V     V_3+5 0.240910 0.499900 0.616030 1.386274
V4    V     V_3+5 0.759090 0.999900 0.383970 1.386266
O19   O     O_3   0.311760 0.500540 0.867100 -0.366854
O20   O     O_3   0.688240 0.000540 0.132900 -0.366854
C9    C     C_3   0.040558 0.710061 0.190057 -0.310235
C10   C     C_3   0.959426 0.210072 0.809948 -0.310233
H1    H     H_    0.012886 0.654007 0.276512 0.131371
H2    H     H_    0.987088 0.154020 0.723471 0.131373
H3    H     H_    0.105066 0.728850 0.244724 0.136169
H4    H     H_    0.894912 0.228865 0.755306 0.136161
C11   C     C_3   0.970533 0.783479 0.226359 -0.320851
C12   C     C_3   0.029451 0.283490 0.773644 -0.320855
H5    H     H_    0.911994 0.766310 0.340947 0.132194
H6    H     H_    0.087982 0.266321 0.659036 0.132211
H7    H     H_    0.946753 0.600183 0.975938 0.122422
H8    H     H_    0.053240 0.100176 0.024055 0.122412
C13   C     C_3   0.971598 0.659506 0.899445 -0.342303
C14   C     C_3   0.028404 0.159505 0.100536 -0.342284
C15   C     C_3   0.097238 0.768334 0.854916 -0.327594
C16   C     C_3   0.902765 0.268334 0.145115 -0.327606
C17   C     C_3   0.062535 0.686975 0.968415 0.098845
C18   C     C_3   0.937462 0.186977 0.031589 0.098851
H9    H     H_    0.112263 0.754842 0.695188 0.137050
H10   H     H_    0.887744 0.254837 0.304840 0.137049
H11   H     H_    0.162780 0.789641 0.901220 0.129185
H12   H     H_    0.837222 0.289648 0.098826 0.129187
C19   C     C_3   0.936609 0.810237 0.033091 0.079328
C20   C     C_3   0.063390 0.310237 0.966906 0.079329
C21   C     C_3   0.898025 0.731420 0.933025 -0.087929
C22   C     C_3   0.101985 0.231413 0.066925 -0.087938
C23   C     C_3   0.024133 0.840223 0.892628 -0.349914
C24   C     C_3   0.975874 0.340220 0.107409 -0.349891
H13   H     H_    0.054993 0.895882 0.956296 0.130015
H14   H     H_    0.945013 0.395887 0.043778 0.130007
H15   H     H_    0.985136 0.643601 0.740697 0.128129
H16   H     H_    0.014873 0.143608 0.259290 0.128123
H17   H     H_    0.888622 0.753042 0.783916 0.098941
H18   H     H_    0.111413 0.253027 0.216027 0.098933
H19   H     H_    0.560783 0.810944 0.351605 0.164267
H20   H     H_    0.439228 0.310955 0.648395 0.164256
H21   H     H_    0.435912 0.693197 0.649649 0.152199
H22   H     H_    0.564081 0.193190 0.350353 0.152202
C25   C     C_2   0.434620 0.688566 0.344304 -0.352169
C26   C     C_2   0.565383 0.188569 0.655697 -0.352176
C27   C     C_2   0.462580 0.719282 0.506637 -0.133249
C28   C     C_2   0.537419 0.219282 0.493365 -0.133246
H23   H     H_    0.527886 0.795430 0.801018 0.123429
H24   H     H_    0.472102 0.295417 0.198981 0.123413
C29   C     C_2   0.558065 0.819043 0.657821 -0.358077
C30   C     C_2   0.441931 0.319038 0.342178 -0.358068
C31   C     C_2   0.531217 0.787333 0.495331 -0.115106
C32   C     C_2   0.468785 0.287336 0.504669 -0.115073
H25   H     H_    0.461216 0.715305 0.202034 0.127666
H26   H     H_    0.538792 0.215313 0.797966 0.127647
H27   H     H_    0.005128 0.861000 0.750390 0.138859
H28   H     H_    0.994891 0.360984 0.249649 0.138866
H29   H     H_    0.004614 0.838159 0.286687 0.138384
H30   H     H_    0.995365 0.338174 0.713345 0.138381
C33   C     C_R   0.804884 0.697476 0.031473 0.086796
C34   C     C_R   0.795630 0.651165 0.207820 -0.134845
C35   C     C_R   0.713128 0.610166 0.279561 -0.124461
C36   C     C_R   0.639221 0.613475 0.175402 -0.078652
C37   C     C_R   0.646302 0.660471 0.003053 -0.132908
C38   C     C_R   0.728263 0.702671 0.931933 -0.131649
H31   H     H_    0.853186 0.641892 0.285059 0.101027
H32   H     H_    0.707565 0.573436 0.412864 0.109233
H33   H     H_    0.576866 0.578676 0.227324 0.107178
H34   H     H_    0.588903 0.662578 0.922130 0.106474
H35   H     H_    0.732927 0.736589 0.794828 0.096102
C39   C     C_R   0.195114 0.197464 0.968402 0.086799
C40   C     C_R   0.204332 0.151141 0.792072 -0.134832
C41   C     C_R   0.286825 0.110137 0.720269 -0.124492
C42   C     C_R   0.360761 0.113459 0.824340 -0.078592
C43   C     C_R   0.353720 0.160473 0.996660 -0.132867
C44   C     C_R   0.271765 0.202673 0.067849 -0.131692
H36   H     H_    0.146755 0.141865 0.714894 0.101029
H37   H     H_    0.292358 0.073394 0.586986 0.109229
H38   H     H_    0.423111 0.078658 0.772370 0.107172
H39   H     H_    0.411144 0.162594 0.077508 0.106440
H40   H     H_    0.267132 0.236605 0.204933 0.096126

loop_
_geom_bond_atom_site_label_1
_geom_bond_atom_site_label_2
_ccdc_geom_bond_type
H20   C32   S    
C33   C34   A    
C42   C43   A    
O11   V3    S    
C19   C23   S    
O13   V3    S    
C22   C39   S    
O4    C2    A    
V1    O19   S    
C5    C20   S    
C15   C17   S    
C6    C19   S    
C16   H12   S    
O9    V1    S    
C41   H37   S    
C9    C11   S    
C10   C12   S    
C23   H27   S    
O3    C1    A    
C1    C25   S    
C30   C32   D    
C9    C17   S    
C39   C44   A    
C24   H14   S    
C4    C29   S    
C12   H30   S    
C35   H32   S    
O7    C3    A    
O13   V1    S    
C37   H34   S    
O5    C7    A    
C8    C18   S    
O7    V1    S    
O6    C8    A    
O8    V2    S    
C12   C20   S    
H22   C28   S    
O3    V1    S    
C44   H40   S    
O14   V4    S    
C10   H2    S    
C15   H11   S    
C16   C18   S    
C40   H36   S    
C2    O12   A    
C28   C32   S    
C33   C38   A    
C14   C22   S    
H8    C14   S    
C38   H35   S    
C16   C24   S    
C29   C31   D    
O17   V3    S    
C11   C19   S    
C23   H13   S    
C10   C18   S    
C36   H33   S    
H19   C31   S    
C26   C28   D    
O8    C4    A    
C21   H17   S    
C37   C38   A    
C25   C27   D    
C15   H9    S    
C1    O11   A    
O15   V3    S    
C13   H15   S    
C9    H3    S    
C21   C33   S    
C14   H16   S    
H23   C29   S    
C40   C41   A    
C13   C17   S    
C13   C21   S    
O10   V2    S    
O1    V3    S    
C27   C31   S    
C43   H39   S    
H21   C27   S    
H7    C13   S    
O18   V4    S    
O15   C5    A    
O16   C6    A    
O1    C3    A    
C11   H29   S    
C22   H18   S    
V2    O20   S    
C42   H38   S    
C14   C18   S    
C34   H31   S    
O16   V4    S    
C10   H4    S    
C2    C26   S    
H24   C30   S    
C12   H6    S    
O5    V1    S    
O17   C7    A    
O6    V2    S    
O10   C6    A    
O18   C8    A    
O2    V4    S    
C19   C21   S    
V3    O19   S    
V4    O20   S    
C24   H28   S    
C36   C37   A    
O9    C5    A    
C41   C42   A    
C9    H1    S    
C20   C22   S    
O14   V2    S    
C43   C44   A    
O2    C4    A    
C3    C30   S    
C15   C23   S    
O4    V2    S    
C20   C24   S    
C16   H10   S    
C34   C35   A    
C11   H5    S    
C39   C40   A    
C35   C36   A    
O12   V4    S    
C26   H26   S    
C7    C17   S    
C25   H25   S    
