data_mof_unit_46970.cif
_audit_creation_date              2013-03-05T16:04:53-0500
_audit_creation_method            fapswitch 2.2
_symmetry_space_group_name_H-M    P1
_symmetry_Int_Tables_number       1
_space_group_crystal_system       triclinic
_cell_length_a                    8.401352
_cell_length_b                    14.298894
_cell_length_c                    18.841938
_cell_angle_alpha                 97.786978
_cell_angle_beta                  91.528773
_cell_angle_gamma                 91.685305
_cell_volume                      2240.5656189

loop_
_atom_site_label
_atom_site_type_symbol
_atom_site_description
_atom_site_fract_x
_atom_site_fract_y
_atom_site_fract_z
_atom_type_partial_charge
P1    P     P_3+3 0.061800 0.409390 0.339760 0.551976
O1    O     O_2   0.887710 0.436190 0.327560 -0.325333
O2    O     O_3   0.135370 0.443490 0.416520 -0.305622
O3    O     O_3   0.634420 0.609440 0.364670 -0.397101
O4    O     O_2   0.724771 0.553885 0.234685 -0.352913
O5    O     O_3   0.094603 0.290473 0.298588 -0.627965
O6    O     O_3   0.655665 0.730529 0.257408 -0.535236
H1    H     H_    0.663549 0.788248 0.364248 0.141495
C1    C     C_3   0.636445 0.894885 0.295696 -0.879771
H2    H     H_    0.608312 0.947221 0.342163 0.207199
H3    H     H_    0.764571 0.903521 0.284320 0.291519
P2    P     P_3+3 0.622760 0.718740 0.547830 0.462143
P3    P     P_3+3 0.067431 0.781909 0.398399 0.496993
O7    O     O_2   0.795290 0.730930 0.525800 -0.308287
O8    O     O_3   0.044470 0.660110 0.398750 -0.393756
O9    O     O_2   0.933312 0.829048 0.443461 -0.330561
O10   O     O_3   0.640186 0.748236 0.640781 -0.592231
O11   O     O_3   0.022949 0.809933 0.312649 -0.518241
C2    C     C_3   0.083004 0.740430 0.261583 0.430100
H4    H     H_    0.023030 0.670792 0.264510 0.131826
H5    H     H_    0.213834 0.736171 0.269477 0.016648
C3    C     C_3   0.049389 0.766521 0.187143 -0.872337
H6    H     H_    0.919028 0.770736 0.177397 0.277404
H7    H     H_    0.107762 0.835816 0.182072 0.286293
C4    C     C_3   0.220999 0.762374 0.637763 0.840626
H8    H     H_    0.291212 0.714616 0.600100 0.028135
C5    C     C_3   0.335223 0.829489 0.686466 -0.773320
H9    H     H_    0.405698 0.786014 0.718950 0.189626
H10   H     H_    0.416197 0.864723 0.652215 0.148924
Ba1   Ba    Ba6+2 0.843240 0.541620 0.463500 1.627903
C6    C     C_3   0.004876 0.205825 0.306351 0.124516
C7    C     C_3   0.069934 0.124593 0.249979 -0.709762
H11   H     H_    0.095158 0.155001 0.200011 0.197822
H12   H     H_    0.978373 0.067914 0.232623 0.176749
C8    C     C_3   0.709851 0.674645 0.671116 0.301502
H13   H     H_    0.831986 0.665443 0.652248 0.139920
H14   H     H_    0.639086 0.607470 0.656829 0.141374
C9    C     C_3   0.712437 0.697755 0.752623 -0.930226
H15   H     H_    0.755998 0.637615 0.777500 0.194636
H16   H     H_    0.589149 0.706659 0.769589 0.243344
P4    P     P_3+3 0.127890 0.590690 0.660240 0.465862
O12   O     O_2   0.301980 0.563840 0.672490 -0.391164
O13   O     O_3   0.054330 0.556590 0.583490 -0.381748
O14   O     O_3   0.555270 0.390630 0.635330 -0.347787
O15   O     O_3   0.123683 0.714171 0.680661 -0.588862
P5    P     P_3+3 0.121670 0.218800 0.605575 0.541719
O16   O     O_3   0.637720 0.384870 0.467990 -0.377061
O17   O     O_3   0.145220 0.339960 0.601250 -0.365340
O18   O     O_2   0.246665 0.169760 0.556215 -0.305414
O19   O     O_3   0.178540 0.196138 0.691553 -0.488180
Ba2   Ba    Ba6+2 0.346570 0.458460 0.536510 1.609692
P6    P     P_3+3 0.599549 0.617158 0.274172 0.465323
C10   C     C_3   0.600748 0.795911 0.312839 0.448005
H17   H     H_    0.470030 0.787060 0.318264 0.001919
H18   H     H_    0.563723 0.908126 0.248207 0.273985
O20   O     O_3   0.551980 0.615210 0.532020 -0.412778
C11   C     C_3   0.450367 0.277092 0.322205 0.447667
H19   H     H_    0.335726 0.264561 0.346224 0.152010
C12   C     C_3   0.436789 0.239333 0.241325 -0.909932
H20   H     H_    0.454652 0.162509 0.231465 0.305819
H21   H     H_    0.319403 0.255246 0.218767 0.209287
H22   H     H_    0.524392 0.272334 0.208795 0.273928
P7    P     P_3+3 0.572757 0.265580 0.450785 0.474672
O21   O     O_2   0.394410 0.269100 0.474240 -0.305080
O22   O     O_3   0.565122 0.229088 0.357844 -0.576161
H23   H     H_    0.096385 0.712345 0.145973 0.214906
C13   C     C_3   0.139991 0.274179 0.741113 0.462427
H24   H     H_    0.214806 0.337125 0.733503 0.157156
H25   H     H_    0.012543 0.290924 0.735385 0.003396
C14   C     C_3   0.171524 0.252105 0.816925 -0.925683
H26   H     H_    0.299500 0.238789 0.825540 0.291553
H27   H     H_    0.137797 0.312736 0.856295 0.212242
H28   H     H_    0.100885 0.188313 0.826099 0.261138
P8    P     P_3+3 0.580195 0.404164 0.728531 0.452063
C15   C     C_3   0.656484 0.229982 0.735873 0.431584
H29   H     H_    0.745244 0.256547 0.699918 -0.034695
O23   O     O_2   0.446883 0.468325 0.759832 -0.404101
O24   O     O_3   0.535957 0.294395 0.756365 -0.546815
H30   H     H_    0.828204 0.147741 0.788237 0.263639
C16   C     C_3   0.745299 0.205875 0.802771 -0.973485
H31   H     H_    0.659759 0.184356 0.842008 0.288570
H32   H     H_    0.818334 0.267215 0.828427 0.238854
C17   C     C_R   0.996972 0.470950 0.050588 0.009078
C18   C     C_R   0.905943 0.427326 0.099138 0.103272
C19   C     C_R   0.755362 0.386823 0.076968 -0.131740
C20   C     C_R   0.696153 0.389363 0.007215 -0.193345
C21   C     C_R   0.787722 0.430649 0.957727 0.124943
C22   C     C_R   0.939145 0.471116 0.979077 0.018581
C23   C     C_R   0.730270 0.431081 0.887238 -0.241599
C24   C     C_R   0.826734 0.464510 0.835108 -0.020091
C25   C     C_R   0.976527 0.508959 0.856856 0.001075
C26   C     C_R   0.030505 0.513664 0.929571 0.021203
C27   C     C_R   0.778680 0.453728 0.761768 0.191520
C28   C     C_R   0.881555 0.483123 0.711212 -0.549755
C29   C     C_R   0.022705 0.535232 0.731905 0.250942
C30   C     C_R   0.070215 0.550558 0.806626 -0.055225
C31   C     C_R   0.143527 0.516084 0.073974 0.003470
C32   C     C_R   0.198187 0.519011 0.146787 0.000192
C33   C     C_R   0.106468 0.474189 0.196429 -0.090538
C34   C     C_R   0.963271 0.427215 0.169830 -0.127533
H33   H     H_    0.682330 0.354103 0.113915 0.154692
H34   H     H_    0.579133 0.358123 0.991760 0.141849
H35   H     H_    0.844247 0.472288 0.655206 0.174759
H36   H     H_    0.612669 0.400594 0.872990 0.190986
H37   H     H_    0.887962 0.395968 0.204583 0.234388
C35   C     C_R   0.205181 0.607403 0.833586 -0.012553
C36   C     C_R   0.256873 0.614237 0.906501 -0.033170
C37   C     C_R   0.174337 0.562055 0.953354 -0.030803
C38   C     C_R   0.230982 0.562817 0.025397 0.019562
C39   C     C_R   0.388011 0.673127 0.934749 0.464110
C40   C     C_R   0.449298 0.668553 0.003994 -0.248323
C41   C     C_R   0.372914 0.612902 0.049380 0.048885
C42   C     C_R   0.344019 0.567319 0.169514 -0.030964
C43   C     C_R   0.431005 0.612304 0.119875 -0.182670
C44   C     C_R   0.393553 0.574748 0.242304 0.198756
C45   C     C_R   0.288339 0.543998 0.292281 -0.498811
C46   C     C_R   0.155571 0.483262 0.271278 0.273108
H38   H     H_    0.272125 0.645495 0.797961 0.180335
H39   H     H_    0.552266 0.712879 0.023772 0.182883
H40   H     H_    0.540544 0.651669 0.136335 0.181502
H41   H     H_    0.313779 0.565420 0.348355 0.173771
C47   C     C_R   0.693407 0.939471 0.542389 -0.119150
C48   C     C_R   0.508599 0.801708 0.501529 0.207837
C49   C     C_R   0.367222 0.766878 0.464743 -0.484467
C50   C     C_R   0.263325 0.827609 0.436289 0.300729
C51   C     C_R   0.304726 0.923162 0.440811 -0.265811
C52   C     C_R   0.450011 0.958886 0.473819 0.055283
C53   C     C_R   0.552396 0.899192 0.506284 -0.044879
H42   H     H_    0.333199 0.692844 0.461788 0.169232
C54   C     C_R   0.637542 0.092722 0.505755 0.045118
C55   C     C_R   0.737622 0.035087 0.541522 0.087811
C56   C     C_R   0.682745 0.188463 0.504189 0.200592
C57   C     C_R   0.821808 0.226350 0.540440 -0.384348
C58   C     C_R   0.923394 0.169498 0.573988 0.181371
C59   C     C_R   0.880952 0.074074 0.575428 -0.308312
C60   C     C_R   0.492635 0.054121 0.474793 -0.136138
H43   H     H_    0.222952 0.969344 0.418715 0.193142
H44   H     H_    0.961174 0.030204 0.601195 0.216270
H45   H     H_    0.856657 0.299441 0.538526 0.174997
H46   H     H_    0.770139 0.897791 0.571440 0.218788
H47   H     H_    0.409720 0.098219 0.452223 0.207441
C61   C     C_2   0.259447 0.904351 0.737948 1.265599
O25   O     O_2   0.344394 0.954139 0.782391 -0.588497
O26   O     O_R   0.095567 0.918112 0.735390 -0.713428
H48   H     H_    0.062635 0.971966 0.772184 0.341522
C62   C     C_2   0.834057 0.207921 0.281425 1.021532
O27   O     O_2   0.787321 0.275403 0.255816 -0.600772
O28   O     O_R   0.732712 0.127383 0.276627 -0.768401
H49   H     H_    0.772547 0.076405 0.303995 0.312573
C63   C     C_2   0.018005 0.182386 0.381984 0.903762
O29   O     O_2   0.068725 0.241870 0.430561 -0.574422
O30   O     O_R   0.980003 0.090795 0.395668 -0.839920
H50   H     H_    0.011763 0.080204 0.445965 0.338638
C64   C     C_2   0.211903 0.069895 0.267885 1.148959
O31   O     O_2   0.256399 0.007109 0.222822 -0.647931
O32   O     O_R   0.294839 0.089545 0.333059 -0.815154
H51   H     H_    0.394364 0.051348 0.333394 0.316550
C65   C     C_2   0.814098 0.784111 0.780446 1.374640
O33   O     O_2   0.939961 0.775051 0.812283 -0.588902
O34   O     O_R   0.765109 0.874856 0.772973 -0.703747
H52   H     H_    0.655007 0.875109 0.750095 0.340152
C66   C     C_2   0.488533 0.379940 0.332091 0.945026
O35   O     O_2   0.582990 0.413914 0.294248 -0.569124
O36   O     O_R   0.424801 0.434654 0.389875 -0.763711
H53   H     H_    0.487398 0.494896 0.406602 0.367242
C67   C     C_2   0.579358 0.142611 0.694720 1.026320
O37   O     O_2   0.491960 0.150028 0.643330 -0.586475
O38   O     O_R   0.609205 0.053353 0.713366 -0.766245
H54   H     H_    0.556039 0.001193 0.678425 0.318514
Cl1   Cl    Cl    0.463898 0.764521 0.890683 -0.669938
Cl2   Cl    Cl    0.098273 0.829196 0.586979 -0.645757

loop_
_geom_bond_atom_site_label_1
_geom_bond_atom_site_label_2
_geom_bond_distance
_ccdc_geom_bond_type
C59   H44   1.083227 S    
C67   O38   1.396721 S    
C21   C22   1.407601 A    
P7    O22   1.757114 S    
C51   H43   1.080415 S    
C51   C52   1.405104 A    
C5    H10   1.106557 S    
P4    O12   1.542360 D    
C29   C30   1.438996 A    
C52   C60   1.395390 A    
Ba1   Ba2   4.601683 S    
C41   C43   1.404016 A    
C31   C32   1.429879 A    
C24   C25   1.417907 A    
C48   C49   1.402478 A    
C10   H17   1.110791 S    
C45   C46   1.407606 A    
P5    O18   1.542120 D    
C34   H37   1.055208 S    
C66   O35   1.214712 D    
P3    O11   1.750070 S    
O3    P6    1.741215 S    
O36   H53   1.004411 S    
C8    H14   1.111909 S    
O6    P6    1.746908 S    
Ba2   O20   2.800106 S    
C55   C59   1.411339 A    
O16   P7    1.760220 S    
C9    H15   1.100788 S    
C16   H31   1.111172 S    
C11   C12   1.546295 S    
P5    C58   1.841295 S    
C35   C36   1.419467 A    
C44   C45   1.412508 A    
C5    C61   1.511202 S    
C37   C38   1.424919 A    
C40   H39   1.084203 S    
P1    O1    1.542001 D    
C39   C40   1.400332 A    
C3    H23   1.108701 S    
C25   C30   1.426133 A    
C42   C43   1.412251 A    
C6    C62   1.500461 S    
C26   C37   1.406296 A    
O17   Ba2   2.778881 S    
C11   C66   1.481575 S    
C22   C26   1.412060 A    
C56   C57   1.394600 A    
P8    O23   1.546923 D    
P2    O10   1.746193 S    
C36   C37   1.413388 A    
O4    P6    1.547322 D    
C14   H26   1.108910 S    
C1    H18   1.110534 S    
O19   C13   1.406114 S    
C62   O28   1.403321 S    
O8    Ba1   2.778284 S    
O12   Ba2   2.830825 S    
P3    C50   1.841973 S    
C4    Cl2   1.773335 S    
O5    C6    1.433476 S    
C12   H20   1.104358 S    
C35   H38   1.079244 S    
C65   O34   1.396663 S    
P4    O13   1.566667 S    
P8    C27   1.851935 S    
C67   O37   1.217559 D    
O7    Ba1   2.845343 S    
C66   O36   1.381696 S    
P5    O17   1.751040 S    
C12   H21   1.105476 S    
C45   H41   1.073407 S    
P7    O21   1.573742 D    
C13   H24   1.110064 S    
C18   C34   1.404470 A    
Ba1   O16   2.800654 S    
C8    C9    1.525925 S    
O28   H49   1.008091 S    
C9    C65   1.505883 S    
C16   H32   1.103226 S    
C38   C41   1.404379 A    
C25   C26   1.423866 A    
C6    C63   1.509490 S    
O2    Ba2   2.817459 S    
C20   C21   1.403770 A    
O11   C2    1.401540 S    
C32   C42   1.415513 A    
O16   Ba2   2.951102 S    
C4    H8    1.110227 S    
C19   C20   1.398275 A    
Ba1   O20   2.951887 S    
P1    O5    1.802941 S    
P1    O2    1.566863 S    
C8    H13   1.100598 S    
C7    H12   1.110669 S    
C65   O33   1.220673 D    
O2    Ba1   2.959363 S    
C54   C56   1.414277 A    
C15   H29   1.113257 S    
C60   H47   1.070701 S    
C33   C46   1.446454 A    
C57   C58   1.392856 A    
C31   C38   1.413105 A    
C17   C18   1.405232 A    
C2    C3    1.520884 S    
C14   H28   1.109259 S    
C27   C28   1.400763 A    
P1    C46   1.943176 S    
P7    C56   1.842094 S    
C18   C19   1.404807 A    
O14   P8    1.746721 S    
C1    H3    1.109749 S    
C64   O31   1.223426 D    
P2    O20   1.566236 S    
C7    C64   1.501016 S    
C39   Cl1   1.754116 S    
O14   Ba2   2.810172 S    
O38   H54   1.010383 S    
P2    O7    1.529880 D    
C28   H35   1.082130 S    
C57   H45   1.082630 S    
P3    O8    1.747522 S    
C23   H36   1.080307 S    
C17   C31   1.404965 A    
C50   C51   1.390661 A    
C36   C39   1.413815 A    
C3    H7    1.109498 S    
Ba1   O13   2.816899 S    
C1    C10   1.516980 S    
O6    C10   1.401506 S    
C52   C53   1.413957 A    
C20   H34   1.083756 S    
C4    O15   1.396381 S    
C47   C55   1.408550 A    
C61   O26   1.397007 S    
C19   H33   1.083587 S    
C24   C27   1.416019 A    
C62   O27   1.206822 D    
C1    H2    1.107406 S    
P6    C44   1.872854 S    
C30   C35   1.416906 A    
O32   H51   1.012426 S    
C12   H22   1.105451 S    
C40   C41   1.399975 A    
C2    H5    1.109783 S    
C63   O29   1.220528 D    
C64   O32   1.386269 S    
C6    C7    1.584325 S    
C54   C60   1.400864 A    
Ba2   O21   2.845655 S    
C11   O22   1.407422 S    
O26   H48   1.014025 S    
H1    C10   1.110637 S    
C58   C59   1.404116 A    
C4    C5    1.531068 S    
P5    O19   1.751491 S    
C33   C34   1.406671 A    
O1    Ba1   2.830318 S    
C13   C14   1.522226 S    
C7    H11   1.111984 S    
C2    H4    1.111428 S    
P2    Ba1   3.422357 S    
C54   C55   1.414681 A    
C23   C24   1.413151 A    
C47   H46   1.078218 S    
O34   H52   1.010354 S    
C9    H16   1.098020 S    
O13   Ba2   2.960151 S    
C48   C53   1.421483 A    
P4    C29   1.883009 S    
P2    C48   1.841509 S    
P1    Ba1   3.408888 S    
C49   H42   1.082045 S    
C17   C22   1.420385 A    
C15   C67   1.498321 S    
C63   O30   1.398172 S    
C47   C53   1.417275 A    
C28   C29   1.399314 A    
C15   O24   1.414941 S    
O3    Ba1   2.810860 S    
H30   C16   1.110703 S    
C15   C16   1.532016 S    
O30   H50   1.009967 S    
C32   C33   1.432216 A    
P8    O24   1.753832 S    
P3    O9    1.544512 D    
C5    H9    1.103187 S    
C61   O25   1.222314 D    
C21   C23   1.401843 A    
P4    O15   1.757016 S    
C3    H6    1.110397 S    
C14   H27   1.110672 S    
O10   C8    1.399231 S    
C13   H25   1.109668 S    
C11   H19   1.095290 S    
P4    Ba2   3.409347 S    
C43   H40   1.080244 S    
C49   C50   1.396144 A    
C42   C44   1.411712 A    
