data_mof_unit_31505.cif
_audit_creation_date              2012-12-10T20:03:08-0500
_audit_creation_method            fapswitch 2.2
_symmetry_space_group_name_H-M    P1
_symmetry_Int_Tables_number       1
_space_group_crystal_system       triclinic
_cell_length_a                    8.561668
_cell_length_b                    19.307303
_cell_length_c                    18.458487
_cell_angle_alpha                 90.072835
_cell_angle_beta                  98.546926
_cell_angle_gamma                 89.610125
_cell_volume                      3017.28251211

loop_
_atom_site_label
_atom_site_type_symbol
_atom_type_description
_atom_site_fract_x
_atom_site_fract_y
_atom_site_fract_z
_atom_type_partial_charge
C1    C     C_R   0.498880 0.366033 0.499941 0.881988
C2    C     C_R   0.386177 0.465702 0.265324 0.015064
C3    C     C_R   0.625444 0.525950 0.811269 -0.365185
C4    C     C_R   0.384616 0.466420 0.189260 -0.373987
C5    C     C_R   0.496661 0.499127 0.841276 0.030960
C6    C     C_R   0.503066 0.501441 0.158961 0.015657
C7    C     C_R   0.368987 0.470472 0.793151 0.416320
C8    C     C_R   0.622169 0.535654 0.206741 0.414366
C9    C     C_R   0.373158 0.473598 0.716370 -0.129265
C10   C     C_R   0.614942 0.535377 0.282905 -0.109052
C11   C     C_R   0.364269 0.521448 0.953637 -0.106370
C12   C     C_R   0.498323 0.634131 0.499903 0.897183
C13   C     C_R   0.636740 0.481604 0.047335 -0.122022
C14   C     C_R   0.365559 0.521248 0.029843 -0.222240
C15   C     C_R   0.634894 0.480951 0.971084 -0.221703
C16   C     C_R   0.200883 0.500054 0.480896 0.955121
C17   C     C_R   0.799056 0.498899 0.519041 0.974982
C18   C     C_R   0.501942 0.501560 0.077701 0.175824
C19   C     C_R   0.498271 0.500401 0.922942 0.158685
C20   C     C_2   0.035862 0.499732 0.470385 -0.418185
C21   C     C_2   0.963990 0.497341 0.529253 -0.377528
C22   C     C_R   0.577296 0.744641 0.451890 -0.276428
C23   C     C_R   0.500938 0.964366 0.564896 -0.187802
C24   C     C_R   0.589234 0.254882 0.553441 -0.276880
C25   C     C_R   0.576785 0.816354 0.451597 -0.177815
C26   C     C_R   0.587985 0.183305 0.552951 -0.170720
C27   C     C_R   0.490871 0.852859 0.498332 0.051483
C28   C     C_R   0.485315 0.147941 0.499445 0.039762
C29   C     C_R   0.405315 0.817089 0.545298 -0.279392
C30   C     C_R   0.383400 0.184845 0.446422 -0.260424
C31   C     C_R   0.404816 0.745067 0.545728 0.472781
C32   C     C_R   0.383319 0.256803 0.446744 0.493179
C33   C     C_R   0.493718 0.708940 0.499559 -0.130319
C34   C     C_R   0.476396 0.036503 0.432391 -0.187058
C35   C     C_R   0.490117 0.291599 0.499726 -0.145041
C36   C     C_3   0.156854 0.391126 0.782011 0.074927
C37   C     C_3   0.000155 0.420558 0.742798 -0.345713
C38   C     C_3   0.912847 0.367792 0.690353 -0.970633
C39   C     C_3   0.888306 0.561351 0.209505 0.054949
C40   C     C_3   0.963121 0.627025 0.245531 -0.350830
C41   C     C_3   0.138173 0.616131 0.273823 -0.924472
C42   C     C_3   0.161173 0.708512 0.562663 0.076365
C43   C     C_3   0.069493 0.670285 0.615097 -0.308948
C44   C     C_3   0.892600 0.670769 0.587074 -0.950268
C45   C     C_R   0.497000 0.036024 0.565078 -0.190285
C46   C     C_3   0.155232 0.321350 0.420613 0.094223
C47   C     C_3   0.014311 0.272148 0.409097 -0.390007
C48   C     C_3   0.867854 0.305832 0.432487 -0.902161
C49   C     C_R   0.477646 0.964731 0.432118 -0.190398
C50   C     C_R   0.485562 0.072449 0.498881 0.139092
C51   C     C_R   0.490362 0.928360 0.498408 0.137594
C52   C     C_R   0.625011 0.525728 0.735365 0.017472
H1    H     H_    0.974076 0.501868 0.414455 0.170069
H2    H     H_    0.670849 0.281631 0.594385 0.172371
H3    H     H_    0.645524 0.843233 0.415798 0.142960
H4    H     H_    0.669433 0.155623 0.593502 0.143636
H5    H     H_    0.337065 0.844847 0.581049 0.145292
H6    H     H_    0.302259 0.157971 0.405366 0.148265
H7    H     H_    0.513000 0.937148 0.616719 0.137878
H8    H     H_    0.469647 0.063835 0.380806 0.136918
H9    H     H_    0.502239 0.062923 0.616901 0.132665
H10   H     H_    0.467433 0.937723 0.380183 0.134116
H11   H     H_    0.724606 0.546681 0.713069 0.134544
H12   H     H_    0.025894 0.494980 0.585009 0.169659
H13   H     H_    0.295396 0.438148 0.288264 0.149319
H14   H     H_    0.725473 0.547895 0.846397 0.164635
H15   H     H_    0.292237 0.439168 0.154252 0.165758
H16   H     H_    0.128874 0.350771 0.820875 0.165488
H17   H     H_    0.225478 0.363442 0.743991 0.123193
H18   H     H_    0.924418 0.435477 0.784330 0.225272
H19   H     H_    0.021364 0.467917 0.711793 0.210112
H20   H     H_    0.982252 0.355449 0.645635 0.256328
H21   H     H_    0.796726 0.389558 0.665789 0.290074
H22   H     H_    0.892260 0.319515 0.720102 0.258885
H23   H     H_    0.275720 0.455157 0.677515 0.137395
H24   H     H_    0.954961 0.545597 0.164825 0.161834
H25   H     H_    0.901328 0.517783 0.249743 0.104755
H26   H     H_    0.950114 0.669936 0.204940 0.240887
H27   H     H_    0.901320 0.642341 0.291960 0.206346
H28   H     H_    0.153829 0.573177 0.314049 0.280181
H29   H     H_    0.188007 0.664032 0.301218 0.264127
H30   H     H_    0.203725 0.603750 0.227773 0.267381
H31   H     H_    0.145477 0.680552 0.509147 0.126038
H32   H     H_    0.111829 0.762007 0.554408 0.135712
H33   H     H_    0.112638 0.615906 0.621380 0.230250
H34   H     H_    0.700257 0.564034 0.320171 0.134347
H35   H     H_    0.090246 0.695552 0.669802 0.227005
H36   H     H_    0.845673 0.724603 0.585350 0.270232
H37   H     H_    0.830112 0.639787 0.624331 0.271508
H38   H     H_    0.868918 0.648069 0.531254 0.255014
H39   H     H_    0.121593 0.369765 0.389584 0.167419
H40   H     H_    0.181766 0.336355 0.479557 0.107493
H41   H     H_    0.988152 0.257722 0.350248 0.235010
H42   H     H_    0.043625 0.224222 0.441696 0.218173
H43   H     H_    0.889884 0.319183 0.491686 0.253231
H44   H     H_    0.767666 0.269136 0.422793 0.274095
H45   H     H_    0.258461 0.538871 0.918741 0.164721
H46   H     H_    0.834903 0.353612 0.400154 0.270484
H47   H     H_    0.743037 0.465351 0.082673 0.128829
H48   H     H_    0.260429 0.537555 0.051574 0.136954
H49   H     H_    0.740011 0.464186 0.949655 0.138349
H50   H     H_    0.645820 0.716993 0.416129 0.167210
N1    N     N_R   0.500020 0.499980 0.689440 -0.102526
N2    N     N_R   0.499980 0.500020 0.310560 -0.108245
O1    O     O_R   0.500010 0.398180 0.560840 -0.634836
O2    O     O_3   0.730784 0.575977 0.177261 -0.644984
O3    O     O_3   0.322393 0.710160 0.593241 -0.628698
O4    O     O_3   0.285715 0.292054 0.392203 -0.647016
O5    O     O_R   0.499990 0.601820 0.439160 -0.629374
O6    O     O_R   0.499930 0.398180 0.439210 -0.581623
O7    O     O_R   0.500070 0.601820 0.560790 -0.566817
O8    O     O_R   0.271780 0.500000 0.546590 -0.619491
O9    O     O_R   0.728220 0.500000 0.453410 -0.625518
O10   O     O_R   0.271710 0.499990 0.424960 -0.648205
O11   O     O_R   0.728290 0.500010 0.575040 -0.640993
O12   O     O_3   0.242307 0.443773 0.823782 -0.670624
Zn1   Zn    Zn3+2 0.500050 0.500000 0.581210 0.938504
Zn2   Zn    Zn3+2 0.499950 0.500000 0.418790 0.931185

loop_
_geom_bond_atom_site_label_1
_geom_bond_atom_site_label_2
_ccdc_geom_bond_type
C39   O2    S    
C52   N1    A    
C23   C45   A    
C48   H43   S    
C27   C29   A    
C14   C18   A    
C2    H13   S    
O6    Zn2   S    
C41   H28   S    
C17   O9    A    
C23   H7    S    
C11   C19   A    
C13   C18   A    
C39   H25   S    
C36   C37   S    
C24   C26   A    
C17   O11   A    
O8    Zn1   S    
C11   C14   A    
C46   H40   S    
C24   H2    S    
C45   H9    S    
C21   H12   S    
C15   C19   A    
C28   C50   S    
C49   C51   A    
C22   C25   A    
C46   O4    S    
C16   O10   A    
C31   C33   A    
C42   O3    S    
C9    N1    A    
C37   H18   S    
C34   H8    S    
O1    Zn1   S    
N1    Zn1   S    
C12   O5    A    
C27   C51   S    
O5    Zn2   S    
N2    Zn2   S    
C6    C18   S    
C38   H20   S    
C34   C50   A    
C24   C35   A    
C43   H33   S    
C32   C35   A    
C42   H32   S    
C4    C6    A    
C39   C40   S    
C5    C7    A    
C1    C35   S    
C6    C8    A    
C46   H39   S    
O11   Zn1   S    
C17   C21   S    
C8    O2    S    
C7    O12   S    
C13   H47   S    
C2    C4    A    
C43   C44   S    
C37   C38   S    
C1    O6    A    
C23   C51   A    
C47   C48   S    
C2    N2    A    
C16   C20   S    
C41   H29   S    
C47   H41   S    
C40   H27   S    
C39   H24   S    
C15   H49   S    
O10   Zn2   S    
C40   C41   S    
C29   H5    S    
C13   C15   A    
C40   H26   S    
C3    H14   S    
C42   C43   S    
C36   O12   S    
C44   H38   S    
C36   H17   S    
C16   O8    A    
C38   H22   S    
C7    C9    A    
C22   C33   A    
C46   C47   S    
C10   H34   S    
C34   C49   A    
C49   H10   S    
C48   H44   S    
C31   O3    S    
C42   H31   S    
C25   H3    S    
C20   H1    S    
C3    C5    A    
C52   H11   S    
C26   H4    S    
C4    H15   S    
C3    C52   A    
C36   H16   S    
C14   H48   S    
C5    C19   S    
C25   C27   A    
C48   H46   S    
C26   C28   A    
C22   H50   S    
C11   H45   S    
O7    Zn1   S    
C43   H35   S    
C37   H19   S    
C28   C30   A    
C29   C31   A    
C30   C32   A    
C45   C50   A    
C41   H30   S    
C30   H6    S    
C10   N2    A    
C47   H42   S    
O9    Zn2   S    
C20   C21   D    
C8    C10   A    
C32   O4    S    
C9    H23   S    
C12   C33   S    
C44   H36   S    
C12   O7    A    
C44   H37   S    
C1    O1    A    
C38   H21   S    
