data_mof_unit_64936.cif
_audit_creation_date              2012-12-10T19:50:46-0500
_audit_creation_method            fapswitch 2.2
_symmetry_space_group_name_H-M    P1
_symmetry_Int_Tables_number       1
_space_group_crystal_system       triclinic
_cell_length_a                    15.024661
_cell_length_b                    14.16615
_cell_length_c                    11.555021
_cell_angle_alpha                 90.000241
_cell_angle_beta                  90.023774
_cell_angle_gamma                 90.0
_cell_volume                      2459.3889624

loop_
_atom_site_label
_atom_site_type_symbol
_atom_type_description
_atom_site_fract_x
_atom_site_fract_y
_atom_site_fract_z
_atom_type_partial_charge
C1    C     C_R   0.327676 0.500007 0.499932 0.964514
C2    C     C_R   0.500016 0.499997 0.718265 0.903496
C3    C     C_R   0.454425 0.105265 0.414271 -0.258039
C4    C     C_R   0.573299 0.894839 0.542067 -0.257408
C5    C     C_R   0.545574 0.105266 0.585729 -0.258034
C6    C     C_R   0.426700 0.894838 0.457933 -0.257397
C7    C     C_1   0.499982 0.499983 0.161369 -0.150551
C8    C     C_1   0.500018 0.499984 0.838631 -0.150585
C9    C     C_1   0.499991 0.499972 0.059281 0.018418
C10   C     C_1   0.500009 0.499972 0.940719 0.018412
C11   C     C_R   0.455065 0.204526 0.416095 0.069034
C12   C     C_R   0.672323 0.500007 0.500035 0.964566
C13   C     C_R   0.571800 0.795576 0.541636 0.069049
C14   C     C_R   0.544935 0.204527 0.583905 0.068993
C15   C     C_R   0.428200 0.795576 0.458364 0.069035
C16   C     C_R   0.093501 0.577307 0.545502 -0.242696
C17   C     C_R   0.906552 0.422842 0.545768 -0.240451
C18   C     C_R   0.906440 0.577247 0.453824 -0.242713
C19   C     C_R   0.093499 0.422846 0.453700 -0.240475
C20   C     C_R   0.185382 0.577541 0.545871 0.565061
C21   C     C_R   0.814665 0.422612 0.546239 0.570676
C22   C     C_R   0.814559 0.577495 0.453685 0.565061
C23   C     C_R   0.231705 0.500043 0.499760 -0.329946
C24   C     C_R   0.185386 0.422601 0.453456 0.570672
C25   C     C_R   0.768292 0.500041 0.500002 -0.329942
C26   C     C_R   0.047879 0.500067 0.499608 -0.014117
C27   C     C_R   0.952117 0.500035 0.499696 -0.014115
C28   C     C_R   0.500000 0.053411 0.500000 0.129404
C29   C     C_R   0.500000 0.946695 0.500000 0.126356
C30   C     C_R   0.499984 0.499996 0.281735 0.903497
F1    F     F_    0.228550 0.652281 0.593564 -0.643963
F2    F     F_    0.771535 0.347942 0.594114 -0.649235
F3    F     F_    0.771331 0.652210 0.406027 -0.643938
F4    F     F_    0.228572 0.347895 0.405752 -0.649258
H1    H     H_    0.419431 0.069733 0.344985 0.147731
H2    H     H_    0.942272 0.363533 0.582568 0.187419
H3    H     H_    0.942068 0.636572 0.416946 0.186968
H4    H     H_    0.057821 0.363508 0.416897 0.187419
H5    H     H_    0.632211 0.930372 0.573736 0.151587
H6    H     H_    0.580568 0.069734 0.655016 0.147727
H7    H     H_    0.367789 0.930372 0.426265 0.151602
H8    H     H_    0.419719 0.243348 0.349845 0.161719
H9    H     H_    0.628521 0.756962 0.574486 0.156262
H10   H     H_    0.580282 0.243349 0.650154 0.161671
H11   H     H_    0.371479 0.756961 0.425514 0.156340
H12   H     H_    0.057831 0.636650 0.582268 0.186967
N1    N     N_R   0.500000 0.252470 0.500000 -0.107153
N2    N     N_R   0.500000 0.747530 0.500000 -0.103714
O1    O     O_R   0.369060 0.579480 0.500010 -0.587845
O2    O     O_R   0.630940 0.420520 0.499990 -0.572422
O3    O     O_R   0.630940 0.579480 0.499990 -0.587859
O4    O     O_R   0.369060 0.420520 0.500010 -0.572385
O5    O     O_R   0.500010 0.579480 0.334450 -0.610853
O6    O     O_R   0.499990 0.420520 0.665550 -0.626460
O7    O     O_R   0.499990 0.579480 0.665550 -0.610889
O8    O     O_R   0.500010 0.420520 0.334450 -0.626472
Zn1   Zn    Zn3+2 0.500000 0.606140 0.500000 1.010893
Zn2   Zn    Zn3+2 0.500000 0.393860 0.500000 1.008368

loop_
_geom_bond_atom_site_label_1
_geom_bond_atom_site_label_2
_ccdc_geom_bond_type
C13   N2    A    
C12   O2    A    
C23   C24   A    
C4    H5    S    
C30   O8    A    
C14   N1    A    
O3    Zn1   S    
C19   H4    S    
C5    C28   A    
C9    C10   S    
C11   N1    A    
C4    C29   A    
C20   C23   A    
C3    H1    S    
C12   C25   S    
C16   C20   A    
C6    C29   A    
C19   C24   A    
C26   C27   S    
O2    Zn2   S    
N2    Zn1   S    
C7    C30   S    
C30   O5    A    
N1    Zn2   S    
C5    C14   A    
O4    Zn2   S    
C15   N2    A    
C8    C10   T    
C28   C29   S    
C17   H2    S    
C18   H3    S    
O8    Zn2   S    
C1    C23   S    
C2    O7    A    
O7    Zn1   S    
C16   C26   A    
C21   F2    S    
C2    O6    A    
C3    C11   A    
C15   H11   S    
C17   C27   A    
C13   H9    S    
C12   O3    A    
O1    Zn1   S    
C19   C26   A    
C11   H8    S    
C14   H10   S    
O6    Zn2   S    
C5    H6    S    
C16   H12   S    
C4    C13   A    
C7    C9    T    
C22   F3    S    
O5    Zn1   S    
C3    C28   A    
C21   C25   A    
C2    C8    S    
C6    C15   A    
C18   C22   A    
C1    O4    A    
C1    O1    A    
C22   C25   A    
C24   F4    S    
C18   C27   A    
C6    H7    S    
C20   F1    S    
C17   C21   A    
