data_mof_unit_57992.cif
_audit_creation_date              2013-03-05T16:35:51-0500
_audit_creation_method            fapswitch 2.2
_symmetry_space_group_name_H-M    P1
_symmetry_Int_Tables_number       1
_space_group_crystal_system       triclinic
_cell_length_a                    23.477973
_cell_length_b                    9.112929
_cell_length_c                    7.784489
_cell_angle_alpha                 90.29783
_cell_angle_beta                  89.768015
_cell_angle_gamma                 89.835118
_cell_volume                      1665.47241051

loop_
_atom_site_label
_atom_site_type_symbol
_atom_site_description
_atom_site_fract_x
_atom_site_fract_y
_atom_site_fract_z
_atom_type_partial_charge
O1    O     O_R   0.500000 0.288390 0.642760 -0.562706
O2    O     O_R   0.500000 0.711610 0.357240 -0.574939
O3    O     O_R   0.500000 0.711610 0.642760 -0.584750
O4    O     O_R   0.500000 0.288390 0.357240 -0.598874
H1    H     H_    0.949585 0.414796 0.099117 0.195310
H2    H     H_    0.049582 0.658442 0.923557 0.195543
H3    H     H_    0.945967 0.651981 0.923454 0.195371
H4    H     H_    0.053103 0.409118 0.103561 0.189738
C1    C     C_R   0.499534 0.219979 0.499753 0.829710
C2    C     C_R   0.500107 0.780023 0.500260 0.855399
O5    O     O_R   0.417880 0.500000 0.642820 -0.555808
O6    O     O_R   0.582120 0.500000 0.357180 -0.601066
O7    O     O_R   0.582120 0.500000 0.642820 -0.569536
O8    O     O_R   0.417880 0.500000 0.357180 -0.553493
C3    C     C_R   0.209174 0.528521 0.517883 0.044546
C4    C     C_R   0.790363 0.519589 0.509899 0.064857
C5    C     C_R   0.390789 0.500920 0.500444 0.926675
C6    C     C_R   0.609109 0.498489 0.499581 0.959737
Cu1   Cu    Cu3+1 0.500000 0.500000 0.669080 1.043078
Cu2   Cu    Cu3+1 0.500000 0.500000 0.330920 1.020429
C7    C     C_R   0.299881 0.614551 0.404516 0.320879
C8    C     C_R   0.703667 0.374145 0.525536 0.307176
C9    C     C_R   0.297422 0.411108 0.607356 0.303661
C10   C     C_R   0.698512 0.637487 0.469953 0.284297
C11   C     C_R   0.328393 0.508361 0.503037 -0.367728
C12   C     C_R   0.671315 0.502583 0.497773 -0.352700
C13   C     C_R   0.879234 0.564372 0.659024 0.624921
C14   C     C_R   0.119915 0.486192 0.371645 0.625380
C15   C     C_R   0.880651 0.497340 0.361915 0.585403
C16   C     C_R   0.118815 0.578176 0.659708 0.571862
N1    N     N_R   0.851422 0.527861 0.510552 -0.398797
N2    N     N_R   0.147938 0.531208 0.516522 -0.409647
C17   C     C_R   0.940310 0.492814 0.361619 -0.032101
C18   C     C_R   0.059044 0.577977 0.661971 -0.036062
C19   C     C_R   0.938930 0.572550 0.661167 -0.040529
C20   C     C_R   0.060257 0.487902 0.366283 -0.043097
C21   C     C_R   0.969599 0.532802 0.512103 -0.006854
C22   C     C_R   0.029689 0.532945 0.513466 -0.014782
C23   C     C_R   0.971201 0.448667 0.215312 -0.180389
C24   C     C_R   0.028037 0.622094 0.808234 -0.171935
C25   C     C_R   0.968591 0.618234 0.808285 -0.179565
C26   C     C_R   0.030577 0.445009 0.218067 -0.174925
C27   C     C_1   0.499684 0.065323 0.499630 -0.180166
C28   C     C_1   0.499903 0.934676 0.500347 -0.177253
C29   C     C_R   0.240365 0.626016 0.413053 0.386730
C30   C     C_R   0.763491 0.382751 0.527060 0.394767
C31   C     C_R   0.237572 0.423140 0.617859 0.362304
C32   C     C_R   0.757956 0.647715 0.489100 0.378504
N3    N     N_1   0.500000 0.500000 0.076820 -0.040801
N4    N     N_1   0.500000 0.500000 0.923180 -0.039096
O9    O     O_2   0.849308 0.591489 0.804032 -0.526467
O10   O     O_2   0.149784 0.439545 0.233444 -0.554577
O11   O     O_2   0.852049 0.472085 0.214793 -0.535618
O12   O     O_2   0.147611 0.626495 0.798417 -0.530942
O13   O     O_3   0.213294 0.726026 0.307368 -0.511613
C33   C     C_3   0.188245 0.839265 0.407124 -0.233442
H5    H     H_    0.188775 0.941712 0.330793 0.185968
H6    H     H_    0.211196 0.862715 0.529457 0.135214
H7    H     H_    0.143011 0.813310 0.434664 0.168841
O14   O     O_3   0.796227 0.259736 0.560080 -0.548733
C34   C     C_3   0.803353 0.176829 0.407466 -0.249492
H8    H     H_    0.799854 0.241461 0.286961 0.177384
H9    H     H_    0.771724 0.087161 0.403091 0.198261
H10   H     H_    0.846307 0.125830 0.408731 0.192135
O15   O     O_3   0.205246 0.321410 0.707057 -0.584056
C35   C     C_3   0.216710 0.329721 0.884764 -0.098651
H11   H     H_    0.225365 0.443585 0.930803 0.207026
H12   H     H_    0.252532 0.255893 0.918911 0.183856
H13   H     H_    0.178652 0.289606 0.954818 0.197226
O16   O     O_3   0.785245 0.781925 0.484708 -0.577342
C36   C     C_3   0.772663 0.859760 0.637937 -0.211642
H14   H     H_    0.771104 0.788572 0.753850 0.176646
H15   H     H_    0.731745 0.920091 0.625553 0.213225
H16   H     H_    0.806767 0.941457 0.660425 0.202617
O17   O     O_3   0.330003 0.702515 0.292022 -0.509815
C37   C     C_3   0.345398 0.832885 0.378108 -0.254391
H17   H     H_    0.374280 0.896446 0.293618 0.186145
H18   H     H_    0.368722 0.810834 0.499594 0.113764
H19   H     H_    0.307360 0.902061 0.404292 0.154216
O18   O     O_3   0.677772 0.242432 0.565939 -0.544227
C38   C     C_3   0.656078 0.176937 0.415173 -0.303202
H20   H     H_    0.685742 0.184228 0.303584 0.142152
H21   H     H_    0.614494 0.225270 0.380180 0.165373
H22   H     H_    0.648598 0.059363 0.441703 0.219744
O19   O     O_3   0.325869 0.303827 0.698561 -0.547927
C39   C     C_3   0.328290 0.175279 0.597273 -0.297408
H23   H     H_    0.351849 0.193893 0.474928 0.138138
H24   H     H_    0.284886 0.132306 0.570451 0.179171
H25   H     H_    0.351691 0.089745 0.669546 0.183288
O20   O     O_3   0.666326 0.760755 0.433800 -0.584082
C40   C     C_3   0.669694 0.787054 0.255539 -0.270449
H26   H     H_    0.659530 0.687200 0.178247 0.174321
H27   H     H_    0.712454 0.829658 0.219671 0.192241
H28   H     H_    0.637726 0.871847 0.221667 0.168449

loop_
_geom_bond_atom_site_label_1
_geom_bond_atom_site_label_2
_geom_bond_distance
_ccdc_geom_bond_type
C35   H12   1.109535 S    
O13   C33   1.413603 S    
C20   C26   1.404634 A    
Cu1   Cu2   2.632404 S    
C6    C12   1.461074 S    
C37   H19   1.109251 S    
C3    C31   1.407394 A    
C27   C28   1.190617 T    
C4    C32   1.402230 A    
C38   H20   1.113557 S    
C3    N2    1.437916 S    
O19   C39   1.409563 S    
C4    N1    1.435776 S    
C16   O12   1.348907 S    
O5    Cu1   1.939643 S    
C17   C23   1.404227 A    
O7    C6    1.280266 A    
C18   C24   1.405268 A    
C32   O16   1.382856 S    
C19   C21   1.408383 A    
C21   C22   1.410874 A    
C37   H18   1.113613 S    
C39   H24   1.112906 S    
C35   H13   1.108788 S    
C15   C17   1.401162 A    
C33   H5    1.109322 S    
C34   H9    1.106232 S    
O3    Cu1   1.940300 S    
O16   C36   1.414324 S    
C9    C11   1.407154 A    
C35   H11   1.115513 S    
O8    C5    1.281605 A    
C38   H21   1.105567 S    
C13   O9    1.348558 S    
C23   C26   1.394578 A    
C7    C29   1.402190 A    
C1    C27   1.409361 S    
O1    Cu1   1.938182 S    
C16   C18   1.403369 A    
O2    Cu2   1.938182 S    
C10   C32   1.407451 A    
O8    Cu2   1.937997 S    
C14   N2    1.369607 A    
O1    C1    1.273183 A    
C37   H17   1.109268 S    
C4    C30   1.405865 A    
C40   H26   1.115214 S    
C36   H15   1.110284 S    
O7    Cu1   1.937995 S    
C39   H23   1.113426 S    
C13   C19   1.403885 A    
C13   N1    1.369773 A    
C17   C21   1.407641 A    
O14   C34   1.413696 S    
C34   H10   1.109296 S    
O17   C37   1.409733 S    
Cu2   N3    1.978038 S    
C40   H27   1.112502 S    
O6    Cu2   1.939641 S    
C29   O13   1.385674 S    
C24   C25   1.396205 A    
C8    C30   1.407059 A    
O15   C35   1.412049 S    
H1    C23   1.082913 S    
C9    O19   1.383194 S    
H2    C24   1.083075 S    
C3    C29   1.413515 A    
O2    C2    1.273195 A    
C38   H22   1.106606 S    
C7    C11   1.407447 A    
O5    C5    1.280151 A    
C30   O14   1.383155 S    
C18   C22   1.408176 A    
C10   C12   1.404332 A    
H4    C26   1.083230 S    
O18   C38   1.411510 S    
C39   H25   1.109302 S    
C10   O20   1.382831 S    
C36   H16   1.108697 S    
C7    O17   1.383888 S    
C33   H7    1.109012 S    
C5    C11   1.466339 S    
C9    C31   1.411112 A    
C20   C22   1.408206 A    
C8    O18   1.384125 S    
C36   H14   1.114608 S    
C15   N1    1.369738 A    
O3    C2    1.275295 A    
C40   H28   1.109197 S    
C16   N2    1.371226 A    
C14   O10   1.348076 S    
Cu1   N4    1.978038 S    
O20   C40   1.411381 S    
C15   O11   1.349035 S    
C2    C28   1.409335 S    
C33   H6    1.116065 S    
H3    C25   1.082975 S    
C34   H8    1.113429 S    
C19   C25   1.404642 A    
O4    Cu2   1.940301 S    
C14   C20   1.401472 A    
N3    N4    1.196010 T    
C8    C12   1.411526 A    
O6    C6    1.279183 A    
O4    C1    1.275400 A    
C31   O15   1.387098 S    
