data_mof_unit_8736.cif
_audit_creation_date              2012-10-26T19:34:06-0400
_audit_creation_method            fapswitch 2.2
_symmetry_space_group_name_H-M    P1
_symmetry_Int_Tables_number       1
_space_group_crystal_system       triclinic
_cell_length_a                    8.813234
_cell_length_b                    19.489156
_cell_length_c                    18.163121
_cell_angle_alpha                 90.822493
_cell_angle_beta                  97.681118
_cell_angle_gamma                 90.382653
_cell_volume                      3091.31551196

loop_
_atom_site_label
_atom_site_type_symbol
_atom_type_description
_atom_site_fract_x
_atom_site_fract_y
_atom_site_fract_z
_atom_type_partial_charge
C1    C     C_R   0.507292 0.367008 0.499954 0.572514
C2    C     C_R   0.526337 0.559673 0.281321 0.085773
C3    C     C_R   0.401920 0.544611 0.791928 -0.070246
C4    C     C_R   0.520688 0.561546 0.203786 -0.074939
C5    C     C_R   0.497864 0.501030 0.837778 0.058713
C6    C     C_R   0.499327 0.500763 0.161063 0.056022
C7    C     C_R   0.598002 0.458383 0.804590 -0.101589
C8    C     C_R   0.472364 0.440053 0.198289 -0.105998
C9    C     C_R   0.598313 0.459260 0.727378 0.082273
C10   C     C_R   0.466195 0.441660 0.275125 0.075731
C11   C     C_R   0.626325 0.526711 0.968486 0.054233
C12   C     C_R   0.496214 0.632419 0.500313 0.598818
C13   C     C_R   0.370603 0.474672 0.029262 0.052854
C14   C     C_R   0.626699 0.526628 0.046676 0.064265
C15   C     C_R   0.370504 0.475212 0.951070 0.079028
C16   C     C_R   0.204128 0.499408 0.481328 0.571985
C17   C     C_R   0.795860 0.500280 0.518656 0.577779
C18   C     C_R   0.498352 0.501205 0.077841 -0.037676
C19   C     C_R   0.497499 0.501690 0.920380 -0.041088
C20   C     C_2   0.040613 0.489131 0.472533 -0.000049
C21   C     C_2   0.959432 0.510096 0.527437 0.013304
C22   C     C_R   0.389105 0.741019 0.441466 0.029844
C23   C     C_R   0.383004 0.963923 0.557222 -0.097803
C24   C     C_R   0.530419 0.253254 0.567245 0.047715
C25   C     C_R   0.378410 0.812526 0.442038 -0.110426
C26   C     C_R   0.500797 0.182545 0.567093 -0.108412
C27   C     C_R   0.447221 0.851414 0.502614 -0.027804
C28   C     C_R   0.456960 0.146284 0.500589 -0.022459
C29   C     C_R   0.530507 0.819231 0.562898 -0.111949
C30   C     C_R   0.443613 0.181499 0.433683 -0.110376
C31   C     C_R   0.551866 0.748152 0.562254 0.031222
C32   C     C_R   0.478767 0.251358 0.431947 0.045850
C33   C     C_R   0.480601 0.707923 0.501004 -0.022253
C34   C     C_R   0.504055 0.032171 0.443694 -0.096754
C35   C     C_R   0.509931 0.289981 0.499423 -0.012302
C36   C     C_2   0.976484 0.444005 0.408778 0.580525
C37   C     C_2   0.023849 0.554512 0.591592 0.582378
C38   C     C_2   0.760204 0.554046 0.936264 0.610210
C39   C     C_2   0.235852 0.446904 0.060420 0.620024
C40   C     C_2   0.296102 0.703312 0.379440 0.581750
C41   C     C_2   0.602491 0.284382 0.638054 0.589679
C42   C     C_2   0.655326 0.718874 0.624985 0.591463
C43   C     C_2   0.505434 0.277853 0.359098 0.567470
C44   C     C_R   0.384195 0.035560 0.556383 -0.097599
C45   C     C_R   0.499730 0.960904 0.443752 -0.097707
C46   C     C_R   0.445860 0.070437 0.499819 0.035816
C47   C     C_R   0.440745 0.926468 0.500800 0.026893
C48   C     C_R   0.404433 0.543084 0.714830 0.081826
Cu1   Cu    Cu3+1 0.499960 0.500000 0.573360 1.075422
Cu2   Cu    Cu3+1 0.500040 0.500000 0.426640 1.085201
H1    H     H_    0.676051 0.425099 0.838264 0.136103
H2    H     H_    0.557288 0.057085 0.400708 0.123452
H3    H     H_    0.337704 0.063606 0.600022 0.128973
H4    H     H_    0.547079 0.932503 0.400555 0.132118
H5    H     H_    0.331112 0.577032 0.679961 0.163087
H6    H     H_    0.549928 0.606855 0.312616 0.149870
H7    H     H_    0.325634 0.579408 0.815653 0.130728
H8    H     H_    0.535454 0.610197 0.177480 0.142706
H9    H     H_    0.954420 0.425310 0.298313 0.345472
H10   H     H_    0.048944 0.570820 0.702568 0.323385
H11   H     H_    0.838396 0.618805 0.863983 0.354066
H12   H     H_    0.451591 0.391991 0.167864 0.138732
H13   H     H_    0.085648 0.458877 0.133799 0.364352
H14   H     H_    0.220834 0.698164 0.269612 0.360143
H15   H     H_    0.601545 0.295337 0.748552 0.341348
H16   H     H_    0.825459 0.653650 0.659132 0.358918
H17   H     H_    0.655539 0.321776 0.298902 0.333606
H18   H     H_    0.678461 0.427848 0.702584 0.189663
H19   H     H_    0.431311 0.396440 0.301301 0.176742
H20   H     H_    0.311579 0.838207 0.396157 0.161835
H21   H     H_    0.522041 0.154918 0.618784 0.151456
H22   H     H_    0.586181 0.850337 0.608842 0.155800
H23   H     H_    0.414737 0.153452 0.381680 0.151668
H24   H     H_    0.337150 0.937674 0.601680 0.133778
I1    I     I_    0.824523 0.565308 0.117565 -0.244110
I2    I     I_    0.176390 0.436290 0.877704 -0.193702
N1    N     N_R   0.499980 0.500020 0.683620 -0.237903
N2    N     N_R   0.500020 0.499980 0.316380 -0.229359
O1    O     O_R   0.499930 0.400180 0.561970 -0.494615
O2    O     O_R   0.003060 0.459896 0.336747 -0.643727
O3    O     O_2   0.091940 0.607629 0.581011 -0.502536
O4    O     O_R   0.002020 0.536305 0.663650 -0.669933
O5    O     O_2   0.887637 0.530594 0.954877 -0.446734
O6    O     O_R   0.739378 0.605291 0.882855 -0.667963
O7    O     O_2   0.186668 0.389431 0.042365 -0.459599
O8    O     O_R   0.169653 0.485247 0.113161 -0.643764
O9    O     O_2   0.221447 0.652634 0.391747 -0.464475
O10   O     O_R   0.288541 0.727799 0.307071 -0.697835
O11   O     O_2   0.720703 0.317853 0.639560 -0.501092
O12   O     O_R   0.500070 0.599820 0.438030 -0.509530
O13   O     O_R   0.540479 0.272183 0.703623 -0.678825
O14   O     O_2   0.651096 0.740299 0.688314 -0.493457
O15   O     O_R   0.761621 0.668864 0.611694 -0.659112
O16   O     O_2   0.412567 0.265895 0.304015 -0.525360
O17   O     O_R   0.643992 0.310936 0.352300 -0.631418
O18   O     O_R   0.500010 0.400190 0.438070 -0.490711
O19   O     O_R   0.499990 0.599810 0.561930 -0.475964
O20   O     O_R   0.274810 0.500000 0.547650 -0.511362
O21   O     O_R   0.725190 0.500000 0.452350 -0.489756
O22   O     O_R   0.274880 0.500000 0.423750 -0.441910
O23   O     O_R   0.725120 0.500000 0.576250 -0.460397
O24   O     O_2   0.904392 0.392167 0.419775 -0.462004

loop_
_geom_bond_atom_site_label_1
_geom_bond_atom_site_label_2
_ccdc_geom_bond_type
C48   H5    S    
C41   O11   D    
C26   H21   S    
C31   C42   S    
C38   O5    D    
C27   C29   A    
C42   O15   S    
C14   C18   A    
Cu2   O18   S    
C10   N2    A    
C15   C19   A    
C28   C46   S    
Cu2   O21   S    
C13   C18   A    
C40   O9    D    
C12   O12   A    
C24   C26   A    
Cu1   O23   S    
C11   C14   A    
C3    C48   A    
C43   O16   D    
C36   O24   D    
C17   O23   A    
C11   C19   A    
Cu1   O20   S    
H10   O4    S    
C44   H3    S    
Cu2   O12   S    
C22   C25   A    
C43   O17   S    
C31   C33   A    
C34   C46   A    
C29   H22   S    
C15   I2    S    
H15   O13   S    
H17   O17   S    
C24   C41   S    
C37   O3    D    
Cu2   N2    S    
C44   C46   A    
C45   C47   A    
C6    C18   S    
C24   C35   A    
C23   C47   A    
C32   C35   A    
C4    C6    A    
C36   O2    S    
C5    C7    A    
C30   H23   S    
C16   O22   A    
C6    C8    A    
C17   C21   S    
C23   C44   A    
Cu1   O1    S    
C48   N1    A    
C11   C38   S    
C2    C4    A    
C2    N2    A    
C16   C20   S    
C22   C40   S    
C34   C45   A    
C9    N1    A    
C17   O21   A    
C12   O19   A    
H16   O15   S    
C3    H7    S    
C41   O13   S    
C45   H4    S    
C13   C15   A    
H13   O8    S    
C1    O1    A    
C37   O4    S    
C39   O7    D    
C23   H24   S    
C1    C35   S    
C27   C47   S    
C7    C9    A    
C22   C33   A    
C38   O6    S    
C34   H2    S    
C3    C5    A    
H11   O6    S    
H9    O2    S    
C5    C19   S    
C25   C27   A    
C26   C28   A    
C14   I1    S    
C40   O10   S    
C28   C30   A    
C9    H18   S    
C7    H1    S    
C29   C31   A    
C2    H6    S    
C30   C32   A    
C16   O20   A    
C1    O18   A    
C32   C43   S    
Cu1   N1    S    
C42   O14   D    
Cu2   O22   S    
C13   C39   S    
Cu1   O19   S    
C20   C36   S    
C10   H19   S    
C21   C37   S    
C20   C21   D    
C8    C10   A    
Cu1   Cu2   S    
C4    H8    S    
C25   H20   S    
C39   O8    S    
C12   C33   S    
H14   O10   S    
C8    H12   S    
