data_mof_unit_27211.cif
_audit_creation_date              2012-12-11T15:08:52-0500
_audit_creation_method            fapswitch 2.2
_symmetry_space_group_name_H-M    P1
_symmetry_Int_Tables_number       1
_space_group_crystal_system       triclinic
_cell_length_a                    21.886984
_cell_length_b                    21.857069
_cell_length_c                    22.92137
_cell_angle_alpha                 89.996728
_cell_angle_beta                  89.997447
_cell_angle_gamma                 89.966259
_cell_volume                      10965.2449805

loop_
_atom_site_label
_atom_site_type_symbol
_atom_type_description
_atom_site_fract_x
_atom_site_fract_y
_atom_site_fract_z
_atom_type_partial_charge
C1    C     C_R   0.938760 0.135907 0.109227 -0.083581
C2    C     C_R   0.080839 0.152912 0.089548 -0.072170
C3    C     C_R   0.158047 0.689134 0.218399 0.449490
C4    C     C_R   0.312074 0.162794 0.787692 0.419254
C5    C     C_R   0.667425 0.765654 0.142872 0.429584
C6    C     C_R   0.234355 0.664857 0.858355 0.435538
C7    C     C_R   0.842276 0.311477 0.218686 0.452276
C8    C     C_R   0.187954 0.337077 0.287780 0.408318
C9    C     C_R   0.832542 0.734158 0.643049 0.423011
C10   C     C_R   0.265745 0.835182 0.358274 0.435798
C11   C     C_R   0.657747 0.188541 0.718665 0.449313
C12   C     C_R   0.812056 0.659446 0.284895 0.408903
C13   C     C_R   0.153322 0.918691 0.911443 -0.017522
C14   C     C_R   0.167994 0.264134 0.641960 0.423152
C15   C     C_R   0.735251 0.165021 0.358534 0.437832
C16   C     C_R   0.341770 0.810845 0.718200 0.445750
C17   C     C_R   0.890863 0.113573 0.141258 0.136901
C18   C     C_R   0.136977 0.862567 0.889269 0.114230
C19   C     C_R   0.136345 0.135844 0.112514 0.170837
C20   C     C_R   0.886653 0.891135 0.858673 0.151456
C21   C     C_R   0.108618 0.887173 0.141733 0.141091
C22   C     C_R   0.863004 0.137528 0.889341 0.112963
C23   C     C_R   0.864006 0.864298 0.113202 0.176794
C24   C     C_R   0.862621 0.066920 0.109514 -0.125474
C25   C     C_R   0.113360 0.108979 0.858769 0.156406
C26   C     C_R   0.391368 0.612792 0.641733 0.140782
C27   C     C_R   0.636995 0.362476 0.389337 0.112615
C28   C     C_R   0.635942 0.635654 0.613276 0.174327
C29   C     C_R   0.386655 0.391037 0.358762 0.154254
C30   C     C_R   0.609109 0.386447 0.641275 0.135992
C31   C     C_R   0.363047 0.637426 0.389230 0.114153
C32   C     C_R   0.363639 0.364121 0.612482 0.172168
C33   C     C_R   0.613416 0.608914 0.358704 0.152296
C34   C     C_R   0.879732 0.844258 0.759014 0.465793
C35   C     C_R   0.066221 0.136845 0.890095 -0.031127
C36   C     C_R   0.147731 0.206604 0.194093 0.507658
C37   C     C_R   0.789905 0.149143 0.809715 0.440138
C38   C     C_R   0.156343 0.882172 0.241431 0.448469
C39   C     C_R   0.120767 0.155356 0.759026 0.468120
C40   C     C_R   0.852768 0.791239 0.193209 0.508198
C41   C     C_R   0.210258 0.850879 0.809766 0.442054
C42   C     C_R   0.844786 0.118693 0.241578 0.473730
C43   C     C_R   0.379246 0.344608 0.259045 0.468914
C44   C     C_R   0.647158 0.708660 0.693333 0.514009
C45   C     C_R   0.289702 0.649124 0.309783 0.441790
C46   C     C_R   0.919309 0.847185 0.089791 -0.060928
C47   C     C_R   0.655204 0.381318 0.741583 0.473936
C48   C     C_R   0.620261 0.655657 0.258963 0.466479
C49   C     C_R   0.352275 0.293264 0.693988 0.508578
C50   C     C_R   0.710090 0.350853 0.309708 0.441261
C51   C     C_R   0.343659 0.617837 0.741434 0.447968
C52   C     C_R   0.852620 0.866930 0.810045 -0.121414
C53   C     C_R   0.173559 0.175042 0.146982 -0.120160
C54   C     C_R   0.822980 0.175147 0.855763 -0.133681
C55   C     C_R   0.132065 0.854060 0.191460 -0.138294
C56   C     C_R   0.147583 0.133581 0.810543 -0.124813
C57   C     C_R   0.846674 0.081365 0.911463 -0.013932
C58   C     C_R   0.826693 0.824607 0.147300 -0.118914
C59   C     C_R   0.177010 0.824940 0.855737 -0.133305
C60   C     C_R   0.867704 0.146725 0.191006 -0.115281
C61   C     C_R   0.352430 0.366424 0.310546 -0.120823
C62   C     C_R   0.673239 0.675311 0.647414 -0.115263
C63   C     C_R   0.323012 0.675067 0.355706 -0.132719
C64   C     C_R   0.632271 0.353291 0.691021 -0.114639
C65   C     C_R   0.647410 0.633048 0.310009 -0.123498
C66   C     C_R   0.326429 0.324873 0.646913 -0.120908
C67   C     C_R   0.677020 0.324854 0.355766 -0.133468
C68   C     C_R   0.136807 0.933780 0.109929 0.000552
C69   C     C_R   0.367862 0.645922 0.691412 -0.137428
C70   C     C_R   0.789433 0.866557 0.817394 -0.123319
C71   C     C_R   0.233178 0.185396 0.128283 -0.169816
C72   C     C_R   0.813531 0.235243 0.873949 -0.147493
C73   C     C_R   0.131093 0.790554 0.185720 -0.124130
C74   C     C_R   0.210609 0.135148 0.818779 -0.131173
C75   C     C_R   0.766696 0.815297 0.129051 -0.172921
C76   C     C_R   0.186156 0.764786 0.873841 -0.147415
C77   C     C_R   0.868311 0.210192 0.185103 -0.128620
C78   C     C_R   0.289407 0.364835 0.318798 -0.132809
C79   C     C_R   0.439058 0.635416 0.609530 -0.123034
C80   C     C_R   0.733253 0.684585 0.629202 -0.172861
C81   C     C_R   0.313913 0.735237 0.373780 -0.146364
C82   C     C_R   0.631675 0.289827 0.685112 -0.127520
C83   C     C_R   0.710610 0.633351 0.317269 -0.129272
C84   C     C_R   0.266829 0.314479 0.628178 -0.179449
C85   C     C_R   0.686479 0.264762 0.373967 -0.146176
C86   C     C_R   0.368726 0.709416 0.685577 -0.124850
C87   C     C_R   0.579809 0.346989 0.409437 -0.069972
C88   C     C_R   0.652083 0.578960 0.592128 -0.120669
C89   C     C_R   0.079793 0.847041 0.909370 -0.067951
C90   C     C_R   0.364145 0.438883 0.390802 -0.067325
C91   C     C_R   0.561219 0.364109 0.609241 -0.083832
C92   C     C_R   0.420224 0.652951 0.409345 -0.067865
C93   C     C_R   0.347649 0.420873 0.591613 -0.027887
C94   C     C_R   0.635846 0.561073 0.390807 -0.065384
C95   C     C_R   0.433788 0.363167 0.390092 -0.031884
C96   C     C_R   0.580666 0.652793 0.589831 -0.059731
C97   C     C_R   0.653323 0.418641 0.411449 -0.011725
C98   C     C_R   0.363188 0.566196 0.609927 0.002066
C99   C     C_R   0.566270 0.636820 0.390055 -0.029943
C100  C     C_R   0.152338 0.079103 0.091631 -0.028198
C101  C     C_R   0.419155 0.347074 0.589525 -0.073149
C102  C     C_R   0.346691 0.581307 0.411422 -0.016444
C103  C     C_R   0.637364 0.433087 0.609522 -0.122433
C104  C     C_R   0.751835 0.839360 0.777425 -0.048718
C105  C     C_R   0.269734 0.227875 0.156702 -0.042650
C106  C     C_R   0.770917 0.271991 0.845612 -0.025538
C107  C     C_R   0.158912 0.753299 0.225652 -0.028248
C108  C     C_R   0.248331 0.162521 0.779027 -0.015765
C109  C     C_R   0.730050 0.772333 0.156787 -0.017148
C110  C     C_R   0.228561 0.727863 0.845467 -0.024972
C111  C     C_R   0.864211 0.938971 0.890774 -0.065225
C112  C     C_R   0.841241 0.247334 0.225602 -0.029308
C113  C     C_R   0.251696 0.337366 0.279102 -0.010571
C114  C     C_R   0.769916 0.727496 0.656974 -0.012903
C115  C     C_R   0.271491 0.772163 0.345429 -0.024686
C116  C     C_R   0.658769 0.252681 0.725594 -0.028531
C117  C     C_R   0.748182 0.660401 0.277180 -0.015514
C118  C     C_R   0.230327 0.271870 0.656494 -0.011468
C119  C     C_R   0.729093 0.228015 0.345630 -0.025241
C120  C     C_R   0.340945 0.746689 0.725512 -0.027829
C121  C     C_R   0.153265 0.295605 0.256866 -0.191109
C122  C     C_R   0.060932 0.864569 0.109523 -0.123063
C123  C     C_R   0.868424 0.773664 0.676296 -0.216046
C124  C     C_R   0.226533 0.871032 0.324612 -0.206033
C125  C     C_R   0.698800 0.153959 0.750219 -0.182723
C126  C     C_R   0.846936 0.700645 0.253875 -0.188649
C127  C     C_R   0.132196 0.224861 0.675503 -0.214458
C128  C     C_R   0.774675 0.129357 0.324867 -0.205925
C129  C     C_R   0.301097 0.845557 0.750025 -0.184859
C130  C     C_R   0.653057 0.799155 0.754120 -0.150978
C131  C     C_R   0.367852 0.274969 0.175617 -0.176414
C132  C     C_R   0.725328 0.370648 0.824857 -0.204496
C133  C     C_R   0.920190 0.153013 0.909435 -0.069602
C134  C     C_R   0.198770 0.654433 0.250180 -0.180849
C135  C     C_R   0.346772 0.204230 0.756735 -0.190273
C136  C     C_R   0.631545 0.726157 0.176148 -0.215409
C137  C     C_R   0.273546 0.629002 0.824678 -0.205403
C138  C     C_R   0.801210 0.346054 0.250228 -0.179941
C139  C     C_R   0.842980 0.808671 0.721521 -0.069931
C140  C     C_R   0.180781 0.255221 0.217455 -0.101214
C141  C     C_R   0.740649 0.182039 0.787658 -0.077009
C142  C     C_R   0.191151 0.845350 0.279726 -0.070889
C143  C     C_R   0.157511 0.190985 0.721569 -0.074534
C144  C     C_R   0.847887 0.921013 0.092084 -0.120537
C145  C     C_R   0.819443 0.742347 0.215704 -0.104518
C146  C     C_R   0.259280 0.817694 0.787596 -0.076382
C147  C     C_R   0.809791 0.155244 0.279915 -0.081389
C148  C     C_R   0.342522 0.308893 0.221648 -0.105839
C149  C     C_R   0.680526 0.757486 0.715901 -0.135025
C150  C     C_R   0.240658 0.682310 0.287663 -0.076550
C151  C     C_R   0.690210 0.344764 0.779909 -0.081424
C152  C     C_R   0.657003 0.691163 0.221380 -0.074912
C153  C     C_R   0.319256 0.244600 0.717308 -0.106106
C154  C     C_R   0.759356 0.317967 0.287663 -0.076313
C155  C     C_R   0.135864 0.061126 0.890807 -0.068248
C156  C     C_R   0.308857 0.654668 0.779727 -0.071319
C157  C     C_R   0.779106 0.805231 0.732124 0.010063
C158  C     C_R   0.242931 0.263304 0.201501 0.008256
C159  C     C_R   0.733930 0.244702 0.802282 0.007625
C160  C     C_R   0.193573 0.781100 0.270318 0.010837
C161  C     C_R   0.221176 0.195567 0.732948 0.007904
C162  C     C_R   0.756980 0.735525 0.200479 0.007313
C163  C     C_R   0.265685 0.754976 0.802136 0.005592
C164  C     C_R   0.806892 0.219429 0.270405 0.010006
C165  C     C_R   0.278865 0.304264 0.233069 0.012774
C166  C     C_R   0.933768 0.863209 0.890041 -0.030446
C167  C     C_R   0.743001 0.764278 0.700693 0.011526
C168  C     C_R   0.234296 0.745038 0.302166 0.006418
C169  C     C_R   0.693116 0.280581 0.770395 0.009634
C170  C     C_R   0.720888 0.694554 0.231910 0.009052
C171  C     C_R   0.257121 0.236482 0.701331 0.008622
C172  C     C_R   0.766081 0.255306 0.302295 0.007921
C173  C     C_R   0.306378 0.718908 0.770260 0.010735
C174  C     C_R   0.687965 0.840248 0.785232 0.482993
C175  C     C_R   0.332098 0.235508 0.142237 0.483701
C176  C     C_R   0.764759 0.334983 0.858515 0.438061
H1    H     H_    0.968000 0.173681 0.120247 0.157719
H2    H     H_    0.060808 0.198140 0.090117 0.128208
H3    H     H_    0.198427 0.938844 0.911346 0.124171
H4    H     H_    0.821877 0.042115 0.121367 0.145171
H5    H     H_    0.041159 0.177473 0.878126 0.134731
H6    H     H_    0.939230 0.801904 0.090130 0.128306
H7    H     H_    0.801557 0.061236 0.911354 0.122945
H8    H     H_    0.177434 0.958727 0.121827 0.133930
H9    H     H_    0.468289 0.673146 0.620645 0.164938
H10   H     H_    0.557632 0.302920 0.406539 0.124560
H11   H     H_    0.696058 0.556723 0.595475 0.136587
H12   H     H_    0.057616 0.802974 0.906435 0.125161
H13   H     H_    0.325787 0.467585 0.380273 0.166351
H14   H     H_    0.531974 0.326340 0.620267 0.157841
H15   H     H_    0.442405 0.697017 0.406406 0.125170
H16   H     H_    0.303635 0.443070 0.594776 0.115226
H17   H     H_    0.673987 0.532127 0.380218 0.164702
H18   H     H_    0.458851 0.322540 0.378123 0.134376
H19   H     H_    0.560744 0.698075 0.590185 0.129238
H20   H     H_    0.698439 0.438771 0.411332 0.125632
H21   H     H_    0.322558 0.541245 0.621818 0.134250
H22   H     H_    0.541175 0.677408 0.378039 0.135873
H23   H     H_    0.196347 0.056897 0.094803 0.114810
H24   H     H_    0.439189 0.301846 0.590077 0.128192
H25   H     H_    0.301582 0.561161 0.411328 0.125775
H26   H     H_    0.678113 0.457880 0.621371 0.145971
H27   H     H_    0.769658 0.883970 0.857233 0.189431
H28   H     H_    0.250212 0.159598 0.091497 0.203515
H29   H     H_    0.840345 0.252579 0.909903 0.203093
H30   H     H_    0.112572 0.770088 0.146741 0.194543
H31   H     H_    0.230019 0.118449 0.859080 0.189085
H32   H     H_    0.749388 0.842326 0.093207 0.205605
H33   H     H_    0.159245 0.747532 0.909767 0.203050
H34   H     H_    0.826073 0.967916 0.880176 0.164223
H35   H     H_    0.886070 0.230671 0.145758 0.192559
H36   H     H_    0.269993 0.381579 0.359080 0.187920
H37   H     H_    0.750558 0.657580 0.593343 0.204906
H38   H     H_    0.340868 0.752501 0.409668 0.202967
H39   H     H_    0.613903 0.269357 0.645774 0.192624
H40   H     H_    0.730428 0.616051 0.357139 0.188655
H41   H     H_    0.249750 0.340404 0.591495 0.203183
H42   H     H_    0.659666 0.247427 0.409927 0.203046
H43   H     H_    0.387161 0.729847 0.646538 0.193935
H44   H     H_    0.104669 0.294566 0.264750 0.239327
H45   H     H_    0.031667 0.826864 0.120639 0.165040
H46   H     H_    0.916968 0.773989 0.668484 0.234721
H47   H     H_    0.226619 0.919672 0.332018 0.228375
H48   H     H_    0.698906 0.104985 0.744136 0.225784
H49   H     H_    0.895661 0.700676 0.261012 0.240015
H50   H     H_    0.083781 0.223758 0.667099 0.234963
H51   H     H_    0.774859 0.080675 0.332148 0.225615
H52   H     H_    0.301166 0.894520 0.743958 0.225436
H53   H     H_    0.604326 0.799177 0.761210 0.251318
H54   H     H_    0.416245 0.276199 0.167098 0.249787
H55   H     H_    0.725137 0.419328 0.832141 0.225580
H56   H     H_    0.942370 0.197081 0.906530 0.124769
H57   H     H_    0.198681 0.605466 0.244151 0.225709
H58   H     H_    0.395367 0.205279 0.764622 0.239398
H59   H     H_    0.582998 0.725842 0.168362 0.234911
H60   H     H_    0.273499 0.580369 0.832126 0.228576
H61   H     H_    0.801097 0.395029 0.244140 0.224368
H62   H     H_    0.951356 0.960506 0.759578 0.405739
H63   H     H_    0.016942 0.104382 0.223422 0.404240
H64   H     H_    0.910695 0.101286 0.773478 0.412086
H65   H     H_    0.045275 0.979896 0.244092 0.395180
H66   H     H_    0.048997 0.038589 0.760293 0.406464
H67   H     H_    0.803910 0.943248 0.095414 0.135185
H68   H     H_    0.986476 0.889368 0.222238 0.380404
H69   H     H_    0.089870 0.899892 0.773615 0.412377
H70   H     H_    0.912166 0.992770 0.189183 0.383077
H71   H     H_    0.450993 0.461391 0.260278 0.406259
H72   H     H_    0.513308 0.610652 0.722281 0.380459
H73   H     H_    0.410043 0.600077 0.273417 0.412371
H74   H     H_    0.587869 0.507295 0.689203 0.382947
H75   H     H_    0.548565 0.539489 0.259800 0.405775
H76   H     H_    0.482965 0.395576 0.723418 0.404163
H77   H     H_    0.589282 0.398595 0.273452 0.412088
H78   H     H_    0.174221 0.032422 0.880276 0.166362
H79   H     H_    0.454754 0.519952 0.744137 0.395508
H80   H     H_    0.557114 0.919316 0.850495 0.406367
H81   H     H_    0.457623 0.190524 0.045232 0.408293
H82   H     H_    0.812569 0.466793 0.887551 0.365185
H83   H     H_    0.145723 0.558108 0.158889 0.379639
H84   H     H_    0.428824 0.090432 0.786047 0.372500
H85   H     H_    0.558782 0.746913 0.060068 0.373627
H86   H     H_    0.185865 0.533283 0.887462 0.365811
H87   H     H_    0.858652 0.443747 0.162400 0.377911
H88   H     H_    0.071151 0.409375 0.286067 0.371245
H89   H     H_    0.958856 0.822613 0.878037 0.135758
H90   H     H_    0.941247 0.752816 0.560259 0.374042
H91   H     H_    0.314345 0.966750 0.387213 0.365255
H92   H     H_    0.641533 0.056337 0.662240 0.380928
H93   H     H_    0.927754 0.585333 0.281454 0.370854
H94   H     H_    0.060386 0.242574 0.558372 0.374410
H95   H     H_    0.687438 0.033209 0.387585 0.364922
H96   H     H_    0.354021 0.941853 0.658616 0.378397
N1    N     N_R   0.940200 0.105310 0.059970 -0.057778
N2    N     N_R   0.059800 0.105310 0.059970 -0.054839
N3    N     N_R   0.105310 0.940200 0.940030 -0.055019
N4    N     N_R   0.894690 0.059800 0.059970 -0.056455
N5    N     N_R   0.059800 0.105310 0.940030 -0.067237
N6    N     N_R   0.940200 0.894690 0.059970 -0.055809
N7    N     N_R   0.894690 0.059800 0.940030 -0.053394
N8    N     N_R   0.105310 0.940200 0.059970 -0.070762
N9    N     N_R   0.440200 0.605310 0.559970 -0.059319
N10   N     N_R   0.559800 0.394690 0.440030 -0.049051
N11   N     N_R   0.605310 0.559800 0.559970 -0.057589
N12   N     N_R   0.059800 0.894690 0.940030 -0.048956
N13   N     N_R   0.394690 0.440200 0.440030 -0.069480
N14   N     N_R   0.559800 0.394690 0.559970 -0.057838
N15   N     N_R   0.440200 0.605310 0.440030 -0.049108
N16   N     N_R   0.394690 0.440200 0.559970 -0.057582
N17   N     N_R   0.605310 0.559800 0.440030 -0.065463
N18   N     N_R   0.440200 0.394690 0.440030 -0.067147
N19   N     N_R   0.559800 0.605310 0.559970 -0.056040
N20   N     N_R   0.605310 0.440200 0.440030 -0.053862
N21   N     N_R   0.394690 0.559800 0.559970 -0.070827
N22   N     N_R   0.559800 0.605310 0.440030 -0.065714
N23   N     N_R   0.105310 0.059800 0.059970 -0.057394
N24   N     N_R   0.440200 0.394690 0.559970 -0.054941
N25   N     N_R   0.394690 0.559800 0.440030 -0.055358
N26   N     N_R   0.605310 0.440200 0.559970 -0.056551
N27   N     N_R   0.894690 0.940200 0.940030 -0.065451
N28   N     N_R   0.059800 0.894690 0.059970 -0.059227
N29   N     N_R   0.940200 0.105310 0.940030 -0.048984
N30   N     N_R   0.894690 0.940200 0.059970 -0.057481
N31   N     N_R   0.105310 0.059800 0.940030 -0.069529
N32   N     N_R   0.940200 0.894690 0.940030 -0.065533
Ni1   Ni    Ni4+2 1.000000 0.104370 0.000000 0.255009
Ni2   Ni    Ni4+2 1.000000 0.895630 0.000000 0.254529
Ni3   Ni    Ni4+2 0.104370 0.000000 0.000000 0.252287
Ni4   Ni    Ni4+2 0.895630 0.000000 0.000000 0.252232
Ni5   Ni    Ni4+2 0.500000 0.604370 0.500000 0.254779
Ni6   Ni    Ni4+2 0.500000 0.395630 0.500000 0.254855
Ni7   Ni    Ni4+2 0.604370 0.500000 0.500000 0.254346
Ni8   Ni    Ni4+2 0.395630 0.500000 0.500000 0.253491
O1    O     O_2   0.997967 0.812272 0.760712 -0.283195
O2    O     O_2   0.129034 0.970661 0.319649 -0.220697
O3    O     O_2   0.196466 0.998198 0.238729 -0.254085
O4    O     O_3   0.080670 0.985861 0.217825 -0.488372
O5    O     O_2   0.002405 0.186765 0.758996 -0.282637
O6    O     O_2   0.037255 0.123663 0.677239 -0.229643
O7    O     O_3   0.023299 0.071350 0.777279 -0.500996
O8    O     O_2   0.916568 0.810758 0.292182 -0.197214
O9    O     O_2   0.972813 0.771092 0.208107 -0.304087
O10   O     O_3   0.943410 0.885815 0.209505 -0.520003
O11   O     O_2   0.224634 0.972254 0.795300 -0.269497
O12   O     O_2   0.964307 0.874012 0.677558 -0.229402
O13   O     O_2   0.192713 0.914183 0.709602 -0.228567
O14   O     O_3   0.112206 0.935794 0.788929 -0.490390
O15   O     O_2   0.874109 0.032425 0.321321 -0.177179
O16   O     O_2   0.809959 0.000911 0.239250 -0.298156
O17   O     O_3   0.926342 0.018981 0.221612 -0.513316
O18   O     O_2   0.497612 0.313222 0.258970 -0.285763
O19   O     O_2   0.462719 0.376324 0.177226 -0.210984
O20   O     O_3   0.476703 0.428634 0.277255 -0.502316
O21   O     O_2   0.583217 0.689114 0.792226 -0.203180
O22   O     O_2   0.527122 0.728967 0.708139 -0.300280
O23   O     O_3   0.977241 0.928078 0.776896 -0.502062
O24   O     O_3   0.556347 0.614197 0.709458 -0.520579
O25   O     O_2   0.275307 0.527746 0.295371 -0.268512
O26   O     O_2   0.307103 0.585803 0.209615 -0.228304
O27   O     O_3   0.387724 0.564213 0.288841 -0.490452
O28   O     O_2   0.625876 0.467576 0.821326 -0.176724
O29   O     O_2   0.690058 0.499092 0.739268 -0.297481
O30   O     O_3   0.573677 0.481053 0.721606 -0.513423
O31   O     O_2   0.502058 0.687759 0.260750 -0.283719
O32   O     O_2   0.535569 0.625874 0.177642 -0.229044
O33   O     O_3   0.522692 0.571956 0.277068 -0.502087
O34   O     O_2   0.085064 0.183399 0.293021 -0.199380
O35   O     O_2   0.414847 0.316453 0.792969 -0.197390
O36   O     O_2   0.472613 0.275703 0.710268 -0.308009
O37   O     O_3   0.440838 0.389939 0.708621 -0.464542
O38   O     O_2   0.723386 0.472248 0.294648 -0.268901
O39   O     O_2   0.692039 0.413420 0.209253 -0.226913
O40   O     O_3   0.611324 0.434799 0.288502 -0.488178
O41   O     O_2   0.371097 0.529432 0.819702 -0.219436
O42   O     O_2   0.303593 0.501789 0.738879 -0.252727
O43   O     O_3   0.419359 0.514153 0.717839 -0.488922
O44   O     O_2   0.658614 0.864981 0.896066 -0.230878
O45   O     O_2   0.027399 0.224266 0.210309 -0.307131
O46   O     O_2   0.675962 0.952696 0.831469 -0.241581
O47   O     O_3   0.574680 0.892105 0.820272 -0.464266
O48   O     O_2   0.365027 0.127046 0.097886 -0.257054
O49   O     O_2   0.335394 0.207225 0.028585 -0.233198
O50   O     O_3   0.441752 0.215264 0.078122 -0.472039
O51   O     O_2   0.795357 0.341458 0.971494 -0.195335
O52   O     O_2   0.874957 0.366057 0.900445 -0.270314
O53   O     O_3   0.789540 0.446356 0.919244 -0.440520
O54   O     O_2   0.046220 0.673832 0.171895 -0.202452
O55   O     O_2   0.133731 0.661768 0.106694 -0.243089
O56   O     O_3   0.059067 0.110005 0.208613 -0.464589
O57   O     O_3   0.110008 0.574531 0.180351 -0.455387
O58   O     O_2   0.341179 0.139390 0.898816 -0.191956
O59   O     O_2   0.324416 0.050806 0.835603 -0.246880
O60   O     O_3   0.425547 0.111638 0.824120 -0.439796
O61   O     O_2   0.633952 0.875099 0.101253 -0.215876
O62   O     O_2   0.663950 0.797655 0.029759 -0.245028
O63   O     O_3   0.557576 0.787640 0.079006 -0.443443
O64   O     O_2   0.203819 0.658525 0.971367 -0.194840
O65   O     O_2   0.124027 0.634346 0.900392 -0.270043
O66   O     O_3   0.209033 0.553600 0.919129 -0.438996
O67   O     O_2   0.776525 0.027752 0.794725 -0.266913
O68   O     O_2   0.954604 0.324788 0.172800 -0.206012
O69   O     O_2   0.867609 0.341244 0.107798 -0.241767
O70   O     O_3   0.893579 0.425628 0.183801 -0.457126
O71   O     O_2   0.158873 0.360658 0.398874 -0.179927
O72   O     O_2   0.175552 0.449139 0.335501 -0.242540
O73   O     O_3   0.074458 0.388220 0.324165 -0.426248
O74   O     O_2   0.865941 0.624698 0.601418 -0.207801
O75   O     O_2   0.836047 0.702193 0.529930 -0.242732
O76   O     O_3   0.942405 0.712096 0.579217 -0.436399
O77   O     O_2   0.296416 0.841586 0.471244 -0.193829
O78   O     O_2   0.807935 0.086511 0.709297 -0.225964
O79   O     O_2   0.376140 0.865660 0.400157 -0.270512
O80   O     O_3   0.291204 0.946473 0.418925 -0.440565
O81   O     O_2   0.545427 0.175161 0.672799 -0.206723
O82   O     O_2   0.632423 0.158899 0.607748 -0.241631
O83   O     O_3   0.606572 0.074376 0.683653 -0.444151
O84   O     O_2   0.842412 0.635047 0.395514 -0.180904
O85   O     O_2   0.823549 0.547022 0.332163 -0.242544
O86   O     O_3   0.925307 0.606491 0.319608 -0.426876
O87   O     O_2   0.134035 0.372273 0.597645 -0.206402
O88   O     O_2   0.165459 0.293392 0.528167 -0.242683
O89   O     O_3   0.888621 0.065114 0.788562 -0.488379
O90   O     O_3   0.058640 0.283647 0.576577 -0.435288
O91   O     O_2   0.704656 0.158540 0.471516 -0.193817
O92   O     O_2   0.625054 0.133946 0.400478 -0.271682
O93   O     O_3   0.710471 0.053645 0.419272 -0.439990
O94   O     O_2   0.453492 0.826075 0.671432 -0.189528
O95   O     O_2   0.365825 0.838173 0.606434 -0.244052
O96   O     O_3   0.389773 0.925415 0.680010 -0.449506
S1    S     S_3+6 0.956725 0.863627 0.742002 -0.017526
S2    S     S_3+6 0.576732 0.685827 0.726995 -0.012881
S3    S     S_3+6 0.314183 0.579966 0.274641 -0.017730
S4    S     S_3+6 0.637301 0.459237 0.757153 0.007825
S5    S     S_3+6 0.543231 0.636339 0.242063 -0.017569
S6    S     S_3+6 0.421924 0.318254 0.727740 -0.000178
S7    S     S_3+6 0.684968 0.419576 0.274251 -0.017214
S8    S     S_3+6 0.358500 0.538991 0.755829 0.005755
S9    S     S_3+6 0.649878 0.889253 0.835273 0.025748
S10   S     S_3+6 0.368118 0.194398 0.084942 0.023481
S11   S     S_3+6 0.807955 0.371798 0.913898 0.034279
S12   S     S_3+6 0.078035 0.181655 0.227787 -0.000602
S13   S     S_3+6 0.110531 0.650363 0.167481 0.037364
S14   S     S_3+6 0.350182 0.114462 0.838327 0.036690
S15   S     S_3+6 0.631238 0.808147 0.086575 0.033821
S16   S     S_3+6 0.191011 0.628256 0.913784 0.034671
S17   S     S_3+6 0.890993 0.350256 0.168882 0.036333
S18   S     S_3+6 0.149830 0.385471 0.338346 0.048355
S19   S     S_3+6 0.868721 0.691653 0.586756 0.041948
S20   S     S_3+6 0.309176 0.871802 0.413622 0.034348
S21   S     S_3+6 0.609066 0.149772 0.668829 0.037847
S22   S     S_3+6 0.850196 0.610298 0.334803 0.047368
S23   S     S_3+6 0.814988 0.080384 0.774299 -0.016182
S24   S     S_3+6 0.132042 0.304964 0.584414 0.043230
S25   S     S_3+6 0.692056 0.128204 0.413923 0.034330
S26   S     S_3+6 0.389183 0.849581 0.667163 0.043963
S27   S     S_3+6 0.141561 0.961036 0.255773 0.005092
S28   S     S_3+6 0.044052 0.135237 0.741579 -0.016727
S29   S     S_3+6 0.923119 0.814133 0.226960 -0.011861
S30   S     S_3+6 0.185726 0.920032 0.774636 -0.018211
S31   S     S_3+6 0.862701 0.040775 0.257147 0.007576
S32   S     S_3+6 0.455950 0.364744 0.241568 -0.013068

loop_
_geom_bond_atom_site_label_1
_geom_bond_atom_site_label_2
_ccdc_geom_bond_type
C5    C136  A    
C73   H30   S    
C23   C58   S    
C38   C142  A    
C104  C157  A    
C102  N25   A    
C101  H24   S    
O86   S22   S    
O9    S29   D    
C130  C174  A    
O38   S7    D    
C40   C145  A    
C9    C114  A    
C121  C140  A    
C49   C153  A    
C44   C62   A    
C10   C124  A    
C147  C164  A    
C15   S25   S    
O6    S28   D    
O54   S13   D    
C8    C121  A    
C125  H48   S    
C12   C126  A    
N28   Ni2   S    
C136  H59   S    
N30   Ni4   S    
N1    N4    A    
C95   N18   A    
C36   C53   A    
C117  C170  A    
O14   S30   S    
C27   C97   A    
C38   C55   A    
C48   C65   A    
C159  C169  A    
H63   O56   S    
O94   S26   D    
C138  C154  A    
C23   C46   A    
O43   S8    S    
C148  C165  A    
C100  N23   A    
C42   C147  A    
C136  C152  A    
O58   S14   D    
C87   H10   S    
C112  C164  A    
C156  C173  A    
C67   C85   A    
C40   C58   A    
C47   C64   A    
C36   S12   S    
O22   S2    D    
O95   S26   D    
C104  C174  A    
C130  H53   S    
H65   O4    S    
O29   S4    D    
C77   C112  A    
N2    N23   A    
C31   C63   S    
C2    N2    A    
C20   C111  A    
C4    C108  A    
C166  N32   A    
C105  C158  A    
N29   Ni1   S    
C19   C100  A    
C150  C168  A    
O82   S21   D    
H96   O96   S    
C127  C143  A    
N15   Ni5   S    
C16   C129  A    
C4    C135  A    
C45   S3    S    
O8    S29   D    
C13   C18   A    
C131  H54   S    
N10   N20   A    
C72   C106  A    
C79   H9    S    
N8    N28   A    
C89   H12   S    
H70   O17   S    
C35   H5    S    
C47   S4    S    
H86   O66   S    
N1    Ni1   S    
C53   C71   A    
C78   H36   S    
C43   S32   S    
C43   C61   A    
C93   H16   S    
C68   H8    S    
C14   S24   S    
C2    C19   A    
C18   C89   A    
O45   S12   D    
C26   C79   A    
C93   N16   A    
C128  C147  A    
C68   N8    A    
C79   N9    A    
H94   O90   S    
C28   C96   A    
H68   O10   S    
C83   C117  A    
O3    S27   D    
N4    Ni4   S    
H79   O43   S    
C118  C171  A    
O61   S15   D    
C129  H52   S    
C9    C123  A    
C70   C104  A    
N16   N24   A    
O96   S26   S    
C11   S21   S    
C9    S19   S    
C13   N3    A    
C12   C117  A    
O18   S32   D    
C139  C157  A    
O5    S28   D    
C155  N31   A    
C26   C69   S    
O49   S10   D    
C51   C69   A    
C143  C161  A    
C158  C165  A    
C103  N26   A    
O72   S18   D    
C99   N22   A    
C33   C94   A    
C83   H40   S    
C21   C55   S    
C114  C167  A    
C22   C54   S    
H85   O63   S    
C62   C80   A    
C102  H25   S    
H80   O47   S    
C16   C120  A    
O48   S10   D    
C106  C159  A    
C10   C115  A    
C123  C139  A    
C7    C112  A    
C85   C119  A    
C140  C158  A    
N21   Ni8   S    
N12   Ni2   S    
C141  C159  A    
C96   H19   S    
C41   C146  A    
O89   S23   S    
C125  C141  A    
O90   S24   S    
C24   H4    S    
C127  H50   S    
O2    S27   D    
O76   S19   S    
C42   S31   S    
C50   C67   A    
C92   H15   S    
H81   O50   S    
N32   Ni2   S    
C32   C93   A    
O60   S14   S    
C130  C149  A    
C92   N15   A    
C126  C145  A    
C74   H31   S    
C71   H28   S    
O56   S12   S    
C29   C61   S    
C135  H58   S    
C49   C66   A    
C22   C133  A    
O15   S31   D    
H83   O57   S    
H93   O86   S    
C82   H39   S    
O34   S12   D    
C33   C99   A    
C85   H42   S    
N25   Ni8   S    
O81   S21   D    
O21   S2    D    
O93   S25   S    
H92   O83   S    
C153  C171  A    
O79   S20   D    
C27   C87   A    
O44   S9    D    
C95   H18   S    
C21   C68   A    
C50   S7    S    
O83   S21   S    
C98   N21   A    
C163  C173  A    
C132  H55   S    
H95   O93   S    
C24   N4    A    
H77   O40   S    
O65   S16   D    
C89   N12   A    
H66   O7    S    
C98   H21   S    
C133  N29   A    
C39   C143  A    
C37   S23   S    
O33   S5    S    
C80   H37   S    
C108  C161  A    
C1    C17   A    
C151  C169  A    
C47   C151  A    
C3    C134  A    
C46   H6    S    
C6    C137  A    
H75   O33   S    
C87   N10   A    
O70   S17   S    
N22   Ni5   S    
C99   H22   S    
C15   C119  A    
H87   O70   S    
C164  C172  A    
C17   C60   S    
C161  C171  A    
N3    Ni3   S    
C18   C59   S    
H64   O89   S    
C84   C118  A    
C105  C175  A    
C106  C176  A    
C32   C101  A    
C86   C120  A    
C2    H2    S    
C115  C168  A    
O20   S32   S    
C59   C76   A    
C28   C62   S    
N17   Ni7   S    
N23   Ni3   S    
O92   S25   D    
C30   C64   S    
N19   Ni5   S    
C149  C167  A    
C157  C167  A    
N5    Ni1   S    
C107  C160  A    
O71   S18   D    
N14   Ni6   S    
O75   S19   D    
C37   C141  A    
C11   C125  A    
N9    Ni5   S    
C109  C162  A    
C113  C165  A    
O17   S31   S    
C155  H78   S    
N11   Ni7   S    
C49   S6    S    
C73   C107  A    
O27   S3    S    
C138  H61   S    
O36   S6    D    
C45   C150  A    
C132  C176  A    
C34   S1    S    
C21   C122  A    
O30   S4    S    
O35   S6    D    
C43   C148  A    
C88   H11   S    
C30   C103  A    
C25   C56   S    
H62   O23   S    
O69   S17   D    
C44   S2    S    
N8    Ni3   S    
C94   N17   A    
N27   N32   A    
C29   C90   A    
C4    S14   S    
C5    S15   S    
O47   S9    S    
C56   C74   A    
C31   C102  A    
O73   S18   S    
H76   O37   S    
O53   S11   S    
C142  C160  A    
N11   N19   A    
C14   C127  A    
O31   S5    D    
O11   S30   D    
N26   Ni7   S    
O23   S1    S    
C75   H32   S    
C162  C170  A    
O74   S19   D    
O88   S24   D    
C133  H56   S    
C39   S28   S    
C137  H60   S    
C11   C116  A    
C129  C146  A    
C8    C113  A    
C25   C35   A    
O26   S3    D    
O51   S11   D    
N18   Ni6   S    
C111  N27   A    
C15   C128  A    
C71   C105  A    
C23   C144  A    
C126  H49   S    
O63   S15   S    
O64   S16   D    
C32   C66   S    
C144  N30   A    
C70   H27   S    
N15   N25   A    
C7    C138  A    
O67   S23   D    
C110  C163  A    
C72   H29   S    
C20   C166  A    
C34   C52   A    
N17   N22   A    
O25   S3    D    
C7    S17   S    
C103  H26   S    
C82   C116  A    
N20   Ni7   S    
H91   O80   S    
O28   S4    D    
N7    Ni4   S    
C5    C109  A    
O46   S9    D    
C131  C175  A    
C46   N6    A    
C166  H89   S    
C16   S26   S    
C122  N28   A    
C86   H43   S    
N27   Ni4   S    
C160  C168  A    
C111  H34   S    
C84   H41   S    
O7    S28   S    
C74   C108  A    
H72   O24   S    
H74   O30   S    
O40   S7    S    
C76   C110  A    
H88   O73   S    
C176  S11   S    
C132  C151  A    
C91   N14   A    
H69   O14   S    
N2    Ni1   S    
N5    N31   A    
C174  S9    S    
C76   H33   S    
H82   O53   S    
N7    N29   A    
C25   C155  A    
C94   H17   S    
O62   S15   D    
C96   N19   A    
C22   C57   A    
C33   C65   S    
C123  H46   S    
O4    S27   S    
C63   C81   A    
O39   S7    D    
C97   H20   S    
O77   S20   D    
O57   S13   S    
C41   S30   S    
C65   C83   A    
C145  C162  A    
C134  C150  A    
C144  H67   S    
C34   C139  A    
C152  C170  A    
C3    S13   S    
C12   S22   S    
C40   S29   S    
O52   S11   D    
C38   S27   S    
C1    H1    S    
H71   O20   S    
C39   C56   A    
C14   C118  A    
C122  H45   S    
C28   C88   A    
O55   S13   D    
C1    N1    A    
C119  C172  A    
N6    Ni2   S    
N9    N21   A    
C19   C53   S    
H73   O27   S    
C6    C110  A    
C124  C142  A    
O87   S24   D    
O19   S32   D    
N10   Ni6   S    
C58   C75   A    
H90   O76   S    
C91   H14   S    
C51   C156  A    
C75   C109  A    
C17   C24   A    
O66   S16   S    
O78   S23   D    
O68   S17   D    
O41   S8    D    
O80   S20   S    
C27   C67   S    
C41   C59   A    
O12   S1    D    
C42   C60   A    
C29   C95   A    
N31   Ni3   S    
C3    C107  A    
C13   H3    S    
O1    S1    D    
N13   N18   A    
C45   C63   A    
C137  C156  A    
C55   C73   A    
C44   C149  A    
O91   S25   D    
C81   H38   S    
C124  H47   S    
C61   C78   A    
C81   C115  A    
C90   N13   A    
C154  C172  A    
C131  C148  A    
O32   S5    D    
O59   S14   D    
N3    N12   A    
C36   C140  A    
C64   C82   A    
C26   C98   A    
C37   C54   A    
C57   N7    A    
O84   S22   D    
N6    N30   A    
O10   S29   S    
C80   C114  A    
O85   S22   D    
C10   S20   S    
C88   N11   A    
C51   S8    S    
C57   H7    S    
C48   S5    S    
C35   N5    A    
H84   O60   S    
O16   S31   D    
O42   S8    D    
C30   C91   A    
C101  N24   A    
O24   S2    S    
N13   Ni8   S    
C146  C163  A    
O13   S30   D    
N24   Ni6   S    
C135  C153  A    
C97   N20   A    
C60   C77   A    
C48   C152  A    
C20   C52   S    
C50   C154  A    
C128  H51   S    
C121  H44   S    
C134  H57   S    
C8    S18   S    
C116  C169  A    
O50   S10   S    
O37   S6    S    
C6    S16   S    
C52   C70   A    
C77   H35   S    
C66   C84   A    
C78   C113  A    
C100  H23   S    
C120  C173  A    
C54   C72   A    
C31   C92   A    
N14   N26   A    
C175  S10   S    
N16   Ni8   S    
C69   C86   A    
C90   H13   S    
