data_mof_unit_33159.cif
_audit_creation_date              2013-03-05T15:54:32-0500
_audit_creation_method            fapswitch 2.2
_symmetry_space_group_name_H-M    P1
_symmetry_Int_Tables_number       1
_space_group_crystal_system       triclinic
_cell_length_a                    19.051885
_cell_length_b                    18.405145
_cell_length_c                    12.344504
_cell_angle_alpha                 90.000389
_cell_angle_beta                  129.074471
_cell_angle_gamma                 89.994445
_cell_volume                      3360.43667404

loop_
_atom_site_label
_atom_site_type_symbol
_atom_site_description
_atom_site_fract_x
_atom_site_fract_y
_atom_site_fract_z
_atom_type_partial_charge
O1    O     O_R   0.608610 0.924520 0.551740 -0.576594
O2    O     O_R   0.608610 0.075480 0.551740 -0.574063
O3    O     O_R   0.108610 0.424520 0.551740 -0.574168
O4    O     O_R   0.108610 0.575480 0.551740 -0.576390
O5    O     O_R   0.564110 0.924510 0.685150 -0.607102
O6    O     O_R   0.564110 0.075490 0.685150 -0.603367
O7    O     O_R   0.064110 0.424510 0.685150 -0.603238
O8    O     O_R   0.064110 0.575490 0.685150 -0.607197
C1    C     C_R   0.610482 0.896822 0.650771 0.796351
C2    C     C_R   0.611786 0.102166 0.652331 0.794243
C3    C     C_R   0.111873 0.397894 0.652438 0.793998
C4    C     C_R   0.110446 0.603196 0.650732 0.796524
Cu1   Cu    Cu3+1 0.526340 0.000000 0.421010 0.958080
Cu2   Cu    Cu3+1 0.026340 0.500000 0.421010 0.958231
Cu3   Cu    Cu3+1 0.473640 0.000000 0.578990 0.922916
Cu4   Cu    Cu3+1 0.973640 0.500000 0.578990 0.922929
O9    O     O_R   0.435880 0.075470 0.314850 -0.580895
O10   O     O_R   0.435880 0.924530 0.314850 -0.585138
O11   O     O_R   0.935880 0.575470 0.314850 -0.584761
O12   O     O_R   0.935880 0.424530 0.314850 -0.581194
O13   O     O_R   0.391380 0.075460 0.448260 -0.595054
O14   O     O_R   0.391380 0.924540 0.448260 -0.596144
O15   O     O_R   0.891380 0.575460 0.448260 -0.596086
O16   O     O_R   0.891380 0.424540 0.448260 -0.595097
C5    C     C_R   0.384436 0.098979 0.342791 0.824468
C6    C     C_R   0.384002 0.901324 0.342059 0.823451
C7    C     C_R   0.883942 0.598629 0.341977 0.823401
C8    C     C_R   0.884455 0.400999 0.342811 0.824387
C9    C     C_R   0.661910 0.301723 0.129853 0.351284
C10   C     C_R   0.655193 0.688027 0.118768 0.351689
C11   C     C_R   0.155980 0.810790 0.120497 0.352393
C12   C     C_R   0.161327 0.197390 0.128496 0.351525
H1    H     H_    0.231672 0.873254 0.309622 0.184188
H2    H     H_    0.233363 0.130627 0.312564 0.187974
H3    H     H_    0.734160 0.368318 0.314160 0.188381
H4    H     H_    0.730811 0.625459 0.307817 0.184244
H5    H     H_    0.521342 0.240536 0.886402 0.177340
H6    H     H_    0.518865 0.762378 0.889964 0.179607
H7    H     H_    0.019426 0.736765 0.891503 0.179566
H8    H     H_    0.021007 0.258656 0.884999 0.177312
C13   C     C_R   0.309340 0.853061 0.240511 -0.119361
C14   C     C_R   0.311877 0.149377 0.244591 -0.120413
C15   C     C_R   0.811972 0.350514 0.244709 -0.120577
C16   C     C_R   0.809103 0.646706 0.240157 -0.119290
C17   C     C_R   0.750480 0.169973 0.741467 -0.184198
C18   C     C_R   0.741108 0.820279 0.726995 -0.161245
C19   C     C_R   0.240804 0.679955 0.726531 -0.159535
C20   C     C_R   0.251169 0.330737 0.742666 -0.184652
C21   C     C_R   0.304499 0.733045 0.811321 -0.063351
C22   C     C_R   0.319979 0.282961 0.836446 -0.089539
C23   C     C_R   0.819020 0.218055 0.834704 -0.088257
C24   C     C_R   0.804882 0.767245 0.811917 -0.063579
C25   C     C_R   0.302868 0.768890 0.908759 -0.148794
C26   C     C_R   0.317564 0.245839 0.932041 -0.134278
C27   C     C_R   0.816746 0.255014 0.930580 -0.133785
C28   C     C_R   0.803170 0.731322 0.909214 -0.147788
C29   C     C_R   0.743253 0.246323 0.931906 0.083163
C30   C     C_R   0.733961 0.745353 0.918505 0.095541
C31   C     C_R   0.233870 0.754666 0.918453 0.096033
C32   C     C_R   0.243675 0.254044 0.932538 0.083172
C33   C     C_R   0.668266 0.204431 0.824908 0.083186
C34   C     C_R   0.661705 0.791415 0.817595 0.083622
C35   C     C_R   0.161670 0.708528 0.817706 0.083544
C36   C     C_R   0.168548 0.295688 0.825125 0.083327
C37   C     C_R   0.233689 0.785630 0.023772 0.037104
C38   C     C_R   0.241502 0.221970 0.035261 0.035548
C39   C     C_R   0.741346 0.278124 0.035084 0.035608
C40   C     C_R   0.733583 0.714190 0.023489 0.036875
C41   C     C_R   0.662600 0.272157 0.024450 0.040221
C42   C     C_R   0.655490 0.719785 0.014414 0.036989
C43   C     C_R   0.155922 0.779540 0.015466 0.036697
C44   C     C_R   0.162396 0.227408 0.023762 0.040121
C45   C     C_R   0.585067 0.240116 0.905518 -0.173413
C46   C     C_R   0.580104 0.757519 0.902280 -0.185492
C47   C     C_R   0.080500 0.741834 0.903400 -0.186027
C48   C     C_R   0.084894 0.259364 0.904624 -0.173512
C49   C     C_R   0.587448 0.207888 0.806609 -0.206246
C50   C     C_R   0.582783 0.791973 0.805064 -0.209715
C51   C     C_R   0.082918 0.707743 0.805646 -0.209597
C52   C     C_R   0.087521 0.291868 0.806165 -0.206350
C53   C     C_R   0.310295 0.820452 0.139760 -0.240884
C54   C     C_R   0.316285 0.185049 0.149884 -0.240647
C55   C     C_R   0.816091 0.315215 0.149397 -0.240547
C56   C     C_R   0.810269 0.679614 0.139830 -0.240989
C57   C     C_R   0.233119 0.846892 0.232550 -0.244853
C58   C     C_R   0.235580 0.156830 0.236169 -0.250749
C59   C     C_R   0.736080 0.342478 0.237200 -0.250714
C60   C     C_R   0.732468 0.652206 0.231247 -0.245109
C61   C     C_R   0.675770 0.161242 0.737590 -0.105128
C62   C     C_R   0.670302 0.834435 0.730859 -0.115896
C63   C     C_R   0.170166 0.665637 0.730717 -0.116346
C64   C     C_R   0.176121 0.339025 0.738050 -0.104894
H9    H     H_    0.372556 0.822444 0.155071 0.174406
H10   H     H_    0.379205 0.182090 0.167629 0.175851
H11   H     H_    0.878762 0.318552 0.166455 0.175825
H12   H     H_    0.872751 0.678056 0.155736 0.174786
H13   H     H_    0.757002 0.138462 0.674104 0.160516
H14   H     H_    0.747846 0.850714 0.658882 0.162631
H15   H     H_    0.247476 0.649602 0.658271 0.163076
H16   H     H_    0.257762 0.362401 0.675527 0.160271
H17   H     H_    0.354707 0.809233 0.971709 0.136569
H18   H     H_    0.373810 0.210151 0.001836 0.171174
H19   H     H_    0.872763 0.290969 0.999917 0.170245
H20   H     H_    0.855071 0.691031 0.972328 0.137245
H21   H     H_    0.357131 0.745052 0.804312 0.158480
H22   H     H_    0.377073 0.276362 0.838051 0.159564
H23   H     H_    0.875809 0.225032 0.835661 0.159605
H24   H     H_    0.857625 0.755344 0.805110 0.158715
H25   H     H_    0.524152 0.187326 0.713972 0.174916
H26   H     H_    0.520664 0.816876 0.717735 0.179477
H27   H     H_    0.020746 0.682897 0.718359 0.179596
H28   H     H_    0.024258 0.312356 0.713330 0.174660
C65   C     C_R   0.684133 0.000614 0.285921 -0.271184
C66   C     C_R   0.184133 0.499460 0.285921 -0.271225
H29   H     H_    0.704933 0.000519 0.478208 0.121046
H30   H     H_    0.204933 0.499541 0.478209 0.121089
H31   H     H_    0.721509 0.000745 0.113350 0.162855
H32   H     H_    0.221510 0.499337 0.113350 0.162902
H33   H     H_    0.755954 0.000906 0.338355 0.142542
H34   H     H_    0.255955 0.499201 0.338356 0.142660
N1    N     N_R   0.566260 0.000000 0.302220 -0.179668
N2    N     N_R   0.066260 0.500000 0.302220 -0.179652
C67   C     C_R   0.343827 0.999696 0.627652 0.078540
C68   C     C_R   0.843827 0.500278 0.627652 0.078622
C69   C     C_R   0.309617 0.999437 0.699541 -0.233419
C70   C     C_R   0.809617 0.500520 0.699541 -0.233342
C71   C     C_R   0.368263 0.999551 0.845080 -0.199981
C72   C     C_R   0.868262 0.500420 0.845080 -0.200198
C73   C     C_R   0.462641 0.999931 0.921354 -0.000750
C74   C     C_R   0.962641 0.500071 0.921354 -0.000760
C75   C     C_R   0.494642 0.000091 0.842783 0.279292
C76   C     C_R   0.994642 0.499922 0.842784 0.279310
C77   C     C_R   0.526348 0.000086 0.071995 -0.019102
C78   C     C_R   0.026348 0.499930 0.071995 -0.019356
C79   C     C_R   0.620106 0.000445 0.139831 0.178429
C80   C     C_R   0.120106 0.499610 0.139831 0.178062
C81   C     C_R   0.649783 0.000544 0.061830 -0.255009
C82   C     C_R   0.149784 0.499518 0.061830 -0.255109
C83   C     C_R   0.588697 0.000280 0.917188 -0.166522
C84   C     C_R   0.088697 0.499749 0.917189 -0.166496
C85   C     C_R   0.501834 0.999887 0.159637 0.045118
C86   C     C_R   0.001834 0.500103 0.159637 0.045001
C87   C     C_R   0.655666 0.000374 0.365501 0.090738
C88   C     C_R   0.155666 0.499670 0.365502 0.090971
N3    N     N_R   0.434410 0.000000 0.697680 -0.213023
N4    N     N_R   0.934410 0.500000 0.697680 -0.213038
H35   H     H_    0.432085 0.999662 0.116856 0.117912
H36   H     H_    0.932084 0.500301 0.116856 0.117908
H37   H     H_    0.297613 0.999596 0.514782 0.136408
H38   H     H_    0.797612 0.500367 0.514782 0.136437
H39   H     H_    0.338017 0.999320 0.895126 0.139127
H40   H     H_    0.838017 0.500637 0.895126 0.139131
H41   H     H_    0.237235 0.999140 0.642121 0.162267
H42   H     H_    0.737234 0.500793 0.642121 0.162368
H43   H     H_    0.618763 0.000157 0.868079 0.211360
H44   H     H_    0.118763 0.499852 0.868079 0.211341
N5    N     N_R   0.587384 0.290444 0.130234 0.099800
O17   O     O_R   0.555424 0.225302 0.113812 -0.403096
O18   O     O_R   0.562587 0.342017 0.171825 -0.363182
N6    N     N_R   0.576224 0.688735 0.109454 0.103473
O19   O     O_R   0.501577 0.659653 0.001865 -0.387661
O20   O     O_R   0.583874 0.703767 0.219479 -0.366557
N7    N     N_R   0.077546 0.809101 0.112518 0.103292
O21   O     O_R   0.002559 0.838475 0.006213 -0.387643
O22   O     O_R   0.086041 0.792824 0.222847 -0.366874
N8    N     N_R   0.086216 0.207883 0.127677 0.099987
O23   O     O_R   0.054048 0.272850 0.112136 -0.403229
O24   O     O_R   0.060787 0.155566 0.166966 -0.362517

loop_
_geom_bond_atom_site_label_1
_geom_bond_atom_site_label_2
_geom_bond_distance
_ccdc_geom_bond_type
C30   C34   1.415448 A    
C67   H37   1.081682 S    
C39   C55   1.397169 A    
N5    O17   1.301488 A    
Cu2   N2    2.033411 S    
C12   N8    1.437671 S    
C15   C55   1.388864 A    
N1    C87   1.354341 A    
C4    C63   1.474516 S    
N7    O21   1.300679 A    
O10   C6    1.300272 A    
O3    C3    1.300702 A    
N2    C88   1.354341 A    
C44   C48   1.396899 A    
C25   C31   1.417490 A    
C12   C44   1.417894 A    
C26   C32   1.419645 A    
H4    C60   1.083712 S    
O7    C3    1.301626 A    
C15   C59   1.397192 A    
C81   C83   1.386690 A    
C22   C26   1.389240 A    
Cu1   O10   1.941706 S    
C54   H10   1.075589 S    
N7    O22   1.301140 A    
C53   H9    1.077722 S    
C56   H12   1.077840 S    
C67   C69   1.393382 A    
C38   C54   1.397210 A    
C17   C23   1.385110 A    
C27   H19   1.076138 S    
C19   H15   1.083180 S    
C76   N4    1.390707 A    
Cu4   N4    2.021348 S    
H2    C58   1.083484 S    
C11   C57   1.397199 A    
O2    Cu1   1.950029 S    
H1    C57   1.083704 S    
O13   C5    1.297242 A    
C71   H39   1.078196 S    
O6    Cu3   1.942056 S    
H30   C88   1.081872 S    
H3    C59   1.083458 S    
C3    C64   1.469052 S    
C72   H40   1.078195 S    
Cu3   O14   1.949714 S    
C38   C44   1.425423 A    
C76   C84   1.407030 A    
C67   N3    1.358269 A    
C2    C61   1.469261 S    
C25   H17   1.078525 S    
C14   C54   1.388787 A    
C42   C46   1.398132 A    
C68   H38   1.081682 S    
C48   C52   1.383609 A    
C41   C45   1.396927 A    
C14   C58   1.397152 A    
H7    C47   1.081089 S    
O4    C4    1.304171 A    
O11   C7    1.300235 A    
C46   C50   1.386431 A    
C11   C43   1.417773 A    
C18   H14   1.083205 S    
C13   C53   1.391365 A    
O8    Cu4   1.942056 S    
C65   H33   1.083864 S    
N8    O24   1.301308 A    
C36   C52   1.409733 A    
C74   C78   1.444256 A    
C29   C39   1.422850 A    
C23   H23   1.082186 S    
C7    C16   1.461606 S    
C10   C42   1.417870 A    
C33   C61   1.417179 A    
C9    C41   1.418036 A    
C28   C30   1.417403 A    
C10   N6    1.434854 S    
C20   H16   1.083309 S    
C11   N7    1.434605 S    
O5    Cu3   1.941831 S    
C9    N5    1.437912 S    
C40   C56   1.398843 A    
Cu2   O12   1.941706 S    
O1    C1    1.304099 A    
C28   H20   1.078596 S    
C80   C82   1.390398 A    
C33   C49   1.409746 A    
Cu3   N3    2.021348 S    
C35   C51   1.411342 A    
O12   C8    1.301152 A    
C16   C60   1.396999 A    
C37   C43   1.423645 A    
C68   N4    1.358269 A    
C65   C87   1.389570 A    
C39   C41   1.425409 A    
C66   C88   1.389572 A    
C1    C62   1.474479 S    
C74   C76   1.434545 A    
C71   C73   1.409046 A    
O5    C1    1.301117 A    
C69   C71   1.394842 A    
N1    C85   1.371514 A    
C78   C86   1.423232 A    
Cu1   N1    2.033411 S    
C37   C53   1.398822 A    
C83   H43   1.064618 S    
O8    C4    1.301067 A    
C12   C58   1.398058 A    
C52   H28   1.080201 S    
C50   H26   1.079059 S    
C55   H11   1.075553 S    
C49   H25   1.080163 S    
C86   H36   1.077077 S    
O3    Cu2   1.949829 S    
C82   C84   1.386690 A    
C84   H44   1.064618 S    
C73   C77   1.444256 A    
C70   H42   1.082534 S    
C30   C40   1.421384 A    
O7    Cu4   1.941831 S    
Cu4   O15   1.949512 S    
O15   C7    1.299574 A    
Cu1   Cu3   2.698100 S    
O14   C6    1.299521 A    
N8    O23   1.301460 A    
Cu2   Cu4   2.698100 S    
N5    O18   1.301336 A    
O1    Cu1   1.949829 S    
N2    C86   1.371515 A    
C10   C60   1.397449 A    
O2    C2    1.300813 A    
C17   C61   1.402953 A    
C68   C70   1.393385 A    
H6    C46   1.081060 S    
C79   C81   1.390396 A    
H5    C45   1.081001 S    
C70   C72   1.394842 A    
C19   C63   1.403914 A    
Cu2   O11   1.941478 S    
C34   C50   1.411274 A    
H31   C81   1.084542 S    
O16   C8    1.297341 A    
C16   C56   1.391361 A    
C72   C74   1.409047 A    
C5    C14   1.458801 S    
O6    C2    1.301633 A    
C21   H21   1.082240 S    
C65   C79   1.402497 A    
C29   C33   1.414723 A    
C18   C62   1.403917 A    
C51   H27   1.079035 S    
C19   C21   1.386340 A    
C13   C57   1.396929 A    
C8    C15   1.459085 S    
C31   C35   1.415454 A    
Cu1   O9    1.941478 S    
C32   C36   1.414761 A    
C26   H18   1.076110 S    
N6    O19   1.300750 A    
C69   H41   1.082536 S    
C27   C29   1.419620 A    
O9    C5    1.301106 A    
C17   H13   1.083293 S    
C31   C37   1.421528 A    
C18   C24   1.386394 A    
C43   C47   1.397979 A    
C66   C80   1.402498 A    
C21   C25   1.389267 A    
C34   C62   1.421711 A    
C20   C22   1.385119 A    
C78   C80   1.416442 A    
C75   N3    1.390706 A    
C23   C27   1.389236 A    
H29   C87   1.081872 S    
O4    Cu2   1.950029 S    
Cu4   O16   1.949714 S    
C9    C59   1.398223 A    
C75   C83   1.407029 A    
C85   H35   1.077075 S    
C32   C38   1.422804 A    
H8    C48   1.081024 S    
Cu3   O13   1.949512 S    
C24   H24   1.082214 S    
C45   C49   1.383657 A    
C40   C42   1.423581 A    
C20   C64   1.402901 A    
C35   C63   1.421833 A    
C22   H22   1.082179 S    
C77   C79   1.416442 A    
C36   C64   1.417020 A    
C77   C85   1.423231 A    
H32   C82   1.084542 S    
C47   C51   1.386388 A    
C66   H34   1.083864 S    
C24   C28   1.389315 A    
C6    C13   1.461553 S    
N6    O20   1.301141 A    
C73   C75   1.434543 A    
