data_mof_unit_15989.cif
_audit_creation_date              2012-12-11T15:37:09-0500
_audit_creation_method            fapswitch 2.2
_symmetry_space_group_name_H-M    P1
_symmetry_Int_Tables_number       1
_space_group_crystal_system       triclinic
_cell_length_a                    8.312925
_cell_length_b                    17.391088
_cell_length_c                    18.900417
_cell_angle_alpha                 97.727053
_cell_angle_beta                  93.977793
_cell_angle_gamma                 97.909681
_cell_volume                      2671.10772917

loop_
_atom_site_label
_atom_site_type_symbol
_atom_type_description
_atom_site_fract_x
_atom_site_fract_y
_atom_site_fract_z
_atom_type_partial_charge
Ba1   Ba    Ba6+2 0.162080 0.538580 0.468810 1.663711
Ba2   Ba    Ba6+2 0.648090 0.461410 0.531130 1.642114
C1    C     C_3   0.347412 0.779728 0.226533 -0.033285
C2    C     C_3   0.662295 0.778803 0.440214 -0.087912
C3    C     C_2   0.710104 0.863643 0.469634 -0.122838
C4    C     C_3   0.898960 0.744477 0.307267 0.420117
C5    C     C_2   0.854118 0.888389 0.508983 0.009754
C6    C     C_2   0.947865 0.827215 0.534622 -0.176691
C7    C     C_1   0.887467 0.750719 0.521780 0.090760
C8    C     C_R   0.096881 0.142124 0.536850 -0.126385
C9    C     C_R   0.162851 0.221305 0.543694 0.019381
C10   C     C_R   0.917584 0.250969 0.482094 0.088072
C11   C     C_R   0.852172 0.170637 0.473950 -0.125905
C12   C     C_3   0.439308 0.768974 0.296623 0.302556
C13   C     C_R   0.939592 0.115655 0.502713 0.001674
C14   C     C_2   0.921264 0.974337 0.526219 -0.073970
C15   C     C_2   0.870002 0.030433 0.489864 -0.075792
C16   C     C_3   0.934276 0.827542 0.288732 -0.094688
C17   C     C_R   0.071083 0.275804 0.519268 -0.283126
C18   C     C_R   0.625238 0.519363 0.297031 -0.265845
C19   C     C_R   0.463510 0.488179 0.274551 0.103212
C20   C     C_R   0.405158 0.486031 0.203029 -0.099912
C21   C     C_R   0.507111 0.518269 0.154649 -0.004514
C22   C     C_R   0.668179 0.553473 0.179380 -0.138347
C23   C     C_3   0.597040 0.704575 0.748518 0.515656
C24   C     C_R   0.727171 0.553472 0.250719 -0.007301
C25   C     C_R   0.467594 0.580707 0.044048 -0.078626
C26   C     C_R   0.407955 0.577546 0.972026 0.146845
C27   C     C_R   0.329766 0.505310 0.932762 0.057678
C28   C     C_3   0.797598 0.350254 0.299222 0.391534
C29   C     C_R   0.306255 0.438936 0.967917 -0.118965
C30   C     C_R   0.362453 0.443328 0.039997 -0.087065
C31   C     C_R   0.445464 0.513984 0.078441 0.038519
C32   C     C_R   0.121596 0.458757 0.826389 -0.116150
C33   C     C_R   0.075311 0.451239 0.752604 0.053430
C34   C     C_3   0.479496 0.743153 0.795573 -0.397237
C35   C     C_R   0.338475 0.522360 0.734945 -0.024519
C36   C     C_R   0.386120 0.528585 0.808091 -0.117071
C37   C     C_R   0.277837 0.497628 0.854783 0.012508
C38   C     C_R   0.185867 0.481114 0.707246 -0.264909
C39   C     C_3   0.893485 0.340674 0.232626 0.010986
C40   C     C_3   0.055233 0.639606 0.691567 0.329463
C41   C     C_3   0.045711 0.656839 0.772212 -0.408817
C42   C     C_3   0.245504 0.303225 0.373514 0.289558
C43   C     C_3   0.201720 0.215171 0.350052 -0.398720
C44   C     C_3   0.906351 0.258432 0.118684 -0.262432
C45   C     C_3   0.813663 0.249469 0.671098 0.341870
C46   C     C_3   0.528188 0.866658 0.164023 -0.226487
C47   C     C_3   0.707901 0.819780 0.692123 -0.144809
C48   C     C_3   0.780612 0.166327 0.688958 -0.375294
C49   C     C_3   0.387594 0.287892 0.719153 0.427384
C50   C     C_3   0.454997 0.271714 0.791949 -0.320491
C51   C     C_2   0.751818 0.723810 0.478557 -0.047969
H1    H     H_    0.477723 0.709689 0.288679 -0.023460
H2    H     H_    0.345976 0.313898 0.417045 0.078778
H3    H     H_    0.254062 0.727359 0.208857 0.133097
H4    H     H_    0.096169 0.202901 0.308751 0.123418
H5    H     H_    0.169554 0.184988 0.396166 0.069618
H6    H     H_    0.307360 0.191303 0.327254 0.121210
H7    H     H_    0.548365 0.814942 0.308591 -0.011197
H8    H     H_    0.645796 0.660339 0.777946 -0.025325
H9    H     H_    0.385241 0.697264 0.808831 0.087063
H10   H     H_    0.545638 0.775192 0.846381 0.086364
H11   H     H_    0.417837 0.784422 0.767180 0.120408
H12   H     H_    0.878047 0.389943 0.201987 0.057156
H13   H     H_    0.283247 0.831738 0.235196 0.091205
H14   H     H_    0.858804 0.865322 0.320072 0.043914
H15   H     H_    0.707264 0.260634 0.637893 0.119866
H16   H     H_    0.920043 0.253593 0.639248 -0.020237
H17   H     H_    0.672009 0.159330 0.719767 0.141258
H18   H     H_    0.757626 0.123857 0.638655 0.090365
H19   H     H_    0.887304 0.153092 0.721291 0.105113
H20   H     H_    0.448736 0.346920 0.711743 0.091999
H21   H     H_    0.426612 0.316589 0.835064 0.083826
H22   H     H_    0.588896 0.274255 0.794260 0.142547
H23   H     H_    0.024517 0.344340 0.249470 0.112320
H24   H     H_    0.938164 0.747464 0.365049 0.011982
H25   H     H_    0.399962 0.212686 0.801986 0.105603
H26   H     H_    0.773782 0.014064 0.446696 0.066065
H27   H     H_    0.065853 0.846253 0.564798 0.089452
H28   H     H_    0.172112 0.101558 0.555323 0.075934
H29   H     H_    0.018871 0.990667 0.568905 0.069819
H30   H     H_    0.632476 0.903932 0.452338 0.067777
H31   H     H_    0.734893 0.150727 0.443756 0.087676
H32   H     H_    0.124084 0.336932 0.524840 0.071914
H33   H     H_    0.507315 0.557249 0.828606 0.082110
H34   H     H_    0.183060 0.636042 0.680891 0.004158
H35   H     H_    0.765824 0.723907 0.296994 -0.102139
H36   H     H_    0.528591 0.635719 0.073822 0.060701
H37   H     H_    0.281286 0.458850 0.185055 0.073686
H38   H     H_    0.247189 0.383007 0.939062 0.076946
H39   H     H_    0.344310 0.390911 0.065364 0.068639
H40   H     H_    0.036241 0.434831 0.861408 0.072884
H41   H     H_    0.747999 0.579241 0.143181 0.075357
H42   H     H_    0.150465 0.474399 0.650310 0.060547
H43   H     H_    0.673872 0.514259 0.350432 0.071545
H44   H     H_    0.064468 0.851959 0.304444 0.096019
H45   H     H_    0.975555 0.583181 0.671036 0.040275
H46   H     H_    0.843580 0.409571 0.329232 0.031520
H47   H     H_    0.846335 0.218075 0.213222 0.219919
H48   H     H_    0.852396 0.201345 0.086573 0.112216
H49   H     H_    0.040794 0.260663 0.126418 0.106250
H50   H     H_    0.877282 0.306110 0.088493 0.122899
H51   H     H_    0.537383 0.747250 0.166478 0.205833
H52   H     H_    0.606769 0.865362 0.118835 0.117050
H53   H     H_    0.603232 0.894551 0.214136 0.112816
H54   H     H_    0.430764 0.902223 0.152680 0.106693
H55   H     H_    0.808027 0.785004 0.784975 0.161698
H56   H     H_    0.099903 0.718454 0.792784 0.125433
H57   H     H_    0.826652 0.854174 0.684570 0.084273
H58   H     H_    0.629303 0.860831 0.716578 0.076506
H59   H     H_    0.651230 0.791006 0.638470 0.123226
H60   H     H_    0.153859 0.230121 0.712122 0.178946
H61   H     H_    0.172795 0.316353 0.679209 0.112683
H62   H     H_    0.669842 0.636582 0.398068 0.123731
H63   H     H_    0.624843 0.617113 0.481431 0.218455
H64   H     H_    0.489189 0.694957 0.974177 0.174005
H65   H     H_    0.305450 0.661622 0.930140 0.169904
H66   H     H_    0.981177 0.801626 0.183881 0.202821
H67   H     H_    0.112278 0.617357 0.800298 0.063051
H68   H     H_    0.910712 0.886742 0.203589 0.162173
H69   H     H_    0.582332 0.289874 0.247949 0.201600
H70   H     H_    0.571519 0.346063 0.324851 0.182706
H71   H     H_    0.917127 0.647390 0.784807 0.111289
H72   H     H_    0.137962 0.327107 0.393130 0.019648
N1    N     N_2   0.838738 0.266168 0.187289 -0.423107
N2    N     N_2   0.456956 0.787491 0.170543 -0.443936
N3    N     N_2   0.735288 0.761940 0.738444 -0.403123
N4    N     N_3   0.212591 0.288162 0.721030 -0.503183
N5    N     N_3   0.713927 0.642221 0.451655 -0.438418
N6    N     N_3   0.422869 0.647754 0.939221 -0.524879
N7    N     N_3   0.895013 0.828182 0.212337 -0.501233
N8    N     N_3   0.625769 0.345232 0.277037 -0.523855
O1    O     O_2   0.166667 0.691630 0.546720 -0.441747
O2    O     O_2   0.734210 0.437465 0.746490 -0.498062
O3    O     O_3   0.843283 0.303363 0.734659 -0.612208
O4    O     O_3   0.893830 0.593690 0.541700 -0.469663
O5    O     O_3   0.426330 0.460710 0.414310 -0.494939
O6    O     O_2   0.638540 0.536570 0.671920 -0.457035
O7    O     O_3   0.514143 0.671524 0.681322 -0.620347
O8    O     O_2   0.491976 0.215824 0.530528 -0.496508
O9    O     O_3   0.420471 0.229053 0.665049 -0.623112
O10   O     O_3   0.390350 0.644650 0.417800 -0.470593
O11   O     O_2   0.355257 0.782688 0.492727 -0.467043
O12   O     O_3   0.292959 0.337592 0.314159 -0.648785
O13   O     O_3   0.004723 0.701350 0.660198 -0.623626
O14   O     O_3   0.337748 0.776133 0.352981 -0.589829
O15   O     O_2   0.171750 0.463380 0.328050 -0.475989
O16   O     O_3   0.965290 0.605410 0.380210 -0.457179
O17   O     O_2   0.065388 0.554725 0.252643 -0.485596
O18   O     O_3   0.986420 0.694329 0.265941 -0.596814
O19   O     O_2   0.643630 0.308330 0.453260 -0.475084
O20   O     O_3   0.916470 0.406310 0.458240 -0.494948
O21   O     O_3   0.419940 0.355340 0.582140 -0.485849
O22   O     O_3   0.817251 0.290217 0.340343 -0.661174
O23   O     O_3   0.383960 0.539280 0.585630 -0.449580
O24   O     O_3   0.845010 0.394580 0.619730 -0.496015
P1    P     P_3+3 0.992230 0.679190 0.566750 1.035479
P2    P     P_3+3 0.339610 0.439630 0.337240 0.967813
P3    P     P_3+3 0.935120 0.599560 0.286677 0.966689
P4    P     P_3+3 0.818060 0.320800 0.433200 0.965194
P5    P     P_3+3 0.874050 0.399065 0.713187 0.936423
P6    P     P_3+3 0.436530 0.746981 0.427529 0.979836
P7    P     P_3+3 0.470510 0.569051 0.673735 0.959285
P8    P     P_3+3 0.374792 0.254332 0.579638 0.918427

loop_
_geom_bond_atom_site_label_1
_geom_bond_atom_site_label_2
_ccdc_geom_bond_type
C45   O3    S    
C16   N7    S    
C32   H40   S    
C50   H22   S    
C26   C27   A    
C49   N4    S    
C5    C6    S    
O3    P5    S    
C25   C31   A    
C44   H49   S    
C11   H31   S    
C9    C17   A    
C41   H71   S    
H60   N4    S    
O4    P1    S    
C36   H33   S    
H47   N1    S    
Ba2   O6    S    
O6    P7    D    
C23   N3    S    
C22   C24   A    
C32   C33   A    
C35   C38   A    
C50   H21   S    
C8    C13   A    
C40   H45   S    
C36   C37   A    
O12   P2    S    
C1    N2    S    
C46   H54   S    
C15   H26   S    
C4    H35   S    
C24   P3    S    
Ba1   Ba2   S    
C48   H19   S    
C45   H16   S    
H65   N6    S    
C10   P4    S    
O5    P2    S    
C46   H53   S    
C29   C30   A    
C14   C15   D    
C21   C31   S    
C21   C22   A    
O21   P8    S    
Ba1   O16   S    
C16   H44   S    
C34   H10   S    
O19   P4    D    
C41   H67   S    
C47   H58   S    
C34   H11   S    
C18   H43   S    
Ba2   O21   S    
C19   C20   A    
C19   P2    S    
C50   H25   S    
Ba2   P4    S    
O10   P6    S    
H66   N7    S    
C45   C48   S    
Ba2   O19   S    
C4    C16   S    
C44   H48   S    
C42   H72   S    
C33   P5    S    
C32   C37   A    
Ba2   O5    S    
Ba1   P2    S    
C23   O7    S    
C3    C5    D    
C6    C7    D    
C4    H24   S    
C39   H12   S    
C16   H14   S    
C12   O14   S    
O22   P4    S    
C49   C50   S    
O20   P4    S    
C34   H9    S    
O15   P2    D    
Ba1   O23   S    
C48   H18   S    
H69   N8    S    
C35   C36   A    
Ba1   O10   S    
C22   H41   S    
C1    H3    S    
C46   H52   S    
C28   N8    S    
C43   H4    S    
C27   C37   S    
C14   H29   S    
C42   O12   S    
C20   H37   S    
C2    P6    S    
C28   C39   S    
C23   H8    S    
H55   N3    S    
Ba1   O20   S    
C1    C12   S    
O17   P3    D    
C35   P7    S    
C4    O18   S    
C28   O22   S    
O1    P1    D    
H70   N8    S    
Ba2   O20   S    
C29   H38   S    
C47   H59   S    
O11   P6    D    
H61   N4    S    
C1    H13   S    
C7    C51   D    
C40   C41   S    
C38   H42   S    
C43   H5    S    
C40   O13   S    
C45   H15   S    
Ba1   O4    S    
C42   C43   S    
C6    H27   S    
C49   O9    S    
C13   C15   S    
C47   N3    S    
C5    C14   S    
Ba2   O23   S    
C12   H1    S    
C18   C19   A    
Ba2   O4    S    
C39   N1    S    
C44   N1    S    
C49   H20   S    
C2    C3    S    
C17   H32   S    
O13   P1    S    
O7    P7    S    
C12   H7    S    
C44   H50   S    
C8    H28   S    
O8    P8    D    
C26   N6    S    
O18   P3    S    
C11   C13   A    
C33   C38   A    
C48   H17   S    
C27   C29   A    
O14   P6    S    
C30   C31   A    
C46   N2    S    
C42   H2    S    
Ba1   P1    S    
C30   H39   S    
H51   N2    S    
C18   C24   A    
C7    P1    S    
Ba2   O24   S    
C3    H30   S    
C28   H46   S    
C10   C17   A    
O2    P5    D    
C39   H23   S    
C25   H36   S    
H64   N6    S    
O16   P3    S    
C40   H34   S    
C2    C51   S    
C8    C9    A    
C23   C34   S    
H63   N5    S    
C10   C11   A    
O23   P7    S    
C43   H6    S    
C25   C26   A    
C9    P8    S    
C20   C21   A    
Ba1   O15   S    
C51   N5    S    
C41   H56   S    
H68   N7    S    
O24   P5    S    
Ba1   O5    S    
Ba1   O1    S    
C47   H57   S    
O9    P8    S    
H62   N5    S    
