data_mof_unit_12579.cif
_audit_creation_date              2012-12-10T18:13:24-0500
_audit_creation_method            fapswitch 2.2
_symmetry_space_group_name_H-M    P1
_symmetry_Int_Tables_number       1
_space_group_crystal_system       triclinic
_cell_length_a                    12.607703
_cell_length_b                    13.130246
_cell_length_c                    16.465901
_cell_angle_alpha                 90.585267
_cell_angle_beta                  98.070345
_cell_angle_gamma                 97.2601
_cell_volume                      2676.08513894

loop_
_atom_site_label
_atom_site_type_symbol
_atom_type_description
_atom_site_fract_x
_atom_site_fract_y
_atom_site_fract_z
_atom_type_partial_charge
C1    C     C_R   0.559728 0.691213 0.512826 0.846691
C2    C     C_R   0.492669 0.543474 0.735414 -0.096443
C3    C     C_R   0.293089 0.066267 0.560979 -0.202354
C4    C     C_R   0.514316 0.500918 0.348545 0.860042
C5    C     C_R   0.404758 0.200429 0.501610 -0.052147
C6    C     C_R   0.700793 0.837547 0.505594 -0.188033
C7    C     C_R   0.731407 0.942376 0.501369 -0.151073
C8    C     C_R   0.657274 0.010216 0.510011 -0.206921
C9    C     C_R   0.552338 0.973715 0.527424 0.087138
C10   C     C_R   0.528566 0.869495 0.545224 0.085130
C11   C     C_R   0.469929 0.037054 0.527284 0.079758
C12   C     C_R   0.632550 0.540065 0.241303 -0.193315
C13   C     C_R   0.373398 0.001657 0.559159 0.173084
C14   C     C_R   0.359175 0.902798 0.589183 -0.252066
C15   C     C_R   0.435577 0.837028 0.581904 -0.203644
C16   C     C_R   0.440045 0.308670 0.492565 0.866223
C17   C     C_R   0.479846 0.133770 0.493635 -0.258199
C18   C     C_R   0.309560 0.166368 0.533470 -0.206109
C19   C     C_R   0.598039 0.800466 0.524572 -0.119347
C20   C     C_R   0.900264 0.346416 0.611884 -0.312235
C21   C     C_R   0.209939 0.629185 0.404681 0.020854
C22   C     C_R   0.107643 0.658119 0.384597 -0.253856
C23   C     C_R   0.586938 0.658253 0.845624 0.521694
C24   C     C_R   0.022471 0.609330 0.420841 -0.201162
C25   C     C_R   0.039714 0.530865 0.477630 0.016660
C26   C     C_R   0.145647 0.504340 0.495972 0.240563
C27   C     C_R   0.956655 0.477882 0.516732 -0.013154
C28   C     C_R   0.488217 0.506810 0.651418 0.858173
C29   C     C_R   0.981111 0.399753 0.572983 0.200036
C30   C     C_R   0.085898 0.375450 0.589811 -0.302527
C31   C     C_R   0.166909 0.427169 0.551770 -0.221420
C32   C     C_R   0.849480 0.498832 0.502346 -0.056966
C33   C     C_R   0.796009 0.370794 0.594829 0.011230
C34   C     C_R   0.586628 0.604398 0.772388 -0.296492
C35   C     C_R   0.528386 0.523491 0.263687 -0.040555
C36   C     C_R   0.439232 0.541424 0.207217 -0.206955
C37   C     C_R   0.453999 0.577759 0.130243 -0.146219
C38   C     C_R   0.558613 0.597880 0.108765 0.174909
C39   C     C_R   0.647349 0.576830 0.164222 -0.176136
C40   C     C_3   0.663984 0.825570 0.862219 0.082087
C41   C     C_3   0.687301 0.853950 0.775534 -0.370582
C42   C     C_3   0.679350 0.967221 0.759774 -0.936934
C43   C     C_R   0.398603 0.535920 0.772307 -0.201119
C44   C     C_R   0.400364 0.584351 0.848025 -0.230823
C45   C     C_R   0.495215 0.642820 0.886163 0.058574
C46   C     C_2   0.576098 0.627204 0.025420 -0.180894
C47   C     C_2   0.502279 0.667911 0.973482 -0.222867
H1    H     H_    0.358018 0.528595 0.222797 0.154402
H2    H     H_    0.421753 0.761006 0.606201 0.173986
H3    H     H_    0.732011 0.330332 0.624038 0.138000
H4    H     H_    0.658061 0.615314 0.742116 0.172893
H5    H     H_    0.105430 0.316031 0.632560 0.149949
H6    H     H_    0.917505 0.286579 0.654783 0.143573
H7    H     H_    0.822886 0.556311 0.460894 0.120426
H8    H     H_    0.276695 0.666785 0.376852 0.141352
H9    H     H_    0.944728 0.634659 0.403160 0.132715
H10   H     H_    0.094381 0.718142 0.341156 0.150095
H11   H     H_    0.245636 0.404980 0.567114 0.208062
H12   H     H_    0.329259 0.572425 0.878597 0.151723
H13   H     H_    0.324456 0.491774 0.742918 0.157036
H14   H     H_    0.432737 0.694825 0.994652 0.142339
H15   H     H_    0.728222 0.589161 0.147894 0.131278
H16   H     H_    0.702944 0.527516 0.284007 0.152000
H17   H     H_    0.644455 0.599690 0.002470 0.181029
H18   H     H_    0.382845 0.587395 0.087557 0.122494
H19   H     H_    0.722262 0.875150 0.907455 0.171519
H20   H     H_    0.581975 0.843026 0.871243 0.129282
H21   H     H_    0.769733 0.837336 0.768090 0.234158
H22   H     H_    0.628236 0.807464 0.728824 0.213388
H23   H     H_    0.250728 0.217920 0.540465 0.149672
H24   H     H_    0.596215 0.984483 0.763899 0.266321
H25   H     H_    0.698275 0.985347 0.697267 0.276334
H26   H     H_    0.737826 0.016458 0.805096 0.257993
H27   H     H_    0.287697 0.875375 0.616262 0.150601
H28   H     H_    0.219554 0.040524 0.585997 0.134606
H29   H     H_    0.547711 0.160584 0.462693 0.151406
H30   H     H_    0.756329 0.785445 0.491666 0.152357
H31   H     H_    0.684916 0.090807 0.504963 0.137238
H32   H     H_    0.811179 0.970918 0.487743 0.143326
N1    N     N_R   0.774070 0.445420 0.541180 -0.100463
N2    N     N_R   0.226730 0.554050 0.459240 -0.129741
O1    O     O_R   0.631480 0.627510 0.519670 -0.617390
O2    O     O_R   0.455770 0.662400 0.493360 -0.612942
O3    O     O_R   0.598240 0.480510 0.398910 -0.614190
O4    O     O_R   0.422540 0.515400 0.372600 -0.613370
O5    O     O_R   0.544230 0.337600 0.506640 -0.611632
O6    O     O_R   0.368520 0.372490 0.480330 -0.629606
O7    O     O_R   0.577460 0.484600 0.627400 -0.609148
O8    O     O_R   0.401760 0.519490 0.601090 -0.634564
O9    O     O_3   0.678982 0.722195 0.878601 -0.658253
Zn1   Zn    Zn3+2 0.617320 0.476700 0.517570 0.932677
Zn2   Zn    Zn3+2 0.382680 0.523300 0.482430 0.924771

loop_
_geom_bond_atom_site_label_1
_geom_bond_atom_site_label_2
_ccdc_geom_bond_type
C18   H23   S    
C16   O5    A    
C23   C45   A    
C27   C29   A    
C41   C42   S    
C35   C36   A    
C24   H9    S    
C22   H10   S    
C7    C8    A    
O2    Zn2   S    
C34   H4    S    
C29   C30   A    
C14   H27   S    
C31   H11   S    
C41   H22   S    
C36   C37   A    
C10   C15   A    
C38   C39   A    
C5    C17   A    
C44   H12   S    
C3    C18   A    
C5    C16   S    
C33   H3    S    
N2    Zn2   S    
C8    C9    A    
C40   H20   S    
C37   H18   S    
C28   O7    A    
C17   H29   S    
C28   O8    A    
O3    Zn1   S    
C3    H28   S    
C9    C10   A    
C10   C19   A    
C3    C13   A    
C2    C34   A    
C4    C35   S    
C26   C31   A    
C40   H19   S    
C13   C14   A    
C8    H31   S    
C32   H7    S    
O4    Zn2   S    
C41   H21   S    
C20   C29   A    
C45   C47   S    
C1    C19   S    
C24   C25   A    
C21   H8    S    
C12   H16   S    
C6    H30   S    
C4    O4    A    
C1    O1    A    
O1    Zn1   S    
C46   H17   S    
C12   C35   A    
C43   C44   A    
C37   C38   A    
C6    C19   A    
C32   N1    A    
C4    O3    A    
O7    Zn1   S    
C2    C43   A    
C23   C34   A    
C42   H25   S    
C23   O9    S    
O8    Zn2   S    
C9    C11   A    
C43   H13   S    
C20   C33   A    
C40   C41   S    
C21   N2    A    
C26   N2    A    
C22   C24   A    
C1    O2    A    
C16   O6    A    
C44   C45   A    
C7    H32   S    
C39   H15   S    
C30   H5    S    
C46   C47   D    
C11   C17   A    
C42   H26   S    
C27   C32   A    
C20   H6    S    
C47   H14   S    
C33   N1    A    
C6    C7    A    
C5    C18   A    
C25   C27   A    
O5    Zn1   S    
C21   C22   A    
C12   C39   A    
C25   C26   A    
C11   C13   A    
C30   C31   A    
N1    Zn1   S    
C42   H24   S    
C36   H1    S    
C15   H2    S    
C38   C46   S    
C14   C15   A    
C2    C28   S    
C40   O9    S    
O6    Zn2   S    
