data_mof_unit_16344.cif
_audit_creation_date              2012-12-10T17:30:23-0500
_audit_creation_method            fapswitch 2.2
_symmetry_space_group_name_H-M    P1
_symmetry_Int_Tables_number       1
_space_group_crystal_system       triclinic
_cell_length_a                    12.005066
_cell_length_b                    12.863082
_cell_length_c                    14.935614
_cell_angle_alpha                 90.295583
_cell_angle_beta                  86.659903
_cell_angle_gamma                 94.094634
_cell_volume                      2296.59343555

loop_
_atom_site_label
_atom_site_type_symbol
_atom_type_description
_atom_site_fract_x
_atom_site_fract_y
_atom_site_fract_z
_atom_type_partial_charge
C1    C     C_R   0.522477 0.700279 0.501788 0.932374
C2    C     C_R   0.373806 0.140762 0.552103 -0.309775
C3    C     C_R   0.458263 0.870078 0.549373 0.072400
C4    C     C_R   0.541127 0.131357 0.453462 0.058687
C5    C     C_R   0.455124 0.975757 0.528976 0.071040
C6    C     C_R   0.545710 0.025520 0.474369 0.009368
C7    C     C_R   0.953838 0.420480 0.401095 -0.114404
C8    C     C_R   0.045149 0.564855 0.605422 -0.113825
C9    C     C_R   0.837708 0.428794 0.412376 -0.007810
C10   C     C_R   0.161606 0.565069 0.590552 -0.018093
C11   C     C_R   0.857416 0.525195 0.546657 0.005120
C12   C     C_R   0.477254 0.299847 0.499201 0.928555
C13   C     C_R   0.142790 0.472436 0.454270 0.003974
C14   C     C_R   0.975066 0.519763 0.540089 -0.005213
C15   C     C_R   0.024457 0.469719 0.464383 -0.011886
C16   C     C_R   0.500963 0.502980 0.672875 0.922133
C17   C     C_R   0.498803 0.497210 0.327346 0.907237
C18   C     C_R   0.443086 0.411226 0.187926 -0.054273
C19   C     C_R   0.560694 0.589240 0.812806 -0.070235
C20   C     C_R   0.495314 0.496036 0.232185 -0.167794
C21   C     C_R   0.501011 0.508217 0.768554 -0.172159
C22   C     C_R   0.540252 0.584287 0.187271 -0.205744
C23   C     C_R   0.584200 0.684764 0.955987 0.071571
C24   C     C_R   0.434227 0.431905 0.814853 -0.210324
C25   C     C_R   0.537019 0.590573 0.094995 0.125535
C26   C     C_R   0.429083 0.429615 0.907556 0.126272
C27   C     C_R   0.484139 0.506917 0.048010 -0.024493
C28   C     C_R   0.486064 0.510882 0.954338 -0.022324
C29   C     C_R   0.430765 0.418846 0.094776 0.047998
C30   C     C_R   0.545562 0.595658 0.907241 0.053760
C31   C     C_R   0.582689 0.680685 0.049914 0.041770
C32   C     C_R   0.365882 0.348337 0.953485 0.039028
C33   C     C_2   0.414729 0.312491 0.238134 0.929092
C34   C     C_R   0.365104 0.343389 0.047334 0.055697
C35   C     C_2   0.643593 0.660707 0.761044 0.959801
C36   C     C_2   0.995707 0.357986 0.324028 0.902911
C37   C     C_2   0.001569 0.605395 0.692401 0.880827
C38   C     C_2   0.745437 0.012888 0.405497 0.887604
C39   C     C_2   0.256617 0.986781 0.601280 0.970023
C40   C     C_R   0.462211 0.188536 0.500152 -0.066328
C41   C     C_R   0.536862 0.811858 0.502100 -0.077837
C42   C     C_R   0.635832 0.967095 0.441935 -0.012255
C43   C     C_R   0.364909 0.033777 0.562192 -0.010301
C44   C     C_R   0.626056 0.860007 0.451052 -0.260980
H1    H     H_    0.578444 0.647860 0.225541 0.176194
H2    H     H_    0.799459 0.730540 0.751044 0.348724
H3    H     H_    0.979070 0.314465 0.195222 0.351631
H4    H     H_    0.016364 0.715615 0.788382 0.362478
H5    H     H_    0.711405 0.783970 0.079858 0.210028
H6    H     H_    0.583218 0.833198 0.087287 0.200186
H7    H     H_    0.218290 0.271041 0.924608 0.204031
H8    H     H_    0.330855 0.197328 0.917427 0.204700
H9    H     H_    0.560965 0.837134 0.933334 0.188166
H10   H     H_    0.696991 0.807462 0.926781 0.218589
H11   H     H_    0.209640 0.276061 0.080129 0.193528
H12   H     H_    0.389364 0.371766 0.777094 0.181222
H13   H     H_    0.313044 0.191785 0.073024 0.211513
H14   H     H_    0.686006 0.203732 0.396899 0.229811
H15   H     H_    0.606969 0.130351 0.323598 0.228685
H16   H     H_    0.328865 0.771093 0.601242 0.243359
H17   H     H_    0.439885 0.788477 0.666909 0.224823
H18   H     H_    0.864434 0.016767 0.304413 0.360353
H19   H     H_    0.125698 0.881453 0.588449 0.366290
H20   H     H_    0.309852 0.187041 0.582989 0.198285
H21   H     H_    0.690204 0.813927 0.420165 0.190471
H22   H     H_    0.184661 0.438000 0.396860 0.203120
H23   H     H_    0.816881 0.566971 0.600824 0.170795
H24   H     H_    0.216083 0.598022 0.640214 0.161470
H25   H     H_    0.782539 0.392491 0.364679 0.171245
H26   H     H_    0.321767 0.236953 0.337611 0.357967
N1    N     N_R   0.207800 0.519350 0.516680 -0.122307
N2    N     N_R   0.792200 0.480650 0.483320 -0.123865
N3    N     N_3   0.627152 0.768166 0.100211 -0.455548
N4    N     N_3   0.302943 0.270475 0.904064 -0.456070
N5    N     N_3   0.615908 0.781775 0.911009 -0.438631
N6    N     N_3   0.292341 0.265818 0.094415 -0.419653
N7    N     N_3   0.605396 0.180493 0.378884 -0.432280
N8    N     N_3   0.389813 0.825222 0.623765 -0.440043
O1    O     O_R   0.421700 0.658830 0.504450 -0.635503
O2    O     O_R   0.333813 0.308671 0.309361 -0.768391
O3    O     O_2   0.617813 0.703580 0.693272 -0.679600
O4    O     O_R   0.751628 0.678867 0.790451 -0.753585
O5    O     O_2   0.070805 0.300066 0.332600 -0.594839
O6    O     O_R   0.944712 0.361429 0.242367 -0.796998
O7    O     O_2   0.926053 0.556011 0.735518 -0.581302
O8    O     O_R   0.051704 0.696924 0.727657 -0.805344
O9    O     O_2   0.801015 0.073871 0.451002 -0.603194
O10   O     O_R   0.788056 0.981314 0.321441 -0.796894
O11   O     O_2   0.215744 0.021089 0.671316 -0.605718
O12   O     O_R   0.578300 0.341170 0.495550 -0.611003
O13   O     O_R   0.198868 0.906614 0.555589 -0.789661
O14   O     O_R   0.609310 0.646410 0.493750 -0.603952
O15   O     O_R   0.390690 0.353590 0.506250 -0.609028
O16   O     O_R   0.406180 0.506230 0.637500 -0.636786
O17   O     O_R   0.593820 0.493770 0.362500 -0.628456
O18   O     O_R   0.593800 0.493820 0.626800 -0.601543
O19   O     O_R   0.406200 0.506180 0.373200 -0.589055
O20   O     O_2   0.462173 0.234437 0.216345 -0.622551
Zn1   Zn    Zn3+2 0.374730 0.508290 0.507150 0.984492
Zn2   Zn    Zn3+2 0.625270 0.491710 0.492850 0.992920

loop_
_geom_bond_atom_site_label_1
_geom_bond_atom_site_label_2
_ccdc_geom_bond_type
C25   C31   A    
C26   C32   A    
C16   C21   S    
C27   C29   A    
C7    C36   S    
C9    N2    A    
H15   N7    S    
C35   O3    D    
H16   N8    S    
H13   N6    S    
C12   O12   A    
C19   C21   A    
C24   C26   A    
C38   C42   S    
H8    N4    S    
C32   N4    S    
C5    C6    A    
C11   C14   A    
C31   N3    S    
C36   O5    D    
C17   C20   S    
C33   O20   D    
C37   O7    D    
C39   O13   S    
H14   N7    S    
H2    O4    S    
C4    C40   A    
C11   H23   S    
C22   C25   A    
H7    N4    S    
C17   O17   A    
O15   Zn1   S    
C18   C20   A    
C10   N1    A    
C7    C15   A    
C5    C43   A    
C44   H21   S    
H9    N5    S    
C42   C44   A    
O12   Zn2   S    
O19   Zn1   S    
C35   O4    S    
C2    H20   S    
C13   H22   S    
C16   O18   A    
H26   O2    S    
C23   C30   A    
C37   O8    S    
C4    C6    A    
H6    N3    S    
C23   N5    S    
O17   Zn2   S    
C39   C43   S    
C13   N1    A    
H18   O10   S    
C29   C34   A    
C38   O10   S    
C32   C34   A    
C12   C40   S    
C2    C43   A    
C34   N6    S    
C18   C29   A    
H3    O6    S    
H11   N6    S    
C1    C41   S    
C20   C22   A    
C1    O14   A    
C13   C15   A    
C1    O1    A    
C41   C44   A    
H5    N3    S    
C12   O15   A    
C25   C27   A    
C8    C37   S    
O14   Zn2   S    
N2    Zn2   S    
O1    Zn1   S    
C7    C9    A    
C3    C41   A    
C8    C14   A    
C11   N2    A    
C16   O16   A    
C9    H25   S    
C3    C5    A    
C33   O2    S    
C10   H24   S    
C24   H12   S    
C26   C28   A    
C38   O9    D    
C28   C30   A    
C4    N7    S    
C19   C35   S    
C19   C30   A    
N1    Zn1   S    
O16   Zn1   S    
C36   O6    S    
O18   Zn2   S    
H4    O8    S    
C18   C33   S    
H17   N8    S    
H10   N5    S    
C2    C40   A    
C22   H1    S    
C8    C10   A    
C6    C42   A    
C21   C24   A    
H19   O13   S    
C27   C28   A    
C14   C15   A    
C3    N8    S    
C17   O19   A    
C39   O11   D    
C23   C31   A    
