data_mof_unit_13973.cif
_audit_creation_date              2012-12-11T16:53:23-0500
_audit_creation_method            fapswitch 2.2
_symmetry_space_group_name_H-M    P1
_symmetry_Int_Tables_number       1
_space_group_crystal_system       triclinic
_cell_length_a                    14.881354
_cell_length_b                    14.76059
_cell_length_c                    16.933795
_cell_angle_alpha                 109.016151
_cell_angle_beta                  106.444493
_cell_angle_gamma                 108.020643
_cell_volume                      3023.95271717

loop_
_atom_site_label
_atom_site_type_symbol
_atom_type_description
_atom_site_fract_x
_atom_site_fract_y
_atom_site_fract_z
_atom_type_partial_charge
C1    C     C_R   0.093571 0.276177 0.029503 -0.140881
C2    C     C_R   0.064792 0.478387 0.252393 -0.061812
C3    C     C_R   0.230857 0.800119 0.188428 -0.207286
C4    C     C_R   0.936319 0.451057 0.734681 -0.125726
C5    C     C_R   0.743344 0.470180 0.053379 -0.127770
C6    C     C_R   0.255218 0.808403 0.276885 -0.089658
C7    C     C_R   0.716199 0.547157 0.038573 0.108054
C8    C     C_R   0.974092 0.417894 0.254391 0.022487
C9    C     C_R   0.997561 0.817238 0.967828 0.054399
C10   C     C_R   0.520020 0.649943 0.039050 0.087608
C11   C     C_R   0.474539 0.602504 0.086167 -0.055458
C12   C     C_R   0.029191 0.465337 0.725403 0.059932
C13   C     C_R   0.536848 0.579397 0.149732 0.515938
C14   C     C_R   0.628052 0.574774 0.143240 -0.391032
C15   C     C_R   0.655513 0.594441 0.075512 0.008382
C16   C     C_R   0.718718 0.216029 0.823739 -0.140072
C17   C     C_R   0.609240 0.645979 0.033716 0.163439
C18   C     C_3   0.572169 0.630152 0.935990 -0.507181
C19   C     C_3   0.474723 0.634955 0.941989 -0.491857
C20   C     C_R   0.967135 0.375826 0.321211 0.134744
C21   C     C_R   0.038945 0.420339 0.638756 0.130334
C22   C     C_R   0.144381 0.437074 0.553699 -0.220671
C23   C     C_R   0.662223 0.220242 0.745401 0.065040
C24   C     C_R   0.137383 0.453072 0.636920 -0.175817
C25   C     C_R   0.948492 0.356534 0.555324 -0.276885
C26   C     C_R   0.954541 0.346105 0.472662 0.187949
C27   C     C_R   0.053122 0.391466 0.472733 0.190230
C28   C     C_R   0.301619 0.596883 0.005690 -0.179162
C29   C     C_R   0.058680 0.402433 0.395546 -0.285055
C30   C     C_R   0.869334 0.319907 0.317644 -0.168389
C31   C     C_R   0.863187 0.303448 0.392591 -0.227380
C32   C     C_R   0.551805 0.150453 0.679678 0.133664
C33   C     C_R   0.292421 0.906509 0.361959 0.126233
C34   C     C_R   0.361798 0.564215 0.057071 0.117388
C35   C     C_R   0.381281 0.100729 0.446156 0.108499
C36   C     C_R   0.326072 0.006840 0.362650 -0.211611
C37   C     C_R   0.298124 0.901624 0.444316 -0.312655
C38   C     C_R   0.367650 0.991344 0.527913 0.162667
C39   C     C_R   0.415950 0.090675 0.528480 0.125788
C40   C     C_R   0.726051 0.312507 0.747479 -0.140040
C41   C     C_R   0.507197 0.170284 0.605980 -0.277140
C42   C     C_R   0.494200 0.057984 0.683539 -0.175418
C43   C     C_R   0.401029 0.979264 0.608270 -0.203134
C44   C     C_R   0.112640 0.074181 0.930838 0.139720
C45   C     C_R   0.231401 0.704631 0.266457 0.527124
C46   C     C_R   0.016340 0.075035 0.922521 0.040462
C47   C     C_R   0.925470 0.977073 0.863549 -0.198896
C48   C     C_R   0.931298 0.887543 0.805728 -0.184463
C49   C     C_R   0.027538 0.893971 0.806351 0.020889
C50   C     C_R   0.117797 0.985241 0.874400 0.155557
C51   C     C_3   0.209590 0.050980 0.865745 -0.487330
C52   C     C_R   0.296461 0.498550 0.080244 -0.106082
C53   C     C_3   0.204246 0.148783 0.927117 -0.503044
C54   C     C_R   0.110563 0.536100 0.812427 -0.133659
C55   C     C_R   0.919504 0.191033 0.951229 -0.124193
C56   C     C_R   0.751427 0.566807 0.976016 -0.152974
C57   C     C_R   0.009796 0.175751 0.968327 0.061850
C58   C     C_3   0.405637 0.207244 0.443313 -0.456729
C59   C     C_3   0.304659 0.215336 0.399153 -0.223203
C60   C     C_3   0.328061 0.324588 0.401260 -0.921269
C61   C     C_R   0.892140 0.395489 0.175920 -0.145351
C62   C     C_R   0.083434 0.803486 0.009777 -0.127974
C63   C     C_R   0.912408 0.719503 0.932564 -0.129483
H1    H     H_    0.175416 0.294893 0.057487 0.103972
H2    H     H_    0.620964 0.699095 0.929470 0.186914
H3    H     H_    0.857527 0.401546 0.681695 0.095188
H4    H     H_    0.556003 0.550154 0.885170 0.198175
H5    H     H_    0.467841 0.706855 0.939202 0.186942
H6    H     H_    0.403624 0.557886 0.894478 0.197279
H7    H     H_    0.134887 0.442108 0.398595 0.123319
H8    H     H_    0.797142 0.295164 0.260221 0.113361
H9    H     H_    0.220715 0.469756 0.554254 0.132878
H10   H     H_    0.786987 0.266724 0.391109 0.126988
H11   H     H_    0.209007 0.497918 0.699711 0.116176
H12   H     H_    0.746114 0.623717 0.950839 0.108352
H13   H     H_    0.872155 0.325459 0.554706 0.118641
H14   H     H_    0.550891 0.241210 0.603093 0.111928
H15   H     H_    0.688220 0.163867 0.851754 0.084752
H16   H     H_    0.524451 0.042151 0.740981 0.112247
H17   H     H_    0.362276 0.904348 0.609059 0.128953
H18   H     H_    0.312655 0.013250 0.298996 0.119470
H19   H     H_    0.259684 0.826399 0.444394 0.164426
H20   H     H_    0.849239 0.970884 0.857402 0.123568
H21   H     H_    0.860444 0.815303 0.756643 0.129629
H22   H     H_    0.280764 0.043138 0.899250 0.187518
H23   H     H_    0.811981 0.337073 0.147610 0.089327
H24   H     H_    0.191467 0.040506 0.794055 0.201194
H25   H     H_    0.272868 0.197373 0.995575 0.190322
H26   H     H_    0.329385 0.662730 0.990066 0.111115
H27   H     H_    0.182985 0.195069 0.891003 0.205378
H28   H     H_    0.704165 0.351529 0.706666 0.085072
H29   H     H_    0.318588 0.468767 0.129247 0.163885
H30   H     H_    0.193334 0.564764 0.831540 0.093890
H31   H     H_    0.840121 0.131306 0.905563 0.094550
H32   H     H_    0.556877 0.539260 0.249687 0.314128
H33   H     H_    0.370689 0.388752 0.473673 0.258444
H34   H     H_    0.163700 0.858902 0.033512 0.088452
H35   H     H_    0.375880 0.339107 0.362848 0.265511
H36   H     H_    0.253618 0.327361 0.368257 0.249398
H37   H     H_    0.258776 0.153039 0.326086 0.193700
H38   H     H_    0.255995 0.202552 0.437297 0.204320
H39   H     H_    0.451183 0.275740 0.513242 0.192426
H40   H     H_    0.452561 0.215515 0.403129 0.188623
H41   H     H_    0.333407 0.733554 0.381730 0.313556
H42   H     H_    0.834531 0.697268 0.884669 0.088694
H43   H     H_    0.143001 0.494278 0.293569 0.153104
H44   H     H_    0.241040 0.864234 0.169615 0.122290
H45   H     H_    0.728274 0.435728 0.098275 0.098557
H46   H     H_    0.669869 0.544994 0.183592 0.141829
N1    N     N_R   0.055640 0.348550 0.045600 -0.043387
N2    N     N_R   0.811290 0.303400 0.871650 -0.037643
N3    N     N_R   0.205180 0.552990 0.997660 -0.040811
N4    N     N_R   0.814810 0.361830 0.823710 -0.037931
N5    N     N_R   0.201660 0.494570 0.045600 -0.054252
N6    N     N_R   0.068420 0.560530 0.871650 -0.038650
N7    N     N_R   0.948050 0.295860 0.997660 -0.041821
N8    N     N_R   0.185190 0.638170 0.176290 -0.068828
N9    N     N_R   0.798340 0.505430 0.954400 -0.040811
N10   N     N_R   0.931580 0.439470 0.128350 -0.044496
N11   N     N_R   0.051950 0.704140 0.002340 -0.036636
N12   N     N_R   0.944360 0.651450 0.954400 -0.039670
N13   N     N_R   0.039170 0.492150 0.176290 -0.046121
N14   N     N_R   0.188710 0.696600 0.128350 -0.062288
N15   N     N_R   0.794820 0.447010 0.002340 -0.042246
N16   N     N_R   0.960830 0.507850 0.823710 -0.041058
Ni1   Ni    Ni4+2 0.119330 0.493420 0.109950 0.242651
Ni2   Ni    Ni4+2 0.880670 0.506580 0.890050 0.207419
Ni3   Ni    Ni4+2 0.872590 0.372590 0.000000 0.205476
Ni4   Ni    Ni4+2 0.127410 0.627410 0.000000 0.205907
O1    O     O_3   0.504248 0.553641 0.211426 -0.782487
O2    O     O_3   0.265774 0.673716 0.332804 -0.802396

loop_
_geom_bond_atom_site_label_1
_geom_bond_atom_site_label_2
_ccdc_geom_bond_type
C14   H46   S    
C59   C60   S    
C6    C45   A    
C61   N10   A    
C35   C36   A    
C60   H36   S    
C51   H22   S    
N3    N5    A    
C30   H8    S    
C39   C41   A    
C20   C30   A    
C28   N3    A    
C18   H2    S    
C5    N15   A    
C26   C27   A    
C8    C20   S    
C4    N16   A    
C35   C58   S    
N12   Ni2   S    
C60   H35   S    
C41   H14   S    
C30   C31   A    
N5    Ni1   S    
C31   H10   S    
C27   C29   A    
C55   N7    A    
C10   C17   A    
C44   C50   A    
C23   C40   A    
C33   C36   A    
C18   C19   S    
C54   H30   S    
C44   C53   S    
C47   C48   A    
C3    N14   A    
H41   O2    S    
H32   O1    S    
C32   C41   A    
C28   H26   S    
C58   H39   S    
C47   H20   S    
N3    Ni4   S    
C4    C12   A    
N8    Ni1   S    
C36   H18   S    
C62   N11   A    
C8    C61   A    
N15   Ni3   S    
N10   Ni3   S    
C3    C6    A    
C7    C15   S    
C28   C34   A    
C26   C31   A    
C56   H12   S    
C13   C14   A    
N14   Ni4   S    
C59   H37   S    
C7    C56   A    
C55   H31   S    
C22   H9    S    
C63   N12   A    
C44   C46   A    
C50   C51   S    
C20   C29   A    
C2    N13   A    
N11   Ni4   S    
C59   H38   S    
C10   C11   A    
C51   H24   S    
C5    C7    A    
C3    H44   S    
C58   C59   S    
C12   C21   S    
C2    H43   S    
C33   C37   A    
C48   H21   S    
C51   C53   S    
N13   Ni1   S    
C35   C39   A    
C37   C38   A    
C1    C57   A    
C1    N1    A    
C62   H34   S    
C40   N4    A    
C10   C19   S    
C13   O1    S    
C54   N6    A    
C17   C18   S    
C19   H5    S    
N2    N4    A    
C25   C26   A    
N9    N15   A    
N1    Ni1   S    
C60   H33   S    
C48   C49   A    
C45   O2    S    
C16   C23   A    
C22   C27   A    
C55   C57   A    
C46   C57   S    
N7    Ni3   S    
C22   C24   A    
C37   H19   S    
C52   H29   S    
C63   H42   S    
N9    Ni2   S    
C1    H1    S    
N1    N7    A    
C53   H27   S    
N11   N12   A    
C29   H7    S    
N6    Ni4   S    
N10   N13   A    
C45   N8    A    
C15   C17   A    
C21   C25   A    
C46   C47   A    
C9    C63   A    
C56   N9    A    
C11   C34   S    
C2    C8    A    
N4    Ni2   S    
C52   N5    A    
C34   C52   A    
C9    C62   A    
N6    N16   A    
C6    C33   S    
C25   H13   S    
C23   C32   S    
C18   H4    S    
C38   C43   A    
C4    H3    S    
C11   C13   A    
C24   H11   S    
C38   C39   A    
C43   H17   S    
C53   H25   S    
C16   H15   S    
C40   H28   S    
N8    N14   A    
C19   H6    S    
C61   H23   S    
C42   H16   S    
C49   C50   A    
C42   C43   A    
C21   C24   A    
N2    Ni3   S    
N16   Ni2   S    
C32   C42   A    
C14   C15   A    
C58   H40   S    
C12   C54   A    
C16   N2    A    
C5    H45   S    
