data_mof_unit_53015.cif
_audit_creation_date              2012-12-10T17:02:12-0500
_audit_creation_method            fapswitch 2.2
_symmetry_space_group_name_H-M    P1
_symmetry_Int_Tables_number       1
_space_group_crystal_system       triclinic
_cell_length_a                    10.630272
_cell_length_b                    10.694271
_cell_length_c                    10.046388
_cell_angle_alpha                 90.042609
_cell_angle_beta                  90.196858
_cell_angle_gamma                 90.103255
_cell_volume                      1142.09470629

loop_
_atom_site_label
_atom_site_type_symbol
_atom_type_description
_atom_site_fract_x
_atom_site_fract_y
_atom_site_fract_z
_atom_type_partial_charge
C1    C     C_R   0.508765 0.262821 0.499801 0.897051
C2    C     C_2   0.534799 0.131734 0.501924 -0.407944
C3    C     C_2   0.574864 0.569784 0.925484 0.004623
C4    C     C_R   0.260736 0.499098 0.499779 0.875985
C5    C     C_2   0.580353 0.562800 0.075491 -0.152744
C6    C     C_R   0.500459 0.737320 0.499932 0.941363
C7    C     C_R   0.739253 0.498415 0.500193 0.864902
C8    C     C_R   0.131894 0.274151 0.575301 -0.163935
C9    C     C_R   0.066803 0.166463 0.612744 -0.125676
C10   C     C_R   0.935910 0.166239 0.614564 -0.124433
C11   C     C_R   0.869791 0.273613 0.578670 -0.167057
C12   C     C_R   0.066128 0.384141 0.539055 0.078705
C13   C     C_R   0.934441 0.383518 0.540393 0.091023
C14   C     C_1   0.126355 0.715749 0.418207 0.166829
C15   C     C_1   0.659086 0.656455 0.861551 0.269878
C16   C     C_1   0.592691 0.117334 0.264738 0.237911
C17   C     C_R   0.128097 0.494715 0.499110 -0.142156
C18   C     C_R   0.062836 0.601930 0.458115 -0.013669
C19   C     C_R   0.933855 0.599852 0.458601 -0.238933
C20   C     C_R   0.871335 0.492855 0.500545 -0.097403
C21   C     C_2   0.567815 0.928774 0.404464 -0.201521
C22   C     C_2   0.502097 0.869518 0.498527 -0.308574
C23   C     C_2   0.564462 0.063835 0.393753 0.036165
H1    H     H_    0.532773 0.090079 0.600294 0.158084
H2    H     H_    0.619382 0.876390 0.329449 0.161143
H3    H     H_    0.445661 0.915961 0.573252 0.144324
H4    H     H_    0.446906 0.434664 0.897634 0.160044
H5    H     H_    0.653924 0.615143 0.126110 0.161299
H6    H     H_    0.427120 0.457587 0.101713 0.169621
H7    H     H_    0.233508 0.269911 0.573917 0.138781
H8    H     H_    0.118083 0.082857 0.639907 0.143747
H9    H     H_    0.885427 0.082519 0.643219 0.147395
H10   H     H_    0.768279 0.269449 0.580276 0.137079
H11   H     H_    0.881474 0.682235 0.428160 0.144164
N1    N     N_2   0.501340 0.501330 0.852150 -0.210647
N2    N     N_2   0.501380 0.501360 0.147810 -0.187469
N3    N     N_1   0.177155 0.806712 0.386417 -0.204620
N4    N     N_1   0.726909 0.726196 0.810552 -0.217915
N5    N     N_1   0.615381 0.159813 0.161617 -0.204903
O1    O     O_R   0.499980 0.319060 0.613040 -0.625844
O2    O     O_R   0.500020 0.319100 0.386900 -0.594251
O3    O     O_R   0.316750 0.499980 0.613090 -0.614652
O4    O     O_R   0.316790 0.500020 0.386950 -0.606593
O5    O     O_R   0.499980 0.680900 0.613100 -0.610885
O6    O     O_R   0.500020 0.680940 0.386960 -0.605330
O7    O     O_R   0.683210 0.499980 0.613050 -0.610976
O8    O     O_R   0.683250 0.500020 0.386910 -0.614470
Zn1   Zn    Zn3+2 0.499970 0.499970 0.650990 0.956486
Zn2   Zn    Zn3+2 0.500030 0.500030 0.349010 0.965999

loop_
_geom_bond_atom_site_label_1
_geom_bond_atom_site_label_2
_ccdc_geom_bond_type
C12   C17   A    
C7    O7    A    
C15   N4    T    
C4    O4    A    
O6    Zn2   S    
C5    H5    S    
C9    C10   A    
C14   C18   S    
C19   C20   A    
C13   C20   A    
C3    N1    D    
C8    C12   A    
C8    H7    S    
C17   C18   A    
O8    Zn2   S    
O3    Zn1   S    
C21   C22   D    
C14   N3    T    
C11   C13   A    
H6    N2    S    
C4    O3    A    
N1    Zn1   S    
O2    Zn2   S    
C6    O6    A    
C1    C2    S    
C16   C23   S    
C21   C23   S    
C2    H1    S    
O7    Zn1   S    
C10   C11   A    
C9    H8    S    
C16   N5    T    
C6    C22   S    
C5    N2    D    
C10   H9    S    
C11   H10   S    
C3    C15   S    
C12   C13   A    
C7    C20   S    
C22   H3    S    
C1    O2    A    
C2    C23   D    
O1    Zn1   S    
C21   H2    S    
C18   C19   A    
C6    O5    A    
C1    O1    A    
H4    N1    S    
O4    Zn2   S    
N2    Zn2   S    
O5    Zn1   S    
C7    O8    A    
C8    C9    A    
C3    C5    S    
C19   H11   S    
C4    C17   S    
