data_mof_unit_62875.cif
_audit_creation_date              2012-12-10T20:04:54-0500
_audit_creation_method            fapswitch 2.2
_symmetry_space_group_name_H-M    P1
_symmetry_Int_Tables_number       1
_space_group_crystal_system       triclinic
_cell_length_a                    38.487427
_cell_length_b                    32.134863
_cell_length_c                    21.412536
_cell_angle_alpha                 89.994228
_cell_angle_beta                  123.435763
_cell_angle_gamma                 90.006135
_cell_volume                      22099.9814414

loop_
_atom_site_label
_atom_site_type_symbol
_atom_type_description
_atom_site_fract_x
_atom_site_fract_y
_atom_site_fract_z
_atom_type_partial_charge
C1    C     C_R   0.919362 0.000006 0.419428 0.907342
C2    C     C_R   0.271555 0.977570 0.818318 0.098578
C3    C     C_R   0.002551 0.228250 0.945481 -0.052357
C4    C     C_R   0.496046 0.728239 0.052959 -0.052379
C5    C     C_R   0.504028 0.728256 0.947126 -0.052585
C6    C     C_R   0.999997 0.206600 0.000006 0.029340
C7    C     C_R   0.500033 0.706601 0.000034 0.029254
C8    C     C_1   0.500012 0.838282 0.000030 -0.019880
C9    C     C_1   0.999993 0.338280 0.000005 -0.019705
C10   C     C_3   0.981137 0.965547 0.751786 -0.044882
C11   C     C_3   0.018874 0.965562 0.248237 -0.044685
C12   C     C_3   0.479916 0.466195 0.750556 -0.045133
C13   C     C_R   0.228276 0.493173 0.171671 0.100449
C14   C     C_3   0.519631 0.465977 0.248996 -0.045688
C15   C     C_1   0.000001 0.161956 0.000008 -0.014481
C16   C     C_1   0.500020 0.661956 0.000012 -0.014337
C17   C     C_1   0.000002 0.124752 0.000006 -0.150836
C18   C     C_1   0.500008 0.624753 0.000000 -0.150603
C19   C     C_1   0.500004 0.875503 0.000017 -0.157564
C20   C     C_1   0.999996 0.375502 0.000005 -0.156709
C21   C     C_3   0.000608 0.999913 0.812102 -0.142937
C22   C     C_3   0.999392 0.999919 0.187900 -0.143028
C23   C     C_3   0.500592 0.499841 0.812085 -0.142996
C24   C     C_R   0.771724 0.477191 0.817914 0.069702
C25   C     C_3   0.499387 0.499884 0.187893 -0.143048
C26   C     C_3   0.980538 0.034016 0.751433 -0.072744
C27   C     C_3   0.019454 0.034032 0.248547 -0.072721
C28   C     C_3   0.481743 0.534643 0.752641 -0.070762
C29   C     C_3   0.518671 0.534443 0.247769 -0.071442
C30   C     C_3   0.019884 0.034013 0.749519 0.065361
C31   C     C_3   0.980107 0.034014 0.250462 0.065351
C32   C     C_3   0.521072 0.533255 0.750709 0.065532
C33   C     C_3   0.479328 0.533541 0.249686 0.064935
C34   C     C_3   0.039798 0.000275 0.809718 0.078647
C35   C     C_R   0.706454 0.000276 0.205808 0.012622
C36   C     C_3   0.960203 0.000267 0.190283 0.079056
C37   C     C_3   0.539771 0.498829 0.809698 0.078957
C38   C     C_3   0.460195 0.499357 0.190267 0.079015
C39   C     C_3   0.020472 0.966325 0.749837 0.035985
C40   C     C_3   0.979538 0.966326 0.250185 0.036034
C41   C     C_3   0.519255 0.465589 0.748626 0.035992
C42   C     C_3   0.480286 0.465858 0.250924 0.036113
C43   C     C_1   0.960478 0.927889 0.754739 0.206946
C44   C     C_1   0.039543 0.927911 0.245309 0.206465
C45   C     C_1   0.457942 0.429270 0.752143 0.206379
C46   C     C_R   0.293546 0.000159 0.794376 -0.028515
C47   C     C_1   0.541147 0.428793 0.246946 0.207528
C48   C     C_1   0.993305 0.794015 0.108994 0.231896
C49   C     C_1   0.006660 0.794019 0.891186 0.171683
C50   C     C_1   0.496111 0.293994 0.111838 0.170822
C51   C     C_1   0.503800 0.294045 0.887842 0.231241
C52   C     C_1   0.005189 0.205572 0.889572 0.197841
C53   C     C_1   0.994801 0.205552 0.110435 0.197710
C54   C     C_1   0.508155 0.705585 0.892881 0.198074
C55   C     C_1   0.491955 0.705547 0.107236 0.198088
C56   C     C_1   0.508117 0.794617 0.892850 0.194973
C57   C     C_R   0.206471 0.500009 0.205965 0.043979
C58   C     C_1   0.491942 0.794582 0.107242 0.194474
C59   C     C_1   0.005168 0.294607 0.889546 0.195210
C60   C     C_1   0.994811 0.294588 0.110454 0.194709
C61   C     C_1   0.918320 0.999266 0.624442 0.188660
C62   C     C_1   0.081681 0.999311 0.375563 0.189060
C63   C     C_1   0.418336 0.502171 0.624430 0.186839
C64   C     C_1   0.581659 0.501135 0.375548 0.188103
C65   C     C_1   0.959197 0.071248 0.753870 0.184849
C66   C     C_1   0.040784 0.071270 0.246085 0.184859
C67   C     C_1   0.461724 0.572582 0.756451 0.183026
C68   C     C_R   0.793543 0.500173 0.794401 0.057582
C69   C     C_1   0.539156 0.572145 0.244440 0.183270
C70   C     C_R   0.727922 0.022790 0.273402 0.072114
C71   C     C_R   0.272109 0.022795 0.726893 0.099821
C72   C     C_R   0.227934 0.506856 0.283656 0.009395
C73   C     C_R   0.080637 0.000008 0.580570 0.906960
C74   C     C_R   0.772272 0.523201 0.727691 0.070076
C75   C     C_R   0.771434 0.022750 0.317046 0.098895
C76   C     C_R   0.228598 0.022788 0.683202 0.097058
C77   C     C_R   0.271595 0.506828 0.327190 0.097942
C78   C     C_R   0.728614 0.523253 0.683737 0.040040
C79   C     C_R   0.793387 0.000184 0.293006 0.002683
C80   C     C_R   0.206605 0.000142 0.707069 -0.027633
C81   C     C_R   0.293396 0.499981 0.292905 0.044342
C82   C     C_R   0.706619 0.500153 0.707107 0.033165
C83   C     C_R   0.771912 0.977735 0.225310 0.041308
C84   C     C_R   0.419362 0.500004 0.419425 0.904481
C85   C     C_R   0.228035 0.977573 0.774629 0.101270
C86   C     C_R   0.271945 0.493146 0.215215 0.014565
C87   C     C_R   0.728056 0.477135 0.774186 0.044092
C88   C     C_1   0.661898 0.000111 0.161126 -0.006974
C89   C     C_1   0.338111 0.000060 0.838938 -0.062150
C90   C     C_1   0.161909 0.499977 0.161207 -0.005906
C91   C     C_1   0.838093 0.500067 0.838934 0.046758
C92   C     C_1   0.837947 0.000081 0.337791 -0.055825
C93   C     C_1   0.162048 0.000067 0.662250 -0.057461
C94   C     C_1   0.337946 0.499986 0.337738 -0.000171
C95   C     C_R   0.580639 0.500008 0.580573 0.907998
C96   C     C_1   0.662057 0.500073 0.662273 -0.054364
C97   C     C_1   0.875198 0.000017 0.375179 -0.171151
C98   C     C_1   0.124799 0.000018 0.624838 -0.168940
C99   C     C_1   0.375197 0.499991 0.375157 -0.167140
C100  C     C_1   0.624805 0.500020 0.624851 -0.172829
C101  C     C_R   0.000635 0.000016 0.622155 0.909882
C102  C     C_R   0.999365 0.000019 0.377845 0.909907
C103  C     C_R   0.500639 0.500008 0.622159 0.911015
C104  C     C_R   0.499350 0.500015 0.377831 0.909114
C105  C     C_1   0.624640 0.000025 0.124010 -0.170320
C106  C     C_3   0.000653 0.000046 0.689051 -0.101407
C107  C     C_1   0.375366 0.000008 0.876002 -0.175394
C108  C     C_1   0.124648 0.499972 0.124038 -0.172528
C109  C     C_1   0.875354 0.500012 0.875994 -0.164930
C110  C     C_R   0.999999 0.919420 0.999998 0.900845
C111  C     C_R   0.499998 0.419420 0.000002 0.900584
C112  C     C_R   0.000181 0.999952 0.878583 0.904775
C113  C     C_R   0.999819 0.999954 0.121417 0.904302
C114  C     C_R   0.500178 0.499904 0.878580 0.904166
C115  C     C_R   0.499819 0.499930 0.121416 0.904822
C116  C     C_R   0.000001 0.080667 0.000002 0.911187
C117  C     C_3   0.999347 0.000056 0.310950 -0.101487
C118  C     C_R   0.500002 0.580667 0.999998 0.911740
C119  C     C_R   0.499999 0.919624 0.000002 0.898240
C120  C     C_R   0.999999 0.419624 0.000002 0.897927
C121  C     C_R   0.580460 0.999985 0.080226 0.895775
C122  C     C_R   0.419542 0.999987 0.919775 0.898184
C123  C     C_R   0.080462 0.499988 0.080231 0.895355
C124  C     C_R   0.919539 0.499987 0.919772 0.892739
C125  C     C_R   0.499999 0.080509 0.999996 0.894935
C126  C     C_R   1.000000 0.580508 0.999997 0.896163
C127  C     C_R   0.498096 0.227905 0.054915 0.044358
C128  C     C_3   0.500650 0.500004 0.689049 -0.100739
C129  C     C_R   0.501863 0.228156 0.944522 0.016480
C130  C     C_R   0.996691 0.728142 0.053882 0.016467
C131  C     C_R   0.003250 0.727917 0.946538 0.044489
C132  C     C_R   0.499984 0.206456 0.999742 0.078117
C133  C     C_R   0.999972 0.706456 0.000189 0.078283
C134  C     C_R   0.003263 0.771662 0.946404 -0.044687
C135  C     C_R   0.996701 0.771730 0.053739 -0.008567
C136  C     C_R   0.501855 0.271744 0.944675 -0.008484
C137  C     C_R   0.498083 0.271650 0.055059 -0.044489
C138  C     C_3   0.961139 0.999659 0.690875 -0.070599
C139  C     C_3   0.499327 0.500030 0.310929 -0.101205
C140  C     C_3   0.038862 0.999684 0.309126 -0.070583
C141  C     C_3   0.461141 0.501009 0.690870 -0.073660
C142  C     C_3   0.538843 0.500546 0.309113 -0.070073
C143  C     C_R   0.999985 0.793411 0.000050 -0.010613
C144  C     C_R   0.499972 0.293412 0.999900 -0.010711
C145  C     C_1   0.499989 0.161909 0.999899 -0.009704
C146  C     C_1   0.999984 0.661908 0.000046 -0.009101
C147  C     C_1   0.999991 0.838072 0.000026 -0.013001
C148  C     C_1   0.499983 0.338073 0.999950 -0.013590
C149  C     C_1   0.999995 0.875297 0.000011 -0.153258
C150  C     C_R   0.728245 0.977826 0.181633 0.099352
C151  C     C_1   0.499993 0.375297 0.999982 -0.154306
C152  C     C_1   0.499994 0.124668 0.999972 -0.175799
C153  C     C_1   0.999993 0.624668 0.999994 -0.174205
C154  C     C_R   0.504021 0.771957 0.947128 -0.053726
C155  C     C_R   0.496040 0.771940 0.052957 -0.053636
C156  C     C_R   0.002547 0.271951 0.945480 -0.053718
C157  C     C_R   0.997437 0.271942 0.054524 -0.053608
C158  C     C_R   0.500023 0.793612 0.000038 0.028142
C159  C     C_R   0.999992 0.293611 0.000002 0.028098
C160  C     C_R   0.997438 0.228241 0.054526 -0.052325
H1    H     H_    0.812162 0.067677 0.383225 0.195669
H2    H     H_    0.521722 0.213235 0.163283 0.197850
H3    H     H_    0.530214 0.187252 0.914457 0.196651
H4    H     H_    0.477481 0.187244 0.858320 0.198214
H5    H     H_    0.966935 0.687220 0.080942 0.196667
H6    H     H_    0.019536 0.687222 0.139860 0.197944
H7    H     H_    0.034328 0.713253 0.897930 0.195631
H8    H     H_    0.981716 0.713260 0.838999 0.197939
H9    H     H_    0.052077 0.087219 0.797846 0.203431
H10   H     H_    0.019483 0.089828 0.704602 0.206233
H11   H     H_    0.947904 0.087210 0.202108 0.203295
H12   H     H_    0.811598 0.025181 0.429575 0.210641
H13   H     H_    0.980494 0.089828 0.295351 0.206229
H14   H     H_    0.555058 0.585340 0.800768 0.203492
H15   H     H_    0.522654 0.588993 0.707600 0.206522
H16   H     H_    0.445973 0.586028 0.200230 0.203563
H17   H     H_    0.478449 0.589311 0.293429 0.206416
H18   H     H_    0.101931 0.001679 0.854168 0.183283
H19   H     H_    0.088245 0.972591 0.902289 0.190485
H20   H     H_    0.898069 0.001647 0.145832 0.182257
H21   H     H_    0.911764 0.972563 0.097729 0.189614
H22   H     H_    0.601918 0.497913 0.854196 0.182000
H23   H     H_    0.188465 0.025413 0.570676 0.211531
H24   H     H_    0.587151 0.469469 0.901370 0.189058
H25   H     H_    0.398041 0.499278 0.145781 0.181985
H26   H     H_    0.412418 0.470587 0.098282 0.189516
H27   H     H_    0.053014 0.913169 0.797609 0.186949
H28   H     H_    0.068345 0.939971 0.749560 0.179392
H29   H     H_    0.947011 0.913157 0.202444 0.186294
H30   H     H_    0.931671 0.939954 0.250474 0.178972
H31   H     H_    0.549836 0.411290 0.794528 0.186184
H32   H     H_    0.566224 0.437542 0.747606 0.179786
H33   H     H_    0.449002 0.411957 0.204358 0.186119
H34   H     H_    0.187924 0.067806 0.617244 0.196575
H35   H     H_    0.432984 0.438407 0.251665 0.179042
H36   H     H_    0.812786 0.932681 0.240963 0.200941
H37   H     H_    0.813102 0.975287 0.194564 0.192419
H38   H     H_    0.186865 0.974966 0.805387 0.185663
H39   H     H_    0.187164 0.932473 0.758775 0.194475
H40   H     H_    0.312973 0.459974 0.204071 0.192708
H41   H     H_    0.313052 0.511873 0.189920 0.194676
H42   H     H_    0.686831 0.473852 0.804773 0.191600
H43   H     H_    0.687140 0.431813 0.757236 0.200041
H44   H     H_    0.714675 0.966341 0.077535 0.204365
H45   H     H_    0.285277 0.490881 0.429847 0.212347
H46   H     H_    0.714393 0.923818 0.123991 0.205110
H47   H     H_    0.311865 0.974905 0.930843 0.195853
H48   H     H_    0.312094 0.932435 0.884110 0.194566
H49   H     H_    0.214621 0.509125 0.069051 0.205241
H50   H     H_    0.214544 0.457282 0.083209 0.205218
H51   H     H_    0.785533 0.422661 0.874066 0.207230
H52   H     H_    0.785258 0.464614 0.921660 0.206415
H53   H     H_    0.686818 0.025313 0.304299 0.195406
H54   H     H_    0.687066 0.067849 0.257709 0.190071
H55   H     H_    0.312994 0.067899 0.742845 0.192077
H56   H     H_    0.285339 0.542730 0.415670 0.208673
H57   H     H_    0.313230 0.025466 0.696036 0.197511
H58   H     H_    0.186854 0.488142 0.309005 0.201376
H59   H     H_    0.186929 0.540045 0.294820 0.198756
H60   H     H_    0.786603 0.577738 0.699805 0.206461
H61   H     H_    0.786879 0.535795 0.652190 0.210210
H62   H     H_    0.687875 0.568484 0.618762 0.202241
H63   H     H_    0.688435 0.526550 0.571271 0.217253
H64   H     H_    0.468980 0.213218 0.107119 0.195455
N1    N     N_1   0.944223 0.898224 0.757172 -0.180972
N2    N     N_1   0.009379 0.811889 0.847128 -0.192536
N3    N     N_1   0.494528 0.311855 0.157142 -0.192797
N4    N     N_1   0.505359 0.311885 0.842487 -0.191717
N5    N     N_3   0.496201 0.204837 0.110440 -0.441029
N6    N     N_3   0.503790 0.206255 0.888022 -0.444653
N7    N     N_3   0.993333 0.706228 0.108814 -0.444959
N8    N     N_3   0.006548 0.704861 0.892542 -0.440535
N9    N     N_1   0.007298 0.187467 0.845044 -0.190525
N10   N     N_1   0.992693 0.187440 0.154962 -0.190699
N11   N     N_1   0.511454 0.687490 0.849679 -0.190096
N12   N     N_1   0.055806 0.898253 0.242895 -0.181800
N13   N     N_1   0.488691 0.687431 0.150465 -0.190724
N14   N     N_1   0.511382 0.812697 0.849594 -0.184354
N15   N     N_1   0.488677 0.812648 0.150504 -0.184882
N16   N     N_1   0.007256 0.312683 0.844969 -0.184167
N17   N     N_1   0.992719 0.312657 0.155028 -0.184953
N18   N     N_1   0.884604 0.998938 0.572046 -0.213852
N19   N     N_1   0.115396 0.999000 0.427962 -0.213318
N20   N     N_1   0.384634 0.503081 0.572028 -0.190432
N21   N     N_1   0.615372 0.501583 0.427945 -0.216117
N22   N     N_1   0.942410 0.100577 0.755890 -0.179533
N23   N     N_1   0.440656 0.400179 0.753500 -0.182250
N24   N     N_1   0.057564 0.100605 0.244045 -0.179544
N25   N     N_1   0.445973 0.602465 0.759551 -0.180930
N26   N     N_1   0.555269 0.601844 0.241714 -0.181331
N27   N     N_3   0.041540 0.070874 0.748295 -0.437521
N28   N     N_3   0.958442 0.070867 0.251665 -0.437769
N29   N     N_3   0.544015 0.569320 0.750729 -0.439365
N30   N     N_3   0.456839 0.569889 0.250100 -0.439854
N31   N     N_3   0.082660 0.000946 0.874386 -0.425436
N32   N     N_3   0.917341 0.000921 0.125615 -0.426177
N33   N     N_3   0.582624 0.497965 0.874379 -0.425956
N34   N     N_1   0.558077 0.399500 0.245226 -0.180536
N35   N     N_3   0.417331 0.499040 0.125588 -0.426021
N36   N     N_3   0.042146 0.929642 0.748057 -0.421446
N37   N     N_3   0.957873 0.929635 0.251985 -0.421136
N38   N     N_3   0.539630 0.428156 0.745606 -0.420595
N39   N     N_3   0.459443 0.428685 0.253501 -0.421352
N40   N     N_3   0.793920 0.954703 0.200115 -0.468783
N41   N     N_3   0.206047 0.954435 0.799743 -0.422448
N42   N     N_3   0.293983 0.486138 0.179687 -0.470247
N43   N     N_3   0.706010 0.453554 0.798695 -0.468046
N44   N     N_3   0.705749 0.955128 0.112536 -0.436699
N45   N     N_3   0.792873 0.045806 0.385808 -0.413012
N46   N     N_3   0.292967 0.954395 0.886959 -0.418801
N47   N     N_3   0.205790 0.486263 0.092430 -0.437538
N48   N     N_3   0.794195 0.453927 0.886382 -0.443947
N49   N     N_3   0.705972 0.045876 0.298634 -0.416714
N50   N     N_3   0.294084 0.045979 0.701808 -0.416843
N51   N     N_3   0.205915 0.513879 0.319208 -0.464145
N52   N     N_3   0.795294 0.546470 0.704889 -0.443983
N53   N     N_3   0.207200 0.045966 0.614566 -0.413936
N54   N     N_3   0.294078 0.513747 0.406428 -0.423255
N55   N     N_3   0.707153 0.546872 0.615586 -0.459691
N56   N     N_1   0.990587 0.811837 0.153089 -0.191355
O1    O     O_R   0.939010 0.034440 0.439030 -0.615605
O2    O     O_R   0.439000 0.999980 0.991570 -0.614712
O3    O     O_R   0.061000 0.499980 0.008430 -0.607937
O4    O     O_R   0.939000 0.499980 0.991570 -0.612072
O5    O     O_R   0.500000 0.061040 0.052440 -0.608445
O6    O     O_R   0.500000 0.061040 0.947560 -0.620100
O7    O     O_R   0.000000 0.561040 0.052440 -0.620457
O8    O     O_R   0.000000 0.561040 0.947560 -0.607601
O9    O     O_R   0.939030 0.965580 0.439000 -0.617602
O10   O     O_R   0.060970 0.965580 0.561000 -0.617506
O11   O     O_R   0.439030 0.465580 0.439000 -0.617935
O12   O     O_R   0.060990 0.034440 0.560970 -0.615546
O13   O     O_R   0.560970 0.465580 0.561000 -0.618106
O14   O     O_R   0.000010 0.034440 0.593030 -0.626878
O15   O     O_R   0.999990 0.034440 0.406970 -0.626936
O16   O     O_R   0.500010 0.534440 0.593030 -0.626491
O17   O     O_R   0.499990 0.534440 0.406970 -0.627467
O18   O     O_R   0.000020 0.965580 0.593000 -0.607927
O19   O     O_R   0.999980 0.965580 0.407000 -0.607703
O20   O     O_R   0.500020 0.465580 0.593000 -0.607972
O21   O     O_R   0.499980 0.465580 0.407000 -0.608052
O22   O     O_R   0.034440 0.939060 0.034360 -0.617190
O23   O     O_R   0.439010 0.534440 0.439030 -0.612809
O24   O     O_R   0.965560 0.939060 0.965640 -0.617761
O25   O     O_R   0.534440 0.439060 0.034360 -0.617629
O26   O     O_R   0.465560 0.439060 0.965640 -0.617571
O27   O     O_R   0.034440 0.000050 0.941370 -0.615957
O28   O     O_R   0.965560 0.000050 0.058630 -0.616259
O29   O     O_R   0.534440 0.500050 0.941370 -0.615519
O30   O     O_R   0.465560 0.500050 0.058630 -0.615688
O31   O     O_R   0.965570 0.000070 0.872530 -0.619934
O32   O     O_R   0.034430 0.000070 0.127470 -0.619850
O33   O     O_R   0.465570 0.500070 0.872530 -0.620492
O34   O     O_R   0.560990 0.534440 0.560970 -0.615743
O35   O     O_R   0.534430 0.500070 0.127470 -0.620162
O36   O     O_R   0.034450 0.061050 0.034440 -0.612213
O37   O     O_R   0.965550 0.061050 0.965560 -0.612352
O38   O     O_R   0.534450 0.561050 0.034440 -0.612566
O39   O     O_R   0.465550 0.561050 0.965560 -0.612598
O40   O     O_R   0.500030 0.939050 0.052570 -0.610670
O41   O     O_R   0.499970 0.939050 0.947430 -0.609296
O42   O     O_R   0.000030 0.439050 0.052570 -0.610035
O43   O     O_R   0.999970 0.439050 0.947430 -0.610145
O44   O     O_R   0.561000 0.000050 0.113470 -0.616729
O45   O     O_R   0.439000 0.000050 0.886530 -0.614915
O46   O     O_R   0.061000 0.500050 0.113470 -0.618966
O47   O     O_R   0.939000 0.500050 0.886530 -0.610771
O48   O     O_R   0.561000 0.999980 0.008430 -0.609102
Zn1   Zn    Zn3+2 0.000000 0.045990 0.500000 0.977940
Zn2   Zn    Zn3+2 0.499980 0.000060 0.929880 0.985773
Zn3   Zn    Zn3+2 0.000020 0.500060 0.070120 0.983140
Zn4   Zn    Zn3+2 0.999980 0.500060 0.929880 0.995855
Zn5   Zn    Zn3+2 0.500000 0.545990 0.500000 0.979708
Zn6   Zn    Zn3+2 1.000000 0.954030 0.500000 0.997948
Zn7   Zn    Zn3+2 0.500000 0.454030 0.500000 0.997680
Zn8   Zn    Zn3+2 0.045990 0.000050 0.045940 0.994279
Zn9   Zn    Zn3+2 0.954010 0.000050 0.954060 0.993142
Zn10  Zn    Zn3+2 0.545990 0.500050 0.045940 0.992676
Zn11  Zn    Zn3+2 0.454010 0.500050 0.954060 0.992164
Zn12  Zn    Zn3+2 0.500020 0.000060 0.070120 0.987272

loop_
_geom_bond_atom_site_label_1
_geom_bond_atom_site_label_2
_ccdc_geom_bond_type
C131  N8    S    
C111  O26   A    
C21   C26   S    
H6    N7    S    
C114  O29   A    
C48   C135  S    
C148  C151  T    
C103  O16   A    
H39   N41   S    
C66   N24   T    
O19   Zn6   S    
O13   Zn7   S    
C12   C23   S    
C60   N17   T    
H33   N39   S    
C56   N14   T    
C37   N33   S    
C154  C158  A    
C44   N12   T    
O17   Zn5   S    
C139  C142  S    
H47   N46   S    
C82   C87   A    
C29   C33   S    
C127  N5    S    
H4    N6    S    
C134  C143  A    
C22   C113  S    
C120  O42   A    
C32   N29   S    
C73   O10   A    
C18   C118  S    
C81   C86   A    
C131  C134  A    
C40   C117  S    
C70   N49   S    
C155  C158  A    
C114  O33   A    
C29   C69   S    
H44   N44   S    
C10   C21   S    
C25   C29   S    
C103  O20   A    
C125  O5    A    
C57   C90   S    
C27   C31   S    
O44   Zn12  S    
C28   C32   S    
C56   C154  S    
C23   C37   S    
C11   C140  S    
H8    N8    S    
C78   C82   A    
C121  O44   A    
C115  O30   A    
H59   N51   S    
C1    O9    A    
O21   Zn7   S    
C55   N13   T    
C67   N25   T    
C157  C160  A    
H48   N46   S    
C22   C27   S    
O23   Zn5   S    
C29   C142  S    
O3    Zn4   S    
C20   C120  S    
C21   C112  S    
C42   N39   S    
C6    C160  A    
C3    C52   S    
C22   C36   S    
C33   C38   S    
H9    N27   S    
C27   C66   S    
H64   N5    S    
C1    O1    A    
C116  O36   A    
C33   C139  S    
C3    C156  A    
C73   O12   A    
C24   C87   A    
H2    N5    S    
C39   N36   S    
C4    C155  A    
C51   N4    T    
H5    N7    S    
C31   C36   S    
C10   C138  S    
C107  C122  S    
H62   N55   S    
C75   C79   A    
C53   N10   T    
H45   N54   S    
O14   Zn1   S    
O25   Zn10  S    
O22   Zn8   S    
C65   N22   T    
C14   C142  S    
H58   N51   S    
H55   N50   S    
C126  O8    A    
C72   N51   S    
C3    C6    A    
C62   N19   T    
C46   C89   S    
O24   Zn9   S    
C118  O38   A    
C24   N48   S    
C132  C145  S    
C41   N38   S    
H37   N40   S    
C71   N50   S    
C61   C138  S    
C13   C57   A    
C47   N34   T    
C68   C74   A    
C84   O23   A    
C30   N27   S    
C40   N37   S    
O40   Zn12  S    
H46   N44   S    
O33   Zn11  S    
C35   C150  A    
C83   C150  A    
H19   N31   S    
H40   N42   S    
C57   C72   A    
C4    C7    A    
O30   Zn11  S    
C92   C97   T    
H23   N53   S    
C124  O4    A    
C73   C98   S    
C8    C19   T    
C30   C34   S    
C34   C39   S    
C5    C54   S    
C60   C157  S    
H38   N41   S    
C23   C28   S    
C129  N6    S    
C77   N54   S    
H21   N32   S    
C25   C38   S    
C51   C136  S    
H26   N35   S    
C11   C44   S    
C32   C37   S    
C102  C117  S    
C137  C144  A    
C26   C30   S    
C112  O31   A    
C58   N15   T    
C150  N44   S    
C101  C106  S    
C111  O25   A    
C76   C80   A    
C95   O34   A    
C59   C156  S    
C121  O48   A    
O18   Zn6   S    
C123  O46   A    
C94   C99   T    
C32   C128  S    
C59   N16   T    
C80   C93   S    
C90   C108  T    
O10   Zn6   S    
C88   C105  T    
C63   N20   T    
C96   C100  T    
C37   C41   S    
C11   C40   S    
C145  C152  T    
C70   C75   A    
O16   Zn5   S    
C28   C141  S    
C62   C140  S    
C87   N43   S    
C39   C106  S    
C104  O21   A    
C130  C135  A    
H3    N6    S    
C8    C158  S    
H7    N8    S    
H17   N30   S    
C36   N32   S    
C76   N53   S    
H30   N37   S    
C33   N30   S    
C147  C149  T    
C78   N55   S    
C13   N47   S    
C71   C76   A    
O6    Zn2   S    
O9    Zn6   S    
H52   N48   S    
C5    C154  A    
C113  O28   A    
C119  O40   A    
C2    C85   A    
O27   Zn8   S    
C119  O41   A    
C52   N9    T    
O31   Zn9   S    
C128  C141  S    
C129  C132  A    
C48   N56   T    
C10   C43   S    
C19   C119  S    
C157  C159  A    
C50   N3    T    
O26   Zn11  S    
C2    N46   S    
H31   N38   S    
O5    Zn12  S    
C5    C7    A    
C95   C100  S    
C12   C45   S    
C21   C34   S    
H1    N45   S    
H11   N28   S    
O41   Zn2   S    
C10   C39   S    
C80   C85   A    
C9    C20   T    
C77   C81   A    
H28   N36   S    
C63   C141  S    
H29   N37   S    
O45   Zn2   S    
C122  O2    A    
C46   C71   A    
C14   C47   S    
C69   N26   T    
C7    C16   S    
C4    C55   S    
H51   N48   S    
C117  C140  S    
H41   N42   S    
C108  C123  S    
C61   N18   T    
C15   C17   T    
C125  O6    A    
C53   C160  S    
C84   C99   S    
H56   N54   S    
O20   Zn7   S    
H24   N33   S    
C26   C138  S    
O8    Zn4   S    
C118  O39   A    
O32   Zn8   S    
C104  C139  S    
C101  O18   A    
C136  C144  A    
H43   N43   S    
C23   C114  S    
C79   C83   A    
C124  O47   A    
O47   Zn4   S    
C146  C153  T    
C64   C142  S    
C112  O27   A    
C31   N28   S    
O15   Zn1   S    
C14   C25   S    
O12   Zn1   S    
C24   C68   A    
H16   N30   S    
C126  C153  S    
H63   N55   S    
C74   C78   A    
O29   Zn10  S    
O37   Zn9   S    
C133  C146  S    
O4    Zn3   S    
C49   C134  S    
C81   C94   S    
C110  O24   A    
H60   N52   S    
O35   Zn10  S    
C144  C148  S    
C110  C149  S    
C38   N35   S    
C45   N23   T    
H20   N32   S    
C50   C137  S    
C2    C46   A    
C143  C147  S    
C12   C41   S    
C95   O13   A    
C38   C42   S    
C25   C115  S    
C122  O45   A    
C101  O14   A    
C106  C138  S    
C120  O43   A    
C9    C159  S    
H54   N49   S    
C68   C91   S    
H61   N52   S    
O11   Zn7   S    
C127  C132  A    
C31   C117  S    
H14   N29   S    
O34   Zn5   S    
C6    C15   S    
H25   N35   S    
C64   N21   T    
C35   C70   A    
H50   N47   S    
H13   N28   S    
C115  O35   A    
H42   N43   S    
C14   C42   S    
O38   Zn10  S    
C126  O7    A    
C30   C106  S    
C41   C128  S    
C89   C107  T    
C83   N40   S    
C54   N11   T    
H15   N29   S    
H57   N50   S    
H27   N36   S    
C113  O32   A    
C82   C96   S    
C85   N41   S    
C36   C40   S    
C28   C67   S    
O48   Zn2   S    
C1    C97   S    
C102  O19   A    
C104  O17   A    
H18   N31   S    
C75   N45   S    
O39   Zn11  S    
C34   N31   S    
C13   C86   A    
H35   N39   S    
C72   C77   A    
C125  C152  S    
C129  C136  A    
C35   C88   S    
O7    Zn3   S    
C105  C121  S    
C103  C128  S    
C79   C92   S    
H53   N49   S    
C110  O22   A    
H22   N33   S    
O36   Zn8   S    
O2    Zn12  S    
C42   C139  S    
C26   C65   S    
C156  C159  A    
H12   N45   S    
C131  C133  A    
C111  C151  S    
C116  O37   A    
C109  C124  S    
C102  O15   A    
O43   Zn4   S    
C11   C22   S    
C27   C140  S    
C91   C109  T    
C123  O3    A    
C84   O11   A    
C130  N7    S    
O42   Zn3   S    
C74   N52   S    
C135  C143  A    
H10   N27   S    
O1    Zn1   S    
C12   C141  S    
O28   Zn9   S    
H32   N38   S    
C58   C155  S    
C130  C133  A    
H49   N47   S    
C17   C116  S    
H34   N53   S    
C16   C18   T    
O46   Zn3   S    
C86   N42   S    
C127  C137  A    
C49   N2    T    
C93   C98   T    
C43   N1    T    
H36   N40   S    
