data_mof_unit_49863.cif
_audit_creation_date              2012-12-10T20:01:38-0500
_audit_creation_method            fapswitch 2.2
_symmetry_space_group_name_H-M    P1
_symmetry_Int_Tables_number       1
_space_group_crystal_system       triclinic
_cell_length_a                    14.113731
_cell_length_b                    14.957096
_cell_length_c                    16.772627
_cell_angle_alpha                 89.574161
_cell_angle_beta                  94.53287
_cell_angle_gamma                 89.997199
_cell_volume                      3529.53578231

loop_
_atom_site_label
_atom_site_type_symbol
_atom_type_description
_atom_site_fract_x
_atom_site_fract_y
_atom_site_fract_z
_atom_type_partial_charge
C1    C     C_R   0.500036 0.327422 0.500436 0.930850
C2    C     C_R   0.499917 0.672312 0.499079 0.872219
C3    C     C_R   0.582032 0.189937 0.544373 -0.327147
C4    C     C_R   0.441789 0.807986 0.556419 -0.285219
C5    C     C_R   0.501041 0.231230 0.506978 -0.103828
C6    C     C_R   0.500293 0.768133 0.503232 -0.171161
C7    C     C_R   0.422136 0.180920 0.477718 0.449535
C8    C     C_R   0.561010 0.819934 0.458670 0.440667
C9    C     C_R   0.425794 0.088613 0.486923 -0.318731
C10   C     C_R   0.564350 0.910978 0.471008 -0.203373
C11   C     C_R   0.505857 0.047405 0.525508 0.064258
C12   C     C_R   0.507154 0.950973 0.525031 0.012056
C13   C     C_R   0.109606 0.539527 0.560180 -0.313748
C14   C     C_R   0.890747 0.547451 0.444003 -0.311884
C15   C     C_R   0.208949 0.539938 0.559912 0.003545
C16   C     C_R   0.791401 0.547724 0.444209 0.025384
C17   C     C_R   0.200133 0.460024 0.438538 0.000095
C18   C     C_R   0.799410 0.452163 0.557403 -0.031651
C19   C     C_R   0.099712 0.458129 0.435260 0.009637
C20   C     C_R   0.899801 0.449673 0.560412 0.020519
C21   C     C_R   0.053127 0.497373 0.498649 0.108904
C22   C     C_R   0.946794 0.497241 0.501163 0.104857
C23   C     C_R   0.512400 0.497388 0.653703 0.875811
C24   C     C_R   0.487568 0.497993 0.346405 0.876920
C25   C     C_R   0.519850 0.484923 0.739895 -0.063726
C26   C     C_R   0.479516 0.478866 0.261423 -0.053673
C27   C     C_R   0.437434 0.487658 0.780469 -0.238892
C28   C     C_R   0.559979 0.450757 0.225111 -0.231583
C29   C     C_R   0.441955 0.469373 0.861174 -0.183421
C30   C     C_R   0.552428 0.427073 0.145584 -0.192495
C31   C     C_R   0.529502 0.447819 0.903289 0.273618
C32   C     C_R   0.464197 0.433044 0.100153 0.289928
C33   C     C_R   0.613644 0.445184 0.863224 0.094552
C34   C     C_R   0.381597 0.456002 0.137599 0.102661
C35   C     C_R   0.607588 0.463888 0.780865 -0.229360
C36   C     C_R   0.390401 0.479607 0.218244 -0.242352
C37   C     C_R   0.586290 0.097597 0.553583 0.117554
C38   C     C_R   0.443241 0.899982 0.567552 0.118673
H1    H     H_    0.629006 0.446640 0.258138 0.167839
H2    H     H_    0.369011 0.503821 0.749872 0.161315
H3    H     H_    0.251398 0.572527 0.607740 0.124327
H4    H     H_    0.749178 0.586392 0.399695 0.143452
H5    H     H_    0.237026 0.429415 0.391579 0.141668
H6    H     H_    0.762107 0.415596 0.601224 0.118229
H7    H     H_    0.616483 0.406980 0.118924 0.153239
H8    H     H_    0.376719 0.474100 0.890796 0.148823
H9    H     H_    0.670175 0.461375 0.747796 0.150476
H10   H     H_    0.327618 0.499432 0.246986 0.155292
H11   H     H_    0.642220 0.230124 0.566672 0.168446
H12   H     H_    0.395394 0.766739 0.589855 0.161502
H13   H     H_    0.367089 0.048190 0.461967 0.137335
H14   H     H_    0.608836 0.951620 0.435297 0.163974
H15   H     H_    0.076816 0.572657 0.608180 0.143397
H16   H     H_    0.923871 0.586871 0.399477 0.147989
N1    N     N_2   0.536435 0.438344 0.987310 -0.213241
N2    N     N_2   0.458561 0.427186 0.016031 -0.211694
N3    N     N_R   0.252470 0.499980 0.500000 -0.098987
N4    N     N_R   0.747530 0.500020 0.500000 -0.099421
O1    O     O_R   0.579480 0.369070 0.499990 -0.640521
O2    O     O_R   0.420520 0.630930 0.500010 -0.617986
O3    O     O_R   0.420520 0.369060 0.499990 -0.557454
O4    O     O_R   0.579480 0.630940 0.500010 -0.601259
O5    O     O_R   0.588340 0.499180 0.616130 -0.629569
O6    O     O_R   0.411660 0.500820 0.383870 -0.627895
O7    O     O_R   0.429390 0.499170 0.616130 -0.630823
O8    O     O_R   0.570610 0.500830 0.383870 -0.632108
Zn1   Zn    Zn3+2 0.606140 0.500010 0.500000 0.943117
Zn2   Zn    Zn3+2 0.393860 0.499990 0.500000 0.962017
C39   C     C_3   0.046146 0.415724 0.363205 -0.433784
C40   C     C_3   0.002240 0.325580 0.383815 -0.334037
C41   C     C_3   0.956099 0.280721 0.309090 -0.875994
H17   H     H_    0.898904 0.323895 0.280380 0.261510
H18   H     H_    0.009932 0.267781 0.265678 0.260666
H19   H     H_    0.924447 0.215945 0.325837 0.249454
H20   H     H_    0.058287 0.280642 0.411937 0.223429
H21   H     H_    0.946893 0.335293 0.426323 0.227522
H22   H     H_    0.990365 0.461830 0.337056 0.205965
H23   H     H_    0.095216 0.404756 0.315428 0.195024
C42   C     C_3   0.952910 0.397333 0.627702 -0.440028
C43   C     C_3   0.995331 0.310439 0.598176 -0.338005
C44   C     C_3   0.040560 0.254916 0.667801 -0.874989
H24   H     H_    0.098230 0.293377 0.700859 0.264465
H25   H     H_    0.986339 0.235982 0.709408 0.256898
H26   H     H_    0.071408 0.192920 0.644585 0.248638
H27   H     H_    0.938586 0.270193 0.565709 0.213723
H28   H     H_    0.050919 0.325764 0.556961 0.234087
H29   H     H_    0.009480 0.439199 0.658016 0.207729
H30   H     H_    0.903812 0.380090 0.674243 0.192180
C45   C     C_3   0.707316 0.422567 0.910634 -0.407043
C46   C     C_3   0.795140 0.417721 0.862024 -0.372244
C47   C     C_3   0.884206 0.393268 0.915356 -0.880714
H31   H     H_    0.898443 0.444346 0.962540 0.263321
H32   H     H_    0.875488 0.326858 0.943947 0.263003
H33   H     H_    0.946267 0.390282 0.878666 0.247862
H34   H     H_    0.784052 0.366110 0.814827 0.218225
H35   H     H_    0.807060 0.483658 0.833468 0.223808
H36   H     H_    0.720667 0.473685 0.958012 0.208040
H37   H     H_    0.698985 0.356756 0.940590 0.206778
C48   C     C_3   0.284300 0.460577 0.092507 -0.436958
C49   C     C_3   0.219285 0.386212 0.120266 -0.330626
C50   C     C_3   0.120914 0.390837 0.075496 -0.893172
H38   H     H_    0.086621 0.456018 0.086306 0.260179
H39   H     H_    0.126349 0.382540 0.010249 0.264107
H40   H     H_    0.075562 0.336471 0.097004 0.251043
H41   H     H_    0.251476 0.319965 0.109505 0.230192
H42   H     H_    0.211067 0.392311 0.185375 0.215949
H43   H     H_    0.252170 0.526984 0.102807 0.199850
H44   H     H_    0.288887 0.454545 0.027000 0.211111
C51   C     C_3   0.678253 0.055717 0.589739 -0.409568
C52   C     C_3   0.667631 0.014329 0.672375 -0.353668
C53   C     C_3   0.763180 0.981901 0.710890 -0.872786
H45   H     H_    0.793991 0.930814 0.672712 0.266574
H46   H     H_    0.813480 0.038770 0.719573 0.258324
H47   H     H_    0.753055 0.951367 0.770160 0.249549
H48   H     H_    0.638130 0.064765 0.712021 0.221120
H49   H     H_    0.618903 0.956197 0.666787 0.229829
H50   H     H_    0.703829 0.004551 0.549032 0.203386
H51   H     H_    0.735225 0.107198 0.595936 0.198985
C54   C     C_3   0.373482 0.940801 0.621682 -0.407074
C55   C     C_3   0.423063 0.980876 0.697766 -0.352955
C56   C     C_3   0.350897 0.013392 0.754195 -0.873370
H52   H     H_    0.304041 0.065311 0.724237 0.264373
H53   H     H_    0.306748 0.956761 0.773133 0.258808
H54   H     H_    0.388846 0.042934 0.808241 0.251377
H55   H     H_    0.469465 0.929655 0.729360 0.221111
H56   H     H_    0.467089 0.038819 0.682162 0.230299
H57   H     H_    0.329557 0.992546 0.588690 0.201328
H58   H     H_    0.322663 0.888960 0.639707 0.196496
O9    O     O_3   0.344223 0.222640 0.438405 -0.770427
H59   H     H_    0.295447 0.177153 0.422220 0.322766
O10   O     O_3   0.615600 0.785389 0.401372 -0.770921
H60   H     H_    0.588560 0.727536 0.382564 0.327798

loop_
_geom_bond_atom_site_label_1
_geom_bond_atom_site_label_2
_ccdc_geom_bond_type
N1    N2    D    
C50   H38   S    
C52   H49   S    
C27   C29   A    
C30   H7    S    
C39   H22   S    
C53   H45   S    
C9    H13   S    
C10   H14   S    
C42   H29   S    
C44   H24   S    
C3    H11   S    
C51   H50   S    
C46   H34   S    
C48   H44   S    
C49   H41   S    
O4    Zn1   S    
C1    C5    S    
O6    Zn2   S    
C19   C21   A    
C24   C26   S    
C33   C45   S    
C1    O1    A    
C2    O2    A    
C18   C20   A    
C11   C37   A    
C52   C53   S    
C56   H54   S    
C43   H28   S    
O1    Zn1   S    
C18   N4    A    
C31   C33   A    
C40   C41   S    
C37   C51   S    
C24   O8    A    
C54   H58   S    
C23   O5    A    
O8    Zn1   S    
C35   H9    S    
C24   O6    A    
C21   C22   S    
C15   N3    A    
C39   H23   S    
C2    C6    S    
C42   H30   S    
C44   H25   S    
C51   H51   S    
C13   H15   S    
O5    Zn1   S    
C7    O9    S    
C15   H3    S    
C4    C6    A    
C47   H31   S    
C5    C7    A    
C55   H55   S    
C17   C19   A    
C6    C8    A    
C28   H1    S    
C45   H36   S    
C32   C34   A    
C17   H5    S    
C43   H27   S    
C18   H6    S    
C47   H32   S    
C48   C49   S    
C27   H2    S    
C11   C12   S    
O7    Zn2   S    
C8    O10   S    
C34   C48   S    
C13   C21   A    
C53   H46   S    
C16   N4    A    
C9    C11   A    
O2    Zn2   S    
C56   H52   S    
C55   H56   S    
C10   C12   A    
C25   C35   A    
C38   C54   S    
C26   C36   A    
C14   H16   S    
C4    C38   A    
C50   H40   S    
C13   C15   A    
C40   H21   S    
C14   C16   A    
C19   C39   S    
N3    Zn2   S    
O10   H60   S    
C16   H4    S    
C44   H26   S    
C55   C56   S    
C41   H18   S    
O9    H59   S    
C7    C9    A    
C20   C42   S    
C49   H42   S    
C8    C10   A    
C20   C22   A    
C43   C44   S    
C3    C5    A    
C1    O3    A    
C41   H19   S    
C54   C55   S    
C46   H35   S    
C25   C27   A    
C48   H43   S    
C29   H8    S    
C26   C28   A    
C45   H37   S    
C23   O7    A    
C28   C30   A    
C41   H17   S    
C29   C31   A    
C51   C52   S    
C47   H33   S    
C30   C32   A    
O3    Zn2   S    
C14   C22   A    
C46   C47   S    
C49   C50   S    
C33   C35   A    
C36   H10   S    
C53   H47   S    
C34   C36   A    
C23   C25   S    
C12   C38   A    
C39   C40   S    
C56   H53   S    
C42   C43   S    
N4    Zn1   S    
C3    C37   A    
C50   H39   S    
C4    H12   S    
C40   H20   S    
C31   N1    S    
C45   C46   S    
C52   H48   S    
C32   N2    S    
C2    O4    A    
C17   N3    A    
C54   H57   S    
