data_mof_unit_10365.cif
_audit_creation_date              2012-12-11T16:26:24-0500
_audit_creation_method            fapswitch 2.2
_symmetry_space_group_name_H-M    P1
_symmetry_Int_Tables_number       1
_space_group_crystal_system       triclinic
_cell_length_a                    6.93193
_cell_length_b                    17.600424
_cell_length_c                    19.421459
_cell_angle_alpha                 108.517091
_cell_angle_beta                  89.441194
_cell_angle_gamma                 90.807442
_cell_volume                      2246.58323226

loop_
_atom_site_label
_atom_site_type_symbol
_atom_type_description
_atom_site_fract_x
_atom_site_fract_y
_atom_site_fract_z
_atom_type_partial_charge
O1    O     O_R   0.494330 0.415720 0.413720 -0.538475
O2    O     O_R   0.819330 0.430070 0.560210 -0.541661
O3    O     O_R   0.994320 0.584280 0.586280 -0.536215
C1    C     C_R   0.649916 0.415483 0.582266 0.706670
O4    O     O_R   0.823730 0.406300 0.412670 -0.539651
O5    O     O_R   0.998760 0.560340 0.437690 -0.545932
C2    C     C_R   0.655422 0.383692 0.384745 0.692910
O6    O     O_R   0.489890 0.439660 0.562310 -0.545323
O7    O     O_3   0.662340 0.550560 0.508380 -0.367450
V1    V     V_3+5 0.935370 0.490620 0.498450 1.405677
O8    O     O_R   0.328750 0.569930 0.439790 -0.540419
C3    C     C_R   0.160802 0.584641 0.417759 0.697532
O9    O     O_R   0.324340 0.593700 0.587330 -0.536971
C4    C     C_R   0.155501 0.616559 0.615002 0.697847
V2    V     V_3+5 0.435940 0.509380 0.501550 1.408410
O10   O     O_3   0.159100 0.449440 0.491620 -0.369941
H1    H     H_    0.870802 0.849979 0.569746 0.113725
C5    C     C_R   0.292166 0.602882 0.751046 -0.145714
C6    C     C_R   0.357332 0.593979 0.815652 -0.123764
C7    C     C_R   0.344713 0.657259 0.880124 -0.121082
C8    C     C_R   0.266870 0.729945 0.880494 -0.131238
C9    C     C_R   0.201158 0.741159 0.815625 0.071069
C10   C     C_R   0.214065 0.676240 0.749476 0.068709
C11   C     C_R   0.119901 0.814925 0.816195 -0.186254
C12   C     C_R   0.051456 0.823651 0.750506 0.068835
C13   C     C_R   0.064346 0.758733 0.684359 0.071024
C14   C     C_R   0.145648 0.684972 0.683780 -0.186508
C15   C     C_R   0.973275 0.897000 0.748946 -0.145971
C16   C     C_R   0.907941 0.905883 0.684357 -0.123177
C17   C     C_R   0.920517 0.842598 0.619890 -0.119706
C18   C     C_R   0.998506 0.769934 0.619503 -0.131546
H2    H     H_    0.302603 0.551359 0.702665 0.109151
H3    H     H_    0.416770 0.537438 0.815722 0.117427
H4    H     H_    0.394285 0.649860 0.930281 0.110943
H5    H     H_    0.257388 0.776767 0.932323 0.102009
H6    H     H_    0.962870 0.948530 0.797321 0.109296
H7    H     H_    0.848404 0.962411 0.684298 0.118252
H8    H     H_    0.007967 0.723119 0.567671 0.102791
C19   C     C_R   0.301530 0.628656 0.316839 -0.227553
C20   C     C_R   0.152551 0.632993 0.367514 -0.084861
C21   C     C_R   0.992970 0.681689 0.368613 -0.227949
C22   C     C_R   0.984523 0.727835 0.321606 0.101103
C23   C     C_R   0.137229 0.725008 0.272061 0.022912
C24   C     C_R   0.295922 0.673793 0.268165 0.062831
C25   C     C_R   0.824822 0.776555 0.323107 -0.191055
C26   C     C_R   0.815494 0.822302 0.276084 -0.185439
C27   C     C_R   0.966260 0.820629 0.226954 0.097630
C28   C     C_R   0.128230 0.772154 0.225183 0.046193
C29   C     C_R   0.280036 0.770263 0.175987 0.067127
C30   C     C_R   0.434661 0.718694 0.171219 -0.222365
C31   C     C_R   0.441781 0.668440 0.214743 0.083484
C32   C     C_R   0.957517 0.866287 0.179338 -0.222752
C33   C     C_R   0.110819 0.865708 0.131106 -0.085473
C34   C     C_R   0.271952 0.817830 0.130169 -0.217592
H9    H     H_    0.419604 0.588952 0.315744 0.127501
H10   H     H_    0.876092 0.684454 0.406829 0.124312
H11   H     H_    0.706043 0.778829 0.360381 0.129866
H12   H     H_    0.689878 0.858914 0.278060 0.133057
H13   H     H_    0.832904 0.903290 0.180644 0.123683
H14   H     H_    0.389423 0.816151 0.092433 0.125161
H15   H     H_    0.546391 0.714805 0.130785 0.127374
C35   C     C_R   0.784951 0.181869 0.866175 -0.233743
C36   C     C_R   0.623525 0.133114 0.867810 -0.084622
C37   C     C_R   0.466638 0.131195 0.821672 -0.216149
C38   C     C_R   0.470006 0.176993 0.774263 0.086041
C39   C     C_R   0.630781 0.226818 0.773801 0.051004
C40   C     C_R   0.788467 0.229510 0.820132 0.093263
C41   C     C_R   0.315188 0.173927 0.727340 -0.185372
C42   C     C_R   0.318202 0.220685 0.680949 -0.186871
C43   C     C_R   0.476133 0.271324 0.680591 0.092711
C44   C     C_R   0.633797 0.274047 0.726940 0.051058
C45   C     C_R   0.794626 0.323829 0.726430 0.086571
C46   C     C_R   0.949339 0.326967 0.773423 -0.186252
C47   C     C_R   0.946298 0.280224 0.819835 -0.187861
C48   C     C_R   0.479831 0.318797 0.634412 -0.232585
C49   C     C_R   0.641439 0.367389 0.632621 -0.084351
C50   C     C_R   0.798201 0.369448 0.678857 -0.215817
H16   H     H_    0.905842 0.183987 0.901779 0.123335
H17   H     H_    0.342251 0.093273 0.822117 0.124294
H18   H     H_    0.190893 0.135713 0.726858 0.132973
H19   H     H_    0.196320 0.217533 0.645587 0.132993
H20   H     H_    0.358976 0.316620 0.598778 0.123805
H21   H     H_    0.922668 0.407299 0.678328 0.123996
H22   H     H_    0.073633 0.365181 0.773905 0.132512
H23   H     H_    0.068158 0.283390 0.855211 0.131987
H24   H     H_    0.238710 0.169850 0.418284 0.112257
C51   C     C_R   0.889307 0.380391 0.258089 -0.157514
C52   C     C_R   0.002515 0.380528 0.198546 -0.131533
C53   C     C_R   0.983019 0.319219 0.133247 -0.119989
C54   C     C_R   0.853007 0.256568 0.127528 -0.127472
C55   C     C_R   0.745391 0.251658 0.188553 0.069656
C56   C     C_R   0.761131 0.315760 0.255111 0.066346
C57   C     C_R   0.621577 0.185077 0.183743 -0.192401
C58   C     C_R   0.516415 0.182029 0.246031 0.071702
C59   C     C_R   0.528821 0.246912 0.312151 0.071540
C60   C     C_R   0.647408 0.314752 0.316285 -0.191943
C61   C     C_R   0.403825 0.113666 0.244838 -0.142399
C62   C     C_R   0.302608 0.110222 0.306034 -0.126134
C63   C     C_R   0.314711 0.173399 0.370413 -0.121398
C64   C     C_R   0.428101 0.240447 0.374031 -0.130386
H25   H     H_    0.902354 0.432717 0.305350 0.128004
H26   H     H_    0.100295 0.430162 0.202389 0.112258
H27   H     H_    0.066072 0.321055 0.086288 0.110158
H28   H     H_    0.838027 0.212754 0.074366 0.115409
H29   H     H_    0.394997 0.061119 0.197444 0.119675
H30   H     H_    0.217068 0.057532 0.303778 0.118346
H31   H     H_    0.438702 0.285801 0.426565 0.115184
O11   O     O_R   0.775200 0.060470 0.937800 -0.545552
O12   O     O_R   0.441110 0.093720 0.087350 -0.538720
O13   O     O_R   0.266330 0.939630 0.062280 -0.545534
C65   C     C_R   0.610139 0.116808 0.114928 0.693185
O14   O     O_R   0.445750 0.069950 0.939820 -0.542224
O15   O     O_R   0.271000 0.915700 0.913700 -0.536232
C66   C     C_R   0.615173 0.084740 0.917927 0.704880
O16   O     O_R   0.770530 0.084400 0.086380 -0.538631
O17   O     O_3   0.602830 0.949510 0.991680 -0.367536
V3    V     V_3+5 0.329710 0.009370 0.001550 1.405960
O18   O     O_R   0.940990 0.906170 0.912570 -0.537434
C67   C     C_R   0.109903 0.883334 0.884968 0.697068
O19   O     O_R   0.936350 0.929940 0.060100 -0.540479
C68   C     C_R   0.103930 0.915169 0.081992 0.700906
V4    V     V_3+5 0.829160 0.990450 0.998310 1.409212
O20   O     O_3   0.105910 0.050480 0.008320 -0.370352
C69   C     C_3   0.589696 0.602500 0.194779 -0.341456
C70   C     C_3   0.494830 0.525550 0.144925 -0.325241
C71   C     C_3   0.625781 0.453739 0.131279 -0.753096
H32   H     H_    0.769246 0.466294 0.111020 0.232647
H33   H     H_    0.642042 0.439733 0.182564 0.240760
H34   H     H_    0.559635 0.400874 0.090348 0.217093
H35   H     H_    0.358197 0.512435 0.169604 0.193584
H36   H     H_    0.459654 0.533900 0.092063 0.197195
H37   H     H_    0.713330 0.619113 0.165264 0.173543
H38   H     H_    0.653599 0.593398 0.243643 0.171693

loop_
_geom_bond_atom_site_label_1
_geom_bond_atom_site_label_2
_ccdc_geom_bond_type
C41   H18   S    
C51   C52   A    
C57   C58   A    
H1    C17   S    
C21   C22   A    
C59   C60   A    
C48   C49   A    
O14   C66   A    
C61   C62   A    
O12   V3    S    
C34   H14   S    
C33   C34   A    
O19   C68   A    
C12   C15   A    
C2    C60   S    
C25   H11   S    
C13   C14   A    
C35   C36   A    
O17   V4    S    
C69   H38   S    
C8    C9    A    
C15   C16   A    
O12   C65   A    
O13   C68   A    
O5    C3    A    
C17   C18   A    
C50   H21   S    
C29   C34   A    
C62   C63   A    
C56   C60   A    
O17   V3    S    
C69   H37   S    
C5    C6    A    
C46   C47   A    
O11   C66   A    
O18   C67   A    
C45   C50   A    
C51   H25   S    
C36   C66   S    
O8    V2    S    
C70   H35   S    
C19   H9    S    
C63   C64   A    
C41   C42   A    
C11   C67   S    
C43   C44   A    
O1    V2    S    
C10   C14   A    
C4    C14   S    
C23   C28   A    
C46   H22   S    
C1    O6    A    
C61   H29   S    
C52   C53   A    
C39   C40   A    
C13   C18   A    
O16   V4    S    
O15   C67   A    
O9    C4    A    
C53   H27   S    
C31   C69   S    
C42   C43   A    
O13   V3    S    
O19   V4    S    
C5    C10   A    
C11   C12   A    
C6    H3    S    
C53   C54   A    
C19   C20   A    
O4    C2    A    
C59   C64   A    
C58   C61   A    
C12   C13   A    
C25   C26   A    
C22   C25   A    
C3    C20   S    
O2    C1    A    
C23   C24   A    
C21   H10   S    
C16   C17   A    
C32   H13   S    
C55   C57   A    
C65   O16   A    
C70   H36   S    
C27   C28   A    
C38   C41   A    
C30   C31   A    
C40   C47   A    
C49   C50   A    
H24   C63   S    
C54   H28   S    
C27   C32   A    
O3    C4    A    
C39   C44   A    
C57   C65   S    
O15   V3    S    
C35   C40   A    
C24   C31   A    
C20   C21   A    
C38   C39   A    
O6    V2    S    
O9    V2    S    
C70   C71   S    
C37   H17   S    
C9    C11   A    
C5    H2    S    
C22   C23   A    
O2    V1    S    
C55   C56   A    
C32   C33   A    
O7    V1    S    
C26   C27   A    
C28   C29   A    
C64   H31   S    
C71   H33   S    
O1    C2    A    
C35   H16   S    
O11   V4    S    
C45   C46   A    
C62   H30   S    
O5    V1    S    
C52   H26   S    
O8    C3    A    
C48   H20   S    
C19   C24   A    
C8    H5    S    
C71   H34   S    
C18   H8    S    
C37   C38   A    
C6    C7    A    
V3    O20   S    
C7    H4    S    
O4    V1    S    
O3    V1    S    
C33   C68   S    
C54   C55   A    
O14   V3    S    
C71   H32   S    
O18   V4    S    
C47   H23   S    
O7    V2    S    
C58   C59   A    
C1    C49   S    
C42   H19   S    
C36   C37   A    
C44   C45   A    
C7    C8    A    
C15   H6    S    
C29   C30   A    
C16   H7    S    
C43   C48   A    
C30   H15   S    
C9    C10   A    
V1    O10   S    
V4    O20   S    
C51   C56   A    
C26   H12   S    
V2    O10   S    
C69   C70   S    
