data_mof_unit_44160.cif
_audit_creation_date              2012-12-11T17:02:22-0500
_audit_creation_method            fapswitch 2.2
_symmetry_space_group_name_H-M    P1
_symmetry_Int_Tables_number       1
_space_group_crystal_system       triclinic
_cell_length_a                    21.621987
_cell_length_b                    7.053322
_cell_length_c                    14.817659
_cell_angle_alpha                 90.171584
_cell_angle_beta                  106.092533
_cell_angle_gamma                 90.003346
_cell_volume                      2171.23424348

loop_
_atom_site_label
_atom_site_type_symbol
_atom_type_description
_atom_site_fract_x
_atom_site_fract_y
_atom_site_fract_z
_atom_type_partial_charge
O1    O     O_R   0.585850 0.505770 0.002130 -0.540972
O2    O     O_R   0.414150 0.005770 0.997870 -0.540063
O3    O     O_R   0.467530 0.173560 0.861970 -0.532536
O4    O     O_R   0.532470 0.673560 0.138030 -0.535548
C1    C     C_R   0.455798 0.344075 0.825071 0.715088
C2    C     C_R   0.544043 0.844761 0.174912 0.714285
O5    O     O_R   0.588690 0.175900 0.993250 -0.543704
O6    O     O_R   0.411310 0.675900 0.006750 -0.545974
O7    O     O_R   0.536170 0.007950 0.130090 -0.534054
O8    O     O_R   0.463830 0.507950 0.869910 -0.535051
C3    C     C_R   0.615020 0.344578 0.997739 0.702385
C4    C     C_R   0.384984 0.844584 0.002221 0.702685
O9    O     O_3   0.482630 0.339970 0.044740 -0.371687
O10   O     O_3   0.517370 0.839970 0.955260 -0.369834
V1    V     V_3+5 0.503220 0.064200 0.991700 1.479210
V2    V     V_3+5 0.496780 0.564200 0.008300 1.468534
C5    C     C_R   0.293530 0.985633 0.054231 0.129327
C6    C     C_R   0.706381 0.483989 0.945111 0.113987
C7    C     C_R   0.316600 0.851223 0.002177 -0.138766
C8    C     C_R   0.683403 0.351144 0.997731 -0.132616
C9    C     C_R   0.272425 0.716480 0.951125 -0.153145
C10   C     C_R   0.727700 0.217846 0.049311 -0.149732
H1    H     H_    0.289583 0.608658 0.911701 0.153251
H2    H     H_    0.710663 0.111133 0.089194 0.152958
C11   C     C_R   0.205584 0.729524 0.943573 -0.018235
C12   C     C_R   0.794542 0.231385 0.056874 -0.019932
C13   C     C_R   0.182818 0.875361 0.993521 -0.176863
C14   C     C_R   0.817182 0.375803 0.006422 -0.175638
C15   C     C_R   0.228917 0.995165 0.051424 0.113939
C16   C     C_R   0.770995 0.493855 0.948023 0.114003
C17   C     C_3   0.231007 0.206284 0.059785 -0.397014
C18   C     C_3   0.768629 0.704700 0.938507 -0.394794
C19   C     C_3   0.301687 0.195581 0.061759 -0.369707
C20   C     C_3   0.697872 0.693575 0.936156 -0.370734
H3    H     H_    0.223589 0.255692 0.127322 0.166594
H4    H     H_    0.776168 0.751844 0.870814 0.166770
H5    H     H_    0.200338 0.276993 0.996287 0.212000
H6    H     H_    0.799016 0.777849 0.001744 0.211854
H7    H     H_    0.334812 0.240029 0.130167 0.218606
H8    H     H_    0.664841 0.735042 0.867274 0.216418
H9    H     H_    0.311819 0.259196 0.998748 0.179950
H10   H     H_    0.687415 0.759616 0.998579 0.182050
C21   C     C_R   0.927868 0.883793 0.722648 -0.116255
C22   C     C_R   0.071567 0.387689 0.277631 -0.119310
C23   C     C_R   0.570902 0.853068 0.276863 -0.114814
C24   C     C_R   0.428671 0.349537 0.723116 -0.115105
C25   C     C_R   0.937418 0.877427 0.563959 -0.115543
C26   C     C_R   0.063521 0.440602 0.435295 -0.115971
C27   C     C_R   0.966979 0.885722 0.660827 -0.039757
C28   C     C_R   0.033495 0.427160 0.338710 -0.037357
C29   C     C_R   0.860754 0.877181 0.687553 -0.191048
C30   C     C_R   0.137985 0.359483 0.313403 -0.189836
C31   C     C_R   0.830132 0.874883 0.589857 0.106939
C32   C     C_R   0.169054 0.373659 0.410777 0.108113
C33   C     C_R   0.870121 0.872066 0.528561 0.079976
C34   C     C_R   0.130317 0.417466 0.471069 0.081014
C35   C     C_R   0.761466 0.874136 0.551070 0.004703
C36   C     C_R   0.237253 0.351492 0.449891 0.005458
C37   C     C_R   0.734239 0.866688 0.451834 0.070554
C38   C     C_R   0.265466 0.377974 0.548128 0.071953
C39   C     C_R   0.776679 0.857566 0.394251 -0.138351
C40   C     C_R   0.224519 0.427130 0.604399 -0.134359
C41   C     C_R   0.842893 0.862756 0.431933 -0.120175
C42   C     C_R   0.158509 0.443080 0.566766 -0.125459
C43   C     C_R   0.719373 0.883613 0.608348 -0.241041
C44   C     C_R   0.277846 0.301951 0.393974 -0.237755
C45   C     C_R   0.652756 0.875968 0.572073 0.450172
C46   C     C_R   0.344338 0.287718 0.430088 0.449189
C47   C     C_R   0.624251 0.859232 0.473874 -0.060743
C48   C     C_R   0.374144 0.320873 0.526876 -0.060696
C49   C     C_R   0.665645 0.865030 0.413162 -0.010697
C50   C     C_R   0.333645 0.356978 0.587046 -0.009056
C51   C     C_R   0.556350 0.838319 0.432695 0.537577
C52   C     C_R   0.442423 0.315343 0.567436 0.537432
C53   C     C_R   0.531090 0.834309 0.335293 -0.145431
C54   C     C_R   0.468286 0.327189 0.664562 -0.144603
C55   C     C_R   0.637008 0.869616 0.314910 -0.182382
C56   C     C_R   0.362542 0.366384 0.685209 -0.181463
H11   H     H_    0.873177 0.857654 0.384600 0.173195
H12   H     H_    0.129320 0.480064 0.613094 0.168335
H13   H     H_    0.664446 0.886248 0.264946 0.110049
H14   H     H_    0.335018 0.378571 0.735350 0.110241
H15   H     H_    0.479712 0.816473 0.304615 0.170205
H16   H     H_    0.519953 0.318061 0.694943 0.170749
H17   H     H_    0.966924 0.876419 0.515495 0.164626
H18   H     H_    0.034922 0.473045 0.483041 0.163415
H19   H     H_    0.834176 0.873738 0.739155 0.098794
H20   H     H_    0.164110 0.334845 0.262285 0.100165
H21   H     H_    0.760785 0.843418 0.319084 0.152768
H22   H     H_    0.241682 0.458369 0.678219 0.152681
H23   H     H_    0.736799 0.899595 0.683339 0.152661
H24   H     H_    0.259119 0.269324 0.320477 0.151199
O11   O     O_R   0.036080 0.231270 0.130120 -0.539062
O12   O     O_R   0.963920 0.731270 0.869880 -0.539979
O13   O     O_R   0.911300 0.558970 0.006750 -0.533824
O14   O     O_R   0.088700 0.058970 0.993250 -0.533743
C57   C     C_R   0.885454 0.389472 0.004932 0.671577
C58   C     C_R   0.114524 0.889352 0.994954 0.672334
O15   O     O_R   0.032450 0.561140 0.138040 -0.537233
O16   O     O_R   0.967550 0.061140 0.861960 -0.535991
O17   O     O_R   0.085870 0.728910 0.002130 -0.548165
O18   O     O_R   0.914130 0.228910 0.997870 -0.547561
C59   C     C_R   0.044567 0.392912 0.175301 0.672998
C60   C     C_R   0.955337 0.892287 0.824777 0.674139
O19   O     O_3   0.017320 0.394650 0.955270 -0.372862
O20   O     O_3   0.982680 0.894650 0.044730 -0.372348
V3    V     V_3+5 0.996780 0.670490 0.008300 1.433562
V4    V     V_3+5 0.003220 0.170490 0.991700 1.433560
Cl1   Cl    Cl    0.609983 0.903253 0.657030 -0.585137
Cl2   Cl    Cl    0.384565 0.209335 0.348084 -0.589157
C61   C     C_2   0.038278 0.896379 0.696450 0.388065
H25   H     H_    0.061504 0.912015 0.770972 0.009148
O21   O     O_2   0.072131 0.888439 0.642845 -0.527875
C62   C     C_2   0.962799 0.455910 0.302489 0.389528
H26   H     H_    0.938981 0.446169 0.227878 0.013535
O22   O     O_2   0.930046 0.490404 0.355730 -0.531937
Cl3   Cl    Cl    0.498522 0.802496 0.494814 -0.477432
Cl4   Cl    Cl    0.500598 0.305225 0.504315 -0.480843
C63   C     C_2   0.160450 0.601542 0.876313 0.356828
H27   H     H_    0.108892 0.621889 0.859322 0.061332
O23   O     O_2   0.180486 0.472723 0.836870 -0.551296
C64   C     C_2   0.839904 0.106051 0.124787 0.358762
H28   H     H_    0.891352 0.130548 0.143299 0.057870
O24   O     O_2   0.820175 0.975190 0.163028 -0.551040

loop_
_geom_bond_atom_site_label_1
_geom_bond_atom_site_label_2
_ccdc_geom_bond_type
C14   C57   S    
O17   V3    S    
C44   C46   A    
C13   C58   S    
C2    C23   S    
C13   C15   A    
C5    C15   A    
C31   C33   A    
O15   C59   A    
C61   H25   S    
O1    C3    A    
C26   C34   A    
O2    C4    A    
O11   C59   A    
C2    O7    A    
C24   C54   A    
C62   H26   S    
C25   C27   A    
C41   H11   S    
O5    C3    A    
O19   V3    S    
C36   C44   A    
C19   H7    S    
C52   C54   A    
C20   H8    S    
C25   H17   S    
C10   H2    S    
C7    C9    A    
O11   V4    S    
C35   C37   A    
O20   V3    S    
C38   C50   A    
C36   C38   A    
O16   C60   A    
C38   C40   A    
C37   C39   A    
C39   C41   A    
C21   C60   S    
C50   C56   A    
C42   H12   S    
C45   Cl1   S    
C30   C32   A    
C20   H10   S    
C43   C45   A    
O14   C58   A    
C48   C52   A    
C40   C42   A    
C17   C19   S    
O18   V4    S    
C6    C16   A    
C18   H6    S    
C6    C8    A    
C57   O18   A    
C27   C61   S    
C22   C30   A    
O5    V1    S    
O14   V4    S    
O12   C60   A    
O6    V2    S    
C51   C53   A    
C54   H16   S    
C5    C19   S    
C11   C63   S    
C22   C59   S    
C39   H21   S    
C63   O23   D    
C52   Cl4   S    
O19   V4    S    
C32   C34   A    
O12   V3    S    
O16   V4    S    
C51   Cl3   S    
C53   H15   S    
C30   H20   S    
O4    C2    A    
C29   H19   S    
C24   C56   A    
C31   C35   A    
C21   C27   A    
C44   H24   S    
C3    C8    S    
C48   C50   A    
C17   H5    S    
C33   C41   A    
C29   C31   A    
C18   C20   S    
O4    V2    S    
C56   H14   S    
C55   H13   S    
O6    C4    A    
C34   C42   A    
C61   O21   D    
O1    V2    S    
C46   Cl2   S    
C47   C51   A    
O2    V1    S    
C6    C20   S    
O13   V3    S    
C8    C10   A    
C9    H1    S    
C17   H3    S    
C64   O24   D    
C18   H4    S    
C49   C55   A    
O3    V1    S    
C25   C33   A    
C32   C36   A    
C22   C28   A    
C43   H23   S    
C9    C11   A    
C35   C43   A    
O3    C1    A    
C62   O22   D    
C63   H27   S    
O13   C57   A    
C11   C13   A    
C58   O17   A    
O15   V3    S    
C1    C24   S    
C12   C14   A    
C47   C49   A    
C23   C53   A    
C19   H9    S    
C14   C16   A    
O7    V1    S    
C1    O8    A    
C15   C17   S    
O8    V2    S    
C16   C18   S    
C21   C29   A    
O20   V4    S    
C40   H22   S    
C4    C7    S    
C26   C28   A    
C5    C7    A    
C26   H18   S    
C45   C47   A    
C46   C48   A    
C10   C12   A    
O9    V2    S    
O10   V1    S    
C23   C55   A    
C12   C64   S    
C28   C62   S    
C64   H28   S    
C37   C49   A    
