data_mof_unit_35725.cif
_audit_creation_date              2012-12-10T17:43:41-0500
_audit_creation_method            fapswitch 2.2
_symmetry_space_group_name_H-M    P1
_symmetry_Int_Tables_number       1
_space_group_crystal_system       triclinic
_cell_length_a                    14.984552
_cell_length_b                    10.630771
_cell_length_c                    9.914627
_cell_angle_alpha                 90.151099
_cell_angle_beta                  89.93348
_cell_angle_gamma                 91.60918
_cell_volume                      1578.74443355

loop_
_atom_site_label
_atom_site_type_symbol
_atom_type_description
_atom_site_fract_x
_atom_site_fract_y
_atom_site_fract_z
_atom_type_partial_charge
C1    C     C_R   0.502825 0.260757 0.499950 0.854409
C2    C     C_R   0.184073 0.454464 0.612309 -0.240366
C3    C     C_R   0.231188 0.498678 0.499586 -0.071347
C4    C     C_R   0.326873 0.499019 0.500029 0.885197
C5    C     C_R   0.187101 0.543518 0.386194 -0.225170
C6    C     C_R   0.646199 0.137638 0.640912 -0.293358
C7    C     C_R   0.711478 0.075236 0.714180 0.602484
C8    C     C_R   0.712305 0.944181 0.711404 -0.215839
C9    C     C_R   0.646421 0.875654 0.641556 -0.312519
C10   C     C_R   0.577575 0.937559 0.572872 0.097452
C11   C     C_R   0.577575 0.069372 0.572376 0.033478
C12   C     C_R   0.909190 0.555744 0.386702 0.003316
C13   C     C_R   0.509710 0.128744 0.499635 -0.081528
C14   C     C_R   0.445720 0.061745 0.425292 -0.221023
C15   C     C_R   0.445728 0.933380 0.425576 -0.194056
C16   C     C_R   0.503334 0.739467 0.500181 0.860850
C17   C     C_R   0.509729 0.872090 0.500387 -0.092531
C18   C     C_R   0.384099 0.333718 0.139245 -0.328029
C19   C     C_R   0.327617 0.250309 0.069161 0.334417
C20   C     C_R   0.329380 0.246072 0.928829 0.474733
C21   C     C_R   0.385328 0.332469 0.859695 -0.385373
C22   C     C_R   0.443470 0.417266 0.927701 0.127209
C23   C     C_R   0.951008 0.413283 0.724377 -0.149595
C24   C     C_R   0.443283 0.417494 0.071985 0.116638
C25   C     C_R   0.554362 0.578817 0.071611 -0.073688
C26   C     C_R   0.554332 0.578824 0.928494 -0.111646
C27   C     C_R   0.673236 0.502842 0.499821 0.895013
C28   C     C_R   0.816344 0.561230 0.389044 0.477505
C29   C     C_R   0.769299 0.509000 0.499582 -0.195953
C30   C     C_R   0.813998 0.461632 0.611178 -0.312330
C31   C     C_R   0.906138 0.460735 0.612470 0.119473
C32   C     C_R   0.953984 0.506396 0.499372 -0.014809
C33   C     C_3   0.757762 0.741097 0.309750 -0.317595
C34   C     C_R   0.043658 0.411149 0.724695 -0.196137
C35   C     C_3   0.743169 0.200763 0.894637 -0.332216
C36   C     C_3   0.311634 0.102494 0.753585 -0.234990
C37   C     C_R   0.091709 0.455693 0.612710 0.113554
C38   C     C_R   0.046848 0.502823 0.499132 0.094204
C39   C     C_R   0.094955 0.546716 0.385486 0.126653
C40   C     C_R   0.050443 0.593864 0.273489 -0.211070
C41   C     C_R   0.958014 0.598752 0.274134 -0.173527
Cl1   Cl    Cl    0.254342 0.149830 0.159974 -0.595935
H1    H     H_    0.651119 0.239104 0.636773 0.169232
H2    H     H_    0.914487 0.378133 0.811480 0.165548
H3    H     H_    0.077683 0.374641 0.812078 0.176858
H4    H     H_    0.219176 0.418527 0.699071 0.172553
H5    H     H_    0.224552 0.578105 0.299521 0.167471
H6    H     H_    0.087123 0.627502 0.185818 0.159988
H7    H     H_    0.925087 0.635956 0.186238 0.191998
H8    H     H_    0.394300 0.109148 0.369831 0.193781
H9    H     H_    0.711766 0.751796 0.396785 0.159008
H10   H     H_    0.726037 0.784375 0.220852 0.186973
H11   H     H_    0.821825 0.793720 0.328835 0.168847
H12   H     H_    0.764410 0.895142 0.763418 0.165938
H13   H     H_    0.708480 0.131549 0.962243 0.170496
H14   H     H_    0.697149 0.276409 0.865754 0.164924
H15   H     H_    0.798717 0.245457 0.952942 0.200656
H16   H     H_    0.381413 0.075895 0.776701 0.156429
H17   H     H_    0.309685 0.161579 0.661443 0.150311
H18   H     H_    0.273208 0.014204 0.731284 0.203825
H19   H     H_    0.651140 0.774401 0.640424 0.170679
H20   H     H_    0.394396 0.881449 0.369873 0.176450
H21   H     H_    0.598658 0.643328 0.125399 0.163908
H22   H     H_    0.379395 0.330389 0.246189 0.242967
H23   H     H_    0.380664 0.332577 0.753200 0.232283
H24   H     H_    0.776917 0.423403 0.696407 0.191802
H25   H     H_    0.598701 0.643301 0.874825 0.143642
N1    N     N_R   0.499150 0.498800 0.142780 -0.104398
N2    N     N_R   0.499120 0.498720 0.857170 -0.100410
O1    O     O_R   0.500000 0.316780 0.614690 -0.647561
O2    O     O_3   0.779151 0.141424 0.780152 -0.610658
O3    O     O_3   0.270217 0.163695 0.862796 -0.563129
O4    O     O_R   0.499990 0.316750 0.385360 -0.627739
O5    O     O_R   0.367850 0.499980 0.614680 -0.633672
O6    O     O_R   0.367840 0.499960 0.385350 -0.637118
O7    O     O_R   0.500010 0.683250 0.614640 -0.612829
O8    O     O_R   0.500000 0.683220 0.385310 -0.618243
O9    O     O_R   0.632160 0.500040 0.614650 -0.649997
O10   O     O_R   0.632150 0.500020 0.385320 -0.559698
O11   O     O_3   0.771711 0.613042 0.281157 -0.608952
Zn1   Zn    Zn3+2 0.500010 0.500020 0.653130 0.928638
Zn2   Zn    Zn3+2 0.499990 0.499980 0.346870 0.963245

loop_
_geom_bond_atom_site_label_1
_geom_bond_atom_site_label_2
_ccdc_geom_bond_type
C27   C29   S    
C34   C37   A    
C19   C20   A    
O9    Zn1   S    
C27   O9    A    
C7    C8    A    
C2    H4    S    
C33   H10   S    
C5    H5    S    
C29   C30   A    
C12   C28   A    
C18   C24   A    
C26   H25   S    
C28   C29   A    
C37   C38   A    
C16   O8    A    
C27   O10   A    
C7    O2    S    
C30   C31   A    
C10   C17   A    
C15   C17   A    
C18   C19   A    
C25   H21   S    
O1    Zn1   S    
C4    O6    A    
C8    C9    A    
C32   C38   A    
C9    C10   A    
C22   N2    A    
C4    O5    A    
C19   Cl1   S    
C36   H17   S    
C35   O2    S    
C13   C14   A    
C12   C32   A    
C25   N1    A    
C41   H7    S    
C33   H11   S    
C38   C39   A    
C35   H13   S    
C8    H12   S    
C6    C11   A    
C16   C17   S    
C3    C5    A    
C25   C26   A    
C23   H2    S    
C23   C31   A    
C12   C41   A    
C9    H19   S    
C31   C32   A    
C23   C34   A    
C33   O11   S    
C34   H3    S    
C30   H24   S    
C40   C41   A    
C6    H1    S    
C5    C39   A    
C22   C24   A    
C1    C13   S    
O5    Zn1   S    
C3    C4    S    
O4    Zn2   S    
C39   C40   A    
C40   H6    S    
C21   H23   S    
C35   H14   S    
C16   O7    A    
C36   H18   S    
O7    Zn1   S    
O10   Zn2   S    
O6    Zn2   S    
C6    C7    A    
C33   H9    S    
C36   H16   S    
C1    O1    A    
C35   H15   S    
N1    Zn2   S    
C2    C3    A    
C1    O4    A    
C11   C13   A    
C2    C37   A    
C18   H22   S    
C14   H8    S    
O8    Zn2   S    
C15   H20   S    
C28   O11   S    
N2    Zn1   S    
C10   C11   A    
C24   N1    A    
C20   C21   A    
C26   N2    A    
C14   C15   A    
C20   O3    S    
C21   C22   A    
C36   O3    S    
