data_mof_unit_68537.cif
_audit_creation_date              2012-10-26T19:56:18-0400
_audit_creation_method            fapswitch 2.2
_symmetry_space_group_name_H-M    P1
_symmetry_Int_Tables_number       1
_space_group_crystal_system       triclinic
_cell_length_a                    10.972084
_cell_length_b                    10.70028
_cell_length_c                    9.474793
_cell_angle_alpha                 91.383921
_cell_angle_beta                  92.350928
_cell_angle_gamma                 84.884514
_cell_volume                      1106.78420383

loop_
_atom_site_label
_atom_site_type_symbol
_atom_type_description
_atom_site_fract_x
_atom_site_fract_y
_atom_site_fract_z
_atom_type_partial_charge
Br1   Br    Br    0.714348 0.845672 0.321828 -0.674296
Br2   Br    Br    0.280427 0.141011 0.693211 -0.634639
C1    C     C_R   0.503896 0.259030 0.499229 0.583255
C2    C     C_3   0.406538 0.056609 0.578290 0.128501
C3    C     C_3   0.488365 0.877321 0.502184 0.010331
C4    C     C_3   0.502469 0.121646 0.499224 -0.000398
C5    C     C_3   0.508220 0.959363 0.635873 -0.131513
C6    C     C_3   0.482431 0.038875 0.365393 -0.184390
C7    C     C_3   0.584975 0.566343 0.056771 -0.055016
C8    C     C_3   0.415775 0.433398 0.943753 -0.000687
C9    C     C_3   0.480334 0.611039 0.954649 0.365173
C10   C     C_3   0.520845 0.389229 0.046120 0.370881
C11   C     C_3   0.604609 0.454407 0.951107 -0.071498
C12   C     C_R   0.491430 0.740511 0.500878 0.596943
C13   C     C_3   0.395814 0.546531 0.048187 -0.051312
C14   C     C_R   0.262207 0.503990 0.496970 0.550477
C15   C     C_R   0.738061 0.495766 0.502512 0.553790
C16   C     C_R   0.088720 0.803651 0.121364 -0.096364
C17   C     C_R   0.960777 0.184678 0.867889 -0.090152
C18   C     C_R   0.083191 0.743704 0.250456 -0.041728
C19   C     C_R   0.942942 0.245855 0.739144 -0.036332
C20   C     C_R   0.090732 0.612462 0.255127 0.038870
C21   C     C_R   0.914970 0.376476 0.736089 0.046051
C22   C     C_R   0.105168 0.541935 0.129564 -0.111915
C23   C     C_R   0.872381 0.495675 0.504950 -0.002628
C24   C     C_R   0.898141 0.443543 0.863429 -0.107542
C25   C     C_R   0.108027 0.602141 0.000115 -0.137883
C26   C     C_R   0.908791 0.380724 0.991672 -0.161167
C27   C     C_R   0.100268 0.732897 0.996166 -0.117889
C28   C     C_R   0.944834 0.252366 0.994311 -0.140431
C29   C     C_R   0.923674 0.548185 0.389528 -0.139694
C30   C     C_R   0.077545 0.449226 0.605858 -0.140953
C31   C     C_3   0.453127 0.821005 0.018270 -0.044109
C32   C     C_3   0.375593 0.941399 0.979897 -0.357390
C33   C     C_3   0.670159 0.231499 0.096185 -0.032001
C34   C     C_R   0.128434 0.502921 0.492086 -0.000033
C35   C     C_3   0.703237 0.109049 0.168368 -0.362572
C36   C     C_3   0.790145 0.951290 0.664939 0.004108
C37   C     C_3   0.782329 0.937285 0.824199 -0.399147
C38   C     C_3   0.202872 0.059952 0.344217 0.006397
C39   C     C_3   0.073717 0.068580 0.399311 -0.363833
C40   C     C_R   0.951731 0.443550 0.613616 -0.039702
C41   C     C_R   0.050004 0.552149 0.380989 -0.036880
C42   C     C_3   0.603407 0.024689 0.556624 0.261267
C43   C     C_3   0.387216 0.974020 0.445892 0.254473
C44   C     C_3   0.585064 0.941850 0.424039 0.087700
Cu1   Cu    Cu3+1 0.500030 0.499990 0.643150 1.025330
Cu2   Cu    Cu3+1 0.499970 0.500010 0.356850 0.991592
H1    H     H_    0.103749 0.779253 0.896313 0.121560
H2    H     H_    0.961575 0.193547 0.642422 0.129196
H3    H     H_    0.113017 0.440479 0.132122 0.127425
H4    H     H_    0.879674 0.544720 0.863702 0.125741
H5    H     H_    0.120555 0.547372 0.903661 0.127978
H6    H     H_    0.891894 0.432378 0.089439 0.112993
H7    H     H_    0.864635 0.588056 0.304409 0.171393
H8    H     H_    0.137064 0.408139 0.689978 0.169923
H9    H     H_    0.518723 0.920308 0.742371 0.165773
H10   H     H_    0.467366 0.073908 0.256573 0.161213
H11   H     H_    0.548338 0.843333 0.045325 0.158958
H12   H     H_    0.959401 0.205431 0.094235 0.100587
H13   H     H_    0.414159 0.785695 0.114901 0.167137
H14   H     H_    0.431391 0.007877 0.929578 0.178048
H15   H     H_    0.296337 0.920722 0.909206 0.201817
H16   H     H_    0.340391 0.988684 0.076769 0.116251
H17   H     H_    0.724228 0.302773 0.151233 0.144369
H18   H     H_    0.696225 0.216764 0.984607 0.144249
H19   H     H_    0.799985 0.075429 0.149756 0.116207
H20   H     H_    0.693683 0.123425 0.283646 0.200825
H21   H     H_    0.643792 0.038065 0.124031 0.182951
H22   H     H_    0.886475 0.964698 0.641958 0.146617
H23   H     H_    0.655655 0.622109 0.108116 0.141895
H24   H     H_    0.769389 0.861432 0.611769 0.174105
H25   H     H_    0.702598 0.886554 0.849306 0.144805
H26   H     H_    0.865865 0.882183 0.866448 0.107455
H27   H     H_    0.774267 0.030366 0.877731 0.169159
H28   H     H_    0.195883 0.059993 0.227374 0.118704
H29   H     H_    0.244316 0.147981 0.377731 0.158455
H30   H     H_    0.076214 0.037194 0.510205 0.195633
H31   H     H_    0.032465 0.167141 0.394420 0.107529
H32   H     H_    0.014200 0.009857 0.333931 0.133539
H33   H     H_    0.345881 0.376410 0.892797 0.148792
H34   H     H_    0.683894 0.409307 0.898175 0.125945
H35   H     H_    0.319656 0.599113 0.100203 0.139621
H36   H     H_    0.080512 0.904841 0.117136 0.104443
H37   H     H_    0.990111 0.085463 0.869736 0.114367
H38   H     H_    0.067476 0.798591 0.346269 0.151907
N1    N     N_3   0.500090 0.499970 0.858290 -0.247968
N2    N     N_3   0.499910 0.500030 0.141710 -0.261759
O1    O     O_R   0.500060 0.316850 0.620870 -0.466085
O2    O     O_3   0.543355 0.267237 0.100770 -0.544257
O3    O     O_3   0.716249 0.058497 0.616336 -0.553975
O4    O     O_3   0.270570 0.947484 0.389910 -0.555991
O5    O     O_R   0.499940 0.683150 0.379130 -0.481575
O6    O     O_R   0.500000 0.316860 0.379090 -0.470675
O7    O     O_R   0.500000 0.683140 0.620910 -0.461203
O8    O     O_R   0.319670 0.500010 0.620890 -0.503043
O9    O     O_R   0.680330 0.499990 0.379110 -0.509728
O10   O     O_R   0.319620 0.500010 0.379110 -0.507974
O11   O     O_R   0.680380 0.499990 0.620890 -0.505630
O12   O     O_3   0.453402 0.733644 0.903203 -0.548740

loop_
_geom_bond_atom_site_label_1
_geom_bond_atom_site_label_2
_ccdc_geom_bond_type
C23   C29   A    
C36   H22   S    
C35   H21   S    
C25   C27   A    
C22   C25   A    
C1    C4    S    
C39   H32   S    
C27   H1    S    
Cu2   O9    S    
C21   C40   S    
C29   C41   A    
C30   C34   A    
C10   O2    S    
C17   C19   A    
C8    C13   S    
C7    N2    S    
C36   C37   S    
Br1   C44   S    
C21   C24   A    
C33   H17   S    
C35   H20   S    
C32   H14   S    
Cu1   O11   S    
C37   H26   S    
C43   O4    S    
C7    C11   S    
C6    C43   S    
C6    H10   S    
C9    C13   S    
C20   C41   S    
C9    N1    S    
C18   H38   S    
C16   H36   S    
Cu1   O8    S    
Cu2   N2    S    
C37   H27   S    
C12   O5    A    
C22   H3    S    
C31   H11   S    
C4    C42   S    
Cu1   O1    S    
C2    C5    S    
C8    C10   S    
C19   H2    S    
C42   C44   S    
C2    C43   S    
C36   H24   S    
C8    N1    S    
C14   O8    A    
Cu2   O5    S    
C10   N2    S    
C2    C4    S    
C39   H30   S    
C3    C5    S    
C26   H6    S    
C13   H35   S    
C33   H18   S    
C3    C43   S    
C36   O3    S    
C38   H28   S    
C28   H12   S    
C9    O12   S    
Cu1   N1    S    
Br2   C2    S    
C24   H4    S    
C15   O11   A    
Cu1   Cu2   S    
C11   N1    S    
C32   H16   S    
C31   C32   S    
C16   C27   A    
C5    C42   S    
C38   O4    S    
C7    C9    S    
C3    C12   S    
C42   O3    S    
Cu2   O6    S    
C38   C39   S    
C18   C20   A    
C19   C21   A    
C20   C22   A    
C12   O7    A    
Cu1   O7    S    
C33   C35   S    
C7    H23   S    
C17   H37   S    
C23   C40   A    
C39   H31   S    
C4    C6    S    
C25   H5    S    
Cu2   O10   S    
C3    C44   S    
C8    H33   S    
C24   C26   A    
C1    O1    A    
C31   O12   S    
C15   C23   S    
C26   C28   A    
C11   H34   S    
C14   C34   S    
C14   O10   A    
C35   H19   S    
C32   H15   S    
C5    H9    S    
C1    O6    A    
C16   C18   A    
C37   H25   S    
C6    C44   S    
C33   O2    S    
C10   C11   S    
C31   H13   S    
C30   C40   A    
C38   H29   S    
C34   C41   A    
C29   H7    S    
C17   C28   A    
C15   O9    A    
C30   H8    S    
C13   N2    S    
