data_mof_unit_26429.cif
_audit_creation_date              2012-10-26T19:18:49-0400
_audit_creation_method            fapswitch 2.2
_symmetry_space_group_name_H-M    P1
_symmetry_Int_Tables_number       1
_space_group_crystal_system       triclinic
_cell_length_a                    9.728885
_cell_length_b                    10.931507
_cell_length_c                    15.450893
_cell_angle_alpha                 89.582267
_cell_angle_beta                  73.686859
_cell_angle_gamma                 89.781694
_cell_volume                      1577.02441748

loop_
_atom_site_label
_atom_site_type_symbol
_atom_type_description
_atom_site_fract_x
_atom_site_fract_y
_atom_site_fract_z
_atom_type_partial_charge
C1    C     C_R   0.998363 0.265465 0.504205 0.541925
C2    C     C_R   0.222394 0.479372 0.039128 0.114977
C3    C     C_R   0.318630 0.519332 0.087589 -0.013232
C4    C     C_R   0.916796 0.502458 0.672166 0.552612
C5    C     C_R   0.075548 0.460676 0.085776 0.274947
C6    C     C_R   0.029668 0.473290 0.179962 -0.133767
C7    C     C_R   0.271413 0.515946 0.182158 -0.117671
C8    C     C_2   0.889603 0.933937 0.497163 -0.122476
C9    C     C_2   0.007424 0.865981 0.487443 -0.070642
C10   C     C_2   0.898444 0.067361 0.489170 -0.084796
C11   C     C_2   0.993016 0.133237 0.518289 0.231979
C12   C     C_R   0.666442 0.533518 0.905368 -0.015886
C13   C     C_2   0.393364 0.440657 0.560532 0.361420
C14   C     C_2   0.554015 0.431496 0.554554 0.423470
C15   C     C_R   0.001210 0.734417 0.497063 0.537411
C16   C     C_R   0.083140 0.498946 0.327622 0.539436
C17   C     C_R   0.869806 0.520971 0.769994 0.004166
C18   C     C_R   0.128012 0.496683 0.228425 -0.041687
C19   C     C_R   0.899966 0.617753 0.903263 -0.036132
C20   C     C_R   0.955678 0.583157 0.813706 -0.129929
C21   C     C_R   0.729395 0.491026 0.817133 -0.112801
C22   C     C_R   0.754902 0.595952 0.949468 0.088863
C23   C     C_R   0.518313 0.516998 0.949677 -0.022235
C24   C     C_R   0.462703 0.552260 0.041016 0.031783
C25   C     C_R   0.549863 0.624622 0.081271 0.081865
C26   C     C_R   0.697436 0.641027 0.036998 0.241780
C27   C     C_R   0.422508 0.471610 0.903822 -0.137725
C28   C     C_R   0.277095 0.455777 0.946260 0.109595
Cu1   Cu    Cu3+1 0.138640 0.500020 0.499980 1.022797
Cu2   Cu    Cu3+1 0.861360 0.499980 0.500020 1.029977
H1    H     H_    0.785350 0.891550 0.507592 0.153284
H2    H     H_    0.455100 0.452181 0.832789 0.104817
H3    H     H_    0.742720 0.715943 0.140729 0.327244
H4    H     H_    0.881780 0.420827 0.081932 0.320857
H5    H     H_    0.131255 0.141321 0.588393 0.349882
H6    H     H_    0.335226 0.305966 0.645062 0.299314
H7    H     H_    0.531258 0.350811 0.669076 0.287088
H8    H     H_    0.696479 0.638384 0.428706 0.362203
H9    H     H_    0.226349 0.322002 0.871151 0.236961
H10   H     H_    0.199875 0.465190 0.837991 0.235357
H11   H     H_    0.508198 0.788937 0.144573 0.256849
H12   H     H_    0.113066 0.907170 0.469859 0.173580
H13   H     H_    0.523641 0.669465 0.212881 0.214943
H14   H     H_    0.823105 0.112314 0.459044 0.117792
H15   H     H_    0.417586 0.519626 0.439965 0.228041
H16   H     H_    0.347351 0.522591 0.221028 0.168600
H17   H     H_    0.917921 0.459101 0.215711 0.121439
H18   H     H_    0.969874 0.666128 0.934832 0.192195
H19   H     H_    0.064067 0.609162 0.777695 0.136759
H20   H     H_    0.671548 0.435521 0.782058 0.132877
N1    N     N_2   0.346430 0.498660 0.500980 -0.288687
N2    N     N_2   0.652550 0.498630 0.501000 -0.062036
N3    N     N_3   0.188069 0.408715 0.894414 -0.531373
N4    N     N_3   0.483929 0.696686 0.159488 -0.645319
O1    O     O_R   0.117050 0.321960 0.499980 -0.485249
O2    O     O_3   0.978642 0.429535 0.039172 -0.653703
O3    O     O_3   0.077104 0.077800 0.566410 -0.712825
O4    O     O_3   0.292675 0.382049 0.629057 -0.681791
O5    O     O_3   0.599617 0.348348 0.608123 -0.689913
O6    O     O_3   0.608780 0.601322 0.468678 -0.686809
O7    O     O_R   0.882890 0.321920 0.500020 -0.476110
O8    O     O_R   0.052910 0.500040 0.629810 -0.438625
O9    O     O_R   0.818750 0.499990 0.629840 -0.468867
O10   O     O_R   0.117110 0.678080 0.499980 -0.487164
O11   O     O_R   0.882950 0.678040 0.500020 -0.509337
O12   O     O_R   0.181250 0.500010 0.370160 -0.518909
O13   O     O_R   0.947090 0.499960 0.370190 -0.518279
O14   O     O_3   0.786984 0.706336 0.075317 -0.715110

loop_
_geom_bond_atom_site_label_1
_geom_bond_atom_site_label_2
_ccdc_geom_bond_type
C2    C28   A    
C15   O10   A    
H4    O2    S    
Cu1   Cu2   S    
C23   C27   A    
N2    O6    S    
H13   N4    S    
H6    O4    S    
C19   C20   A    
C4    O9    A    
H5    O3    S    
C28   N3    S    
C7    C18   A    
C26   O14   S    
C19   C22   A    
C15   O11   A    
C2    C3    A    
C9    H12   S    
Cu1   O10   S    
C16   O13   A    
H9    N3    S    
Cu2   O9    S    
C24   C25   A    
C14   O5    S    
C12   C23   A    
C3    C24   A    
C20   H19   S    
H8    O6    S    
C4    C17   S    
C8    C10   S    
C21   H20   S    
C25   C26   A    
C5    O2    S    
C3    C7    A    
C10   C11   D    
C1    O1    A    
C5    C6    A    
C6    C18   A    
C12   C22   A    
C14   N2    D    
H11   N4    S    
Cu2   O11   S    
C16   O12   A    
C6    H17   S    
H15   N1    S    
C23   C24   A    
C10   H14   S    
Cu1   O12   S    
C2    C5    A    
C7    H16   S    
C4    O8    A    
C17   C20   A    
C25   N4    S    
Cu1   O8    S    
C16   C18   S    
H10   N3    S    
Cu1   N1    S    
Cu2   O7    S    
C27   C28   A    
C13   N1    D    
Cu2   N2    S    
C19   H18   S    
C22   C26   A    
C13   O4    S    
Cu1   O1    S    
C13   C14   S    
C27   H2    S    
C11   O3    S    
C8    H1    S    
C12   C21   A    
C17   C21   A    
H7    O5    S    
Cu2   O13   S    
H3    O14   S    
C1    O7    A    
C8    C9    D    
C9    C15   S    
C1    C11   S    
