data_mof_unit_50945.cif
_audit_creation_date              2012-12-10T21:28:50-0500
_audit_creation_method            fapswitch 2.2
_symmetry_space_group_name_H-M    P1
_symmetry_Int_Tables_number       1
_space_group_crystal_system       triclinic
_cell_length_a                    10.632066
_cell_length_b                    16.136579
_cell_length_c                    16.786965
_cell_angle_alpha                 86.6311
_cell_angle_beta                  90.625808
_cell_angle_gamma                 91.701277
_cell_volume                      2873.6925481

loop_
_atom_site_label
_atom_site_type_symbol
_atom_type_description
_atom_site_fract_x
_atom_site_fract_y
_atom_site_fract_z
_atom_type_partial_charge
C1    C     C_R   0.497102 0.488250 0.652833 0.871123
C2    C     C_R   0.931401 0.462898 0.428868 0.102624
C3    C     C_R   0.871744 0.499571 0.492128 -0.097553
C4    C     C_R   0.938537 0.539588 0.551133 -0.227018
C5    C     C_R   0.066912 0.541128 0.550370 -0.215064
C6    C     C_R   0.128299 0.502463 0.490702 -0.099724
C7    C     C_R   0.503027 0.479290 0.739012 -0.094141
C8    C     C_R   0.441171 0.534330 0.786408 0.059759
C9    C     C_R   0.465734 0.530247 0.867800 -0.214217
C10   C     C_R   0.549837 0.472389 0.902360 0.240512
C11   C     C_R   0.604874 0.413675 0.855971 0.100121
C12   C     C_R   0.739597 0.499675 0.497630 0.871611
C13   C     C_R   0.580990 0.418424 0.773744 -0.265343
C14   C     C_R   0.595724 0.458458 0.143228 -0.166053
C15   C     C_R   0.572781 0.452000 0.224154 -0.249593
C16   C     C_R   0.570617 0.532914 0.098549 0.326226
C17   C     C_R   0.527396 0.519988 0.261974 -0.021935
C18   C     C_R   0.510775 0.595902 0.218830 -0.212106
C19   C     C_R   0.532289 0.602090 0.137181 -0.197045
C20   C     C_R   0.433450 0.761926 0.462979 -0.029779
C21   C     C_R   0.433150 0.848779 0.463778 -0.309721
C22   C     C_R   0.518305 0.890541 0.513535 0.291873
C23   C     C_R   0.504659 0.511744 0.347070 0.841901
C24   C     C_R   0.601939 0.842341 0.561996 0.003975
C25   C     C_R   0.598554 0.755163 0.558539 -0.037820
C26   C     C_R   0.554810 0.145109 0.527091 -0.317213
C27   C     C_R   0.565915 0.231503 0.532272 0.215618
C28   C     C_R   0.461067 0.108942 0.479359 0.260131
C29   C     C_R   0.393033 0.249954 0.443311 -0.067211
C30   C     C_R   0.378665 0.163100 0.436487 -0.000299
C31   C     C_R   0.260439 0.500847 0.497021 0.870263
C32   C     C_R   0.863750 0.427314 0.365634 -0.200481
C33   C     C_R   0.926830 0.392461 0.303973 -0.138037
C34   C     C_R   0.057683 0.393822 0.303297 -0.140731
C35   C     C_R   0.125825 0.430228 0.364185 -0.199418
C36   C     C_R   0.063256 0.464411 0.428125 0.100742
H1    H     H_    0.890864 0.568245 0.598793 0.148630
H2    H     H_    0.477961 0.649451 0.247669 0.156016
H3    H     H_    0.417698 0.571946 0.904769 0.155779
H4    H     H_    0.513213 0.659594 0.103237 0.136463
H5    H     H_    0.619913 0.106447 0.561358 0.167198
H6    H     H_    0.367225 0.882580 0.425589 0.161224
H7    H     H_    0.367919 0.730155 0.424641 0.140716
H8    H     H_    0.873971 0.365249 0.256077 0.133083
H9    H     H_    0.106596 0.367610 0.254899 0.136890
H10   H     H_    0.118628 0.570551 0.597632 0.145671
H11   H     H_    0.628204 0.404230 0.115384 0.141514
N1    N     N_2   0.571996 0.468589 0.985280 -0.213442
N2    N     N_2   0.567143 0.537569 0.014500 -0.204824
N3    N     N_R   0.515300 0.716920 0.509720 -0.094682
N4    N     N_2   0.525156 0.979369 0.516416 -0.193524
N5    N     N_2   0.448775 0.020133 0.473602 -0.189225
N6    N     N_R   0.484690 0.283070 0.490290 -0.111494
O1    O     O_R   0.494530 0.422540 0.612660 -0.633282
O2    O     O_R   0.504350 0.561840 0.618900 -0.613622
O3    O     O_R   0.678320 0.430330 0.496880 -0.637999
O4    O     O_R   0.688140 0.569640 0.503120 -0.610242
O5    O     O_R   0.495650 0.438160 0.381100 -0.637624
O6    O     O_R   0.505470 0.577460 0.387340 -0.615502
O7    O     O_R   0.311860 0.430360 0.496880 -0.621756
O8    O     O_R   0.321680 0.569670 0.503120 -0.622897
Zn1   Zn    Zn3+2 0.493440 0.406980 0.495830 0.917493
Zn2   Zn    Zn3+2 0.506560 0.593020 0.504170 0.936356
H12   H     H_    0.626128 0.377095 0.735358 0.146241
C37   C     C_3   0.346363 0.596007 0.753111 -0.398049
C38   C     C_3   0.404851 0.684200 0.744942 -0.312739
C39   C     C_3   0.318073 0.743573 0.698362 -0.874181
H13   H     H_    0.362069 0.806922 0.694130 0.243086
H14   H     H_    0.226300 0.745985 0.728999 0.254322
H15   H     H_    0.302019 0.723056 0.636943 0.274304
H16   H     H_    0.422933 0.707322 0.805212 0.205346
H17   H     H_    0.496244 0.683971 0.713551 0.237159
H18   H     H_    0.308078 0.577526 0.694765 0.203477
H19   H     H_    0.264043 0.595330 0.793495 0.183054
C40   C     C_3   0.667891 0.263603 0.586608 -0.402453
C41   C     C_3   0.798547 0.257390 0.549769 -0.343502
C42   C     C_3   0.900956 0.293535 0.603123 -0.874359
H20   H     H_    0.882493 0.359364 0.613578 0.263802
H21   H     H_    0.904444 0.257340 0.661436 0.254682
H22   H     H_    0.993746 0.290768 0.573802 0.259732
H23   H     H_    0.818937 0.191328 0.541367 0.210932
H24   H     H_    0.801286 0.291486 0.490343 0.248062
H25   H     H_    0.652597 0.327788 0.600891 0.253856
H26   H     H_    0.664541 0.226717 0.644708 0.166269
C43   C     C_3   0.695528 0.882967 0.616984 -0.430596
C44   C     C_3   0.630785 0.910366 0.691886 -0.331825
C45   C     C_3   0.723342 0.956313 0.744991 -0.888757
H27   H     H_    0.801986 0.915637 0.764006 0.261853
H28   H     H_    0.761808 0.013296 0.712448 0.259713
H29   H     H_    0.674252 0.974672 0.798991 0.249871
H30   H     H_    0.552354 0.952114 0.675077 0.233501
H31   H     H_    0.591202 0.854840 0.726330 0.217400
H32   H     H_    0.770516 0.839010 0.635505 0.192072
H33   H     H_    0.742653 0.937141 0.584493 0.213233
H34   H     H_    0.661852 0.717569 0.595233 0.123974
H35   H     H_    0.329626 0.291423 0.411110 0.148271
H36   H     H_    0.762281 0.426894 0.362455 0.153577
C46   C     C_3   0.273635 0.130718 0.384323 -0.423069
C47   C     C_3   0.301658 0.150854 0.295756 -0.339056
C48   C     C_3   0.194909 0.119589 0.242859 -0.886729
H37   H     H_    0.181905 0.051158 0.252176 0.262150
H38   H     H_    0.105795 0.149797 0.256654 0.260697
H39   H     H_    0.217880 0.134871 0.179219 0.248915
H40   H     H_    0.313991 0.219097 0.283813 0.214979
H41   H     H_    0.390221 0.121063 0.279849 0.228138
H42   H     H_    0.259024 0.062512 0.394695 0.217375
H43   H     H_    0.184374 0.159636 0.400340 0.200990
H44   H     H_    0.227196 0.432531 0.359662 0.144571
H45   H     H_    0.590063 0.393531 0.256946 0.155513
C49   C     C_3   0.690381 0.349260 0.896146 -0.398582
C50   C     C_3   0.747340 0.288001 0.840668 -0.370615
C51   C     C_3   0.829180 0.225596 0.887299 -0.881033
H46   H     H_    0.908050 0.258270 0.917499 0.262055
H47   H     H_    0.772231 0.188815 0.932646 0.260681
H48   H     H_    0.868944 0.182405 0.845693 0.249843
H49   H     H_    0.670823 0.253151 0.810246 0.224174
H50   H     H_    0.806804 0.322532 0.795039 0.224309
H51   H     H_    0.768694 0.382636 0.926371 0.206185
H52   H     H_    0.635136 0.313012 0.942828 0.204288

loop_
_geom_bond_atom_site_label_1
_geom_bond_atom_site_label_2
_ccdc_geom_bond_type
O5    Zn1   S    
C23   O5    A    
C45   H27   S    
C28   N5    S    
C31   O8    A    
C35   C36   A    
C1    O1    A    
C49   H51   S    
C51   H47   S    
C7    C8    A    
C42   H20   S    
C23   O6    A    
C26   C27   A    
C17   C23   S    
C2    C32   A    
C18   C19   A    
C44   H30   S    
C5    C6    A    
C40   H26   S    
C9    H3    S    
C37   H18   S    
C32   H36   S    
O7    Zn1   S    
C34   C35   A    
C43   H33   S    
O8    Zn2   S    
C15   H45   S    
C49   C50   S    
C20   N3    A    
C3    C12   S    
C25   N3    A    
C43   H32   S    
C38   H17   S    
C38   H16   S    
C6    C36   A    
C8    C9    A    
O2    Zn2   S    
C50   H49   S    
C35   H44   S    
C9    C10   A    
O3    Zn1   S    
C6    C31   S    
C8    C37   S    
C21   C22   A    
C11   C49   S    
N3    Zn2   S    
C27   C40   S    
C51   H46   S    
O4    Zn2   S    
C41   C42   S    
C42   H21   S    
C47   H41   S    
N4    N5    D    
C38   C39   S    
C24   C25   A    
C10   C11   A    
C41   H24   S    
C44   C45   S    
O1    Zn1   S    
C43   C44   S    
C48   H39   S    
C46   H43   S    
C39   H13   S    
C39   H14   S    
C31   O7    A    
C49   H52   S    
C40   C41   S    
C29   C30   A    
N6    Zn1   S    
C47   C48   S    
C20   C21   A    
C48   H38   S    
C17   C18   A    
C34   H9    S    
C16   N2    S    
C12   O3    A    
C12   O4    A    
N1    N2    D    
C25   H34   S    
C45   H28   S    
C10   N1    S    
C14   C16   A    
C3    C4    A    
C20   H7    S    
C24   C43   S    
C42   H22   S    
C2    C36   A    
C15   C17   A    
C50   C51   S    
C1    C7    S    
C33   H8    S    
O6    Zn2   S    
C4    C5    A    
C41   H23   S    
C29   H35   S    
C27   N6    A    
C14   H11   S    
C5    H10   S    
C30   C46   S    
C26   C28   A    
C46   H42   S    
C50   H50   S    
C39   H15   S    
C32   C33   A    
C28   C30   A    
C2    C3    A    
C1    O2    A    
C44   H31   S    
C11   C13   A    
C40   H25   S    
C13   H12   S    
C29   N6    A    
C16   C19   A    
C48   H37   S    
C33   C34   A    
C47   H40   S    
C22   C24   A    
C37   C38   S    
C18   H2    S    
C19   H4    S    
C37   H19   S    
C21   H6    S    
C7    C13   A    
C4    H1    S    
C46   C47   S    
C45   H29   S    
C14   C15   A    
C51   H48   S    
C26   H5    S    
C22   N4    S    
