data_mof_unit_62861.cif
_audit_creation_date              2012-10-26T17:55:30-0400
_audit_creation_method            fapswitch 2.2
_symmetry_space_group_name_H-M    P1
_symmetry_Int_Tables_number       1
_space_group_crystal_system       triclinic
_cell_length_a                    38.599772
_cell_length_b                    21.680153
_cell_length_c                    21.754031
_cell_angle_alpha                 89.999985
_cell_angle_beta                  123.960196
_cell_angle_gamma                 90.000047
_cell_volume                      15099.5634596

loop_
_atom_site_label
_atom_site_type_symbol
_atom_type_description
_atom_site_fract_x
_atom_site_fract_y
_atom_site_fract_z
_atom_type_partial_charge
C1    C     C_R   0.998514 0.000112 0.117385 0.586461
C2    C     C_3   0.773732 0.938331 0.793979 -0.228946
C3    C     C_3   0.274950 0.551639 0.819599 -0.181845
C4    C     C_3   0.273800 0.053189 0.228610 0.169529
C5    C     C_3   0.726199 0.053056 0.771540 0.169528
C6    C     C_3   0.773801 0.553057 0.228461 0.169528
C7    C     C_3   0.226199 0.553057 0.771538 0.169529
C8    C     C_1   0.375188 0.000903 0.375640 0.037212
C9    C     C_1   0.624812 0.000903 0.624361 0.037208
C10   C     C_1   0.875188 0.500903 0.375639 0.037209
C11   C     C_1   0.124812 0.500903 0.624361 0.037208
C12   C     C_3   0.208654 0.001656 0.209001 0.007742
C13   C     C_3   0.726268 0.438331 0.206019 -0.228946
C14   C     C_3   0.791345 0.001654 0.791002 0.007748
C15   C     C_3   0.708654 0.501654 0.208998 0.007748
C16   C     C_3   0.291345 0.501654 0.791002 0.007748
C17   C     C_3   0.273948 0.014488 0.339834 -0.200579
C18   C     C_3   0.726053 0.014678 0.660206 -0.200574
C19   C     C_3   0.773947 0.514676 0.339794 -0.200574
C20   C     C_3   0.226053 0.514675 0.660205 -0.200573
C21   C     C_3   0.291355 0.003354 0.291448 0.037524
C22   C     C_3   0.708645 0.003352 0.708559 0.037528
C23   C     C_3   0.791355 0.503352 0.291441 0.037528
C24   C     C_3   0.273732 0.438332 0.793981 -0.228947
C25   C     C_3   0.208645 0.503352 0.708559 0.037528
C26   C     C_1   0.337484 0.002025 0.337841 0.006273
C27   C     C_1   0.662516 0.002024 0.662162 0.006267
C28   C     C_1   0.837484 0.502024 0.337838 0.006268
C29   C     C_1   0.162516 0.502024 0.662162 0.006268
C30   C     C_1   0.162553 0.000638 0.163309 -0.053768
C31   C     C_1   0.837447 0.000637 0.836693 -0.053771
C32   C     C_1   0.662553 0.500637 0.163307 -0.053771
C33   C     C_R   0.001486 0.000112 0.882615 0.586459
C34   C     C_1   0.337447 0.500637 0.836693 -0.053771
C35   C     C_1   0.124850 0.000113 0.125726 0.012876
C36   C     C_1   0.875150 0.000112 0.874274 0.012873
C37   C     C_1   0.624850 0.500112 0.125726 0.012873
C38   C     C_1   0.375150 0.500112 0.874274 0.012873
C39   C     C_R   0.970745 0.038334 0.190898 0.243280
C40   C     C_R   0.029254 0.038335 0.809101 0.243286
C41   C     C_R   0.470746 0.538334 0.190898 0.243279
C42   C     C_R   0.529254 0.538334 0.809102 0.243280
C43   C     C_R   0.972501 0.036242 0.256552 -0.153058
C44   C     C_R   0.498514 0.500112 0.117385 0.586460
C45   C     C_R   0.027498 0.036243 0.743447 -0.153061
C46   C     C_R   0.472502 0.536243 0.256553 -0.153061
C47   C     C_R   0.527498 0.536243 0.743448 -0.153059
C48   C     C_R   0.000435 0.996963 0.314438 -0.035996
C49   C     C_R   0.999565 0.996963 0.685562 -0.035998
C50   C     C_R   0.500435 0.496963 0.314438 -0.035996
C51   C     C_R   0.499565 0.496963 0.685562 -0.035996
C52   C     C_R   0.027235 0.958142 0.306847 0.242870
C53   C     C_R   0.972765 0.958141 0.693153 0.242869
C54   C     C_R   0.527235 0.458141 0.306847 0.242870
C55   C     C_R   0.501486 0.500112 0.882615 0.586460
C56   C     C_R   0.472765 0.458141 0.693153 0.242864
C57   C     C_R   0.025644 0.960493 0.241337 -0.152907
C58   C     C_R   0.974356 0.960492 0.758663 -0.152912
C59   C     C_R   0.525644 0.460492 0.241337 -0.152913
C60   C     C_R   0.474356 0.460492 0.758663 -0.152910
C61   C     C_R   0.079965 0.999998 0.080619 0.571053
C62   C     C_R   0.920035 0.999998 0.919381 0.571053
C63   C     C_R   0.579965 0.499998 0.080619 0.571054
C64   C     C_R   0.420035 0.499998 0.919381 0.571054
C65   C     C_R   0.997969 0.000179 0.183742 -0.032694
C66   C     C_3   0.274745 0.939600 0.253343 -0.272182
C67   C     C_R   0.002031 0.000179 0.816258 -0.032696
C68   C     C_R   0.497969 0.500178 0.183742 -0.032696
C69   C     C_R   0.502031 0.500179 0.816258 -0.032695
C70   C     C_R   0.500000 0.185706 0.500000 0.028633
C71   C     C_R   1.000000 0.685706 0.500000 0.028636
C72   C     C_R   0.500000 0.881274 0.500000 0.535190
C73   C     C_R   0.000000 0.381274 0.500000 0.535190
C74   C     C_R   0.420059 0.000179 0.420240 0.553241
C75   C     C_R   0.579941 0.000179 0.579760 0.553231
C76   C     C_R   0.920059 0.500179 0.420240 0.553231
C77   C     C_3   0.725255 0.939535 0.746480 -0.272183
C78   C     C_R   0.079941 0.500179 0.579760 0.553230
C79   C     C_R   0.500000 0.119017 0.500000 0.553801
C80   C     C_R   0.000000 0.619017 0.500000 0.553790
C81   C     C_R   1.000000 0.880686 0.500000 0.602930
C82   C     C_R   0.500000 0.380686 0.500000 0.602930
C83   C     C_R   0.000200 0.997672 0.381134 0.588758
C84   C     C_R   0.999800 0.997672 0.618865 0.588758
C85   C     C_R   0.500200 0.497672 0.381134 0.588758
C86   C     C_R   0.499800 0.497672 0.618865 0.588756
C87   C     C_R   0.000000 0.119110 0.500000 0.529256
C88   C     C_3   0.774744 0.439536 0.253518 -0.272183
C89   C     C_R   0.500000 0.619110 0.500000 0.529255
C90   C     C_R   0.526798 0.782252 0.487025 -0.119770
C91   C     C_R   0.473202 0.782251 0.512976 -0.119770
C92   C     C_R   0.026798 0.282252 0.487025 -0.119769
C93   C     C_R   0.973202 0.282251 0.512976 -0.119770
C94   C     C_R   0.027313 0.218120 0.488304 -0.118267
C95   C     C_R   0.972687 0.218120 0.511696 -0.118267
C96   C     C_R   0.527313 0.718120 0.488304 -0.118267
C97   C     C_R   0.472687 0.718120 0.511696 -0.118267
C98   C     C_3   0.225487 0.016199 0.290947 -0.216748
C99   C     C_3   0.225255 0.439536 0.746482 -0.272185
C100  C     C_3   0.774513 0.016390 0.709099 -0.216748
C101  C     C_3   0.725487 0.516388 0.290901 -0.216748
C102  C     C_3   0.274513 0.516387 0.709099 -0.216747
C103  C     C_R   0.000000 0.186020 0.500000 0.031359
C104  C     C_R   0.500000 0.686020 0.500000 0.031360
C105  C     C_R   0.500000 0.814356 0.500000 0.029459
C106  C     C_R   0.000000 0.314356 0.500000 0.029459
C107  C     C_R   0.470904 0.217665 0.435284 -0.117210
C108  C     C_R   0.529096 0.217665 0.564716 -0.117198
C109  C     C_R   0.970905 0.717665 0.435283 -0.117201
C110  C     C_3   0.226268 0.938393 0.205839 -0.228940
C111  C     C_R   0.029095 0.717665 0.564717 -0.117202
C112  C     C_R   0.970451 0.781733 0.435633 -0.108659
C113  C     C_R   0.029549 0.781733 0.564367 -0.108660
C114  C     C_R   0.470450 0.281733 0.435634 -0.108664
C115  C     C_R   0.529550 0.281733 0.564366 -0.108658
C116  C     C_R   1.000000 0.813813 0.500000 0.031348
C117  C     C_R   0.500000 0.313813 0.500000 0.031346
C118  C     C_3   0.225049 0.051772 0.180549 -0.181846
C119  C     C_3   0.774950 0.051638 0.819601 -0.181845
C120  C     C_3   0.725050 0.551639 0.180400 -0.181845
Cu1   Cu    Cu3+1 0.000000 0.938160 0.000000 1.029202
Cu2   Cu    Cu3+1 0.041320 0.999890 0.541290 1.073354
Cu3   Cu    Cu3+1 0.458680 0.499890 0.458710 1.073368
Cu4   Cu    Cu3+1 0.541320 0.499890 0.541290 1.073359
Cu5   Cu    Cu3+1 0.500000 0.438160 0.000000 1.029197
Cu6   Cu    Cu3+1 0.000000 0.061840 0.000000 1.140072
Cu7   Cu    Cu3+1 0.500000 0.561840 0.000000 1.140064
Cu8   Cu    Cu3+1 0.500000 0.000210 0.561820 1.009054
Cu9   Cu    Cu3+1 0.500000 0.000210 0.438180 1.008957
Cu10  Cu    Cu3+1 0.000000 0.500210 0.561820 1.009013
Cu11  Cu    Cu3+1 0.000000 0.500210 0.438180 1.009022
Cu12  Cu    Cu3+1 0.958680 0.999890 0.458710 1.073360
H1    H     H_    0.213099 0.982066 0.312256 0.136506
H2    H     H_    0.713819 0.929284 0.782375 0.129280
H3    H     H_    0.786181 0.429286 0.217623 0.129280
H4    H     H_    0.213819 0.429287 0.782377 0.129273
H5    H     H_    0.952046 0.065616 0.263059 0.178831
H6    H     H_    0.047953 0.065617 0.736939 0.178829
H7    H     H_    0.452046 0.565616 0.263060 0.178830
H8    H     H_    0.547954 0.565616 0.736940 0.178830
H9    H     H_    0.547728 0.806813 0.477228 0.129901
H10   H     H_    0.452273 0.806813 0.522772 0.129902
H11   H     H_    0.047728 0.306813 0.477228 0.129905
H12   H     H_    0.786903 0.982357 0.687691 0.136491
H13   H     H_    0.952272 0.306813 0.522772 0.129901
H14   H     H_    0.448224 0.193030 0.385154 0.145330
H15   H     H_    0.551775 0.193030 0.614846 0.145289
H16   H     H_    0.948227 0.693030 0.385152 0.145291
H17   H     H_    0.051773 0.693030 0.614848 0.145291
H18   H     H_    0.214531 0.062579 0.294946 0.161316
H19   H     H_    0.785468 0.062814 0.705236 0.161323
H20   H     H_    0.714532 0.562812 0.294766 0.161323
H21   H     H_    0.285468 0.562811 0.705233 0.161324
H22   H     H_    0.947627 0.806245 0.385526 0.153411
H23   H     H_    0.713097 0.482354 0.312308 0.136491
H24   H     H_    0.052373 0.806245 0.614473 0.153411
H25   H     H_    0.447624 0.306245 0.385529 0.153424
H26   H     H_    0.552375 0.306245 0.614471 0.153411
H27   H     H_    0.213575 0.042123 0.121831 0.116856
H28   H     H_    0.786423 0.041847 0.878288 0.116885
H29   H     H_    0.713577 0.541849 0.121713 0.116885
H30   H     H_    0.286423 0.541850 0.878287 0.116882
H31   H     H_    0.284487 0.040788 0.192094 0.125724
H32   H     H_    0.715510 0.040520 0.808018 0.125732
H33   H     H_    0.784489 0.540522 0.191983 0.125732
H34   H     H_    0.286903 0.482353 0.687692 0.136497
H35   H     H_    0.215510 0.540523 0.808016 0.125729
H36   H     H_    0.214551 0.926795 0.147461 0.144959
H37   H     H_    0.785450 0.926594 0.852323 0.144937
H38   H     H_    0.714550 0.426596 0.147675 0.144938
H39   H     H_    0.285450 0.426597 0.852326 0.144930
H40   H     H_    0.286837 0.902415 0.295814 0.136873
H41   H     H_    0.713163 0.902439 0.703902 0.136870
H42   H     H_    0.786837 0.402439 0.296096 0.136870
H43   H     H_    0.213163 0.402439 0.703905 0.136872
H44   H     H_    0.286482 0.057876 0.372046 0.194345
H45   H     H_    0.284464 0.976715 0.381278 0.118320
H46   H     H_    0.713518 0.058123 0.628119 0.194338
H47   H     H_    0.786482 0.558121 0.371883 0.194338
H48   H     H_    0.213518 0.558120 0.628116 0.194339
H49   H     H_    0.884377 0.074174 0.002271 0.364525
H50   H     H_    0.115619 0.074181 0.997729 0.364518
H51   H     H_    0.384378 0.574175 0.002271 0.364524
H52   H     H_    0.615622 0.574175 0.997729 0.364525
H53   H     H_    0.055522 0.834041 0.439897 0.370924
H54   H     H_    0.944480 0.834039 0.560106 0.370924
H55   H     H_    0.555521 0.334040 0.439895 0.370923
H56   H     H_    0.715538 0.976994 0.618654 0.118327
H57   H     H_    0.444478 0.334040 0.560104 0.370926
H58   H     H_    0.046255 0.931394 0.234942 0.175814
H59   H     H_    0.953745 0.931393 0.765059 0.175815
H60   H     H_    0.546255 0.431394 0.234941 0.175814
H61   H     H_    0.453745 0.431394 0.765058 0.175815
H62   H     H_    0.048412 0.193556 0.478932 0.133081
H63   H     H_    0.951588 0.193555 0.521068 0.133077
H64   H     H_    0.548412 0.693555 0.478932 0.133076
H65   H     H_    0.451588 0.693555 0.521068 0.133078
H66   H     H_    0.211823 0.097280 0.180876 0.187647
H67   H     H_    0.784462 0.476992 0.381345 0.118328
H68   H     H_    0.788178 0.097185 0.819411 0.187645
H69   H     H_    0.711822 0.597186 0.180591 0.187645
H70   H     H_    0.288178 0.597186 0.819407 0.187644
H71   H     H_    0.352362 0.176385 0.327518 0.374236
H72   H     H_    0.647641 0.176313 0.672956 0.374206
H73   H     H_    0.852359 0.676313 0.327048 0.374207
H74   H     H_    0.147641 0.676314 0.672950 0.374207
H75   H     H_    0.215250 0.901579 0.226679 0.146265
H76   H     H_    0.784749 0.901610 0.773030 0.146268
H77   H     H_    0.715250 0.401610 0.226967 0.146268
H78   H     H_    0.215538 0.476991 0.618655 0.118334
H79   H     H_    0.284750 0.401610 0.773034 0.146269
H80   H     H_    0.286182 0.929485 0.217420 0.129290
O1    O     O_R   0.999990 0.947780 0.090170 -0.516927
O2    O     O_R   0.965100 0.999930 0.555260 -0.448984
O3    O     O_R   0.534900 0.499930 0.444740 -0.448985
O4    O     O_R   0.465100 0.499930 0.555260 -0.448984
O5    O     O_R   0.965090 0.090120 0.465150 -0.518569
O6    O     O_R   0.034910 0.090120 0.534850 -0.518571
O7    O     O_R   0.465090 0.590120 0.465150 -0.518570
O8    O     O_R   0.534910 0.590120 0.534850 -0.518570
O9    O     O_R   0.999990 0.052220 0.090220 -0.452478
O10   O     O_R   0.000010 0.052220 0.909780 -0.452480
O11   O     O_R   0.499990 0.552220 0.090220 -0.452480
O12   O     O_R   0.000010 0.947780 0.909830 -0.516929
O13   O     O_R   0.500010 0.552220 0.909780 -0.452481
O14   O     O_R   0.060280 0.947780 0.060280 -0.505386
O15   O     O_R   0.939720 0.947780 0.939720 -0.505384
O16   O     O_R   0.560280 0.447780 0.060280 -0.505385
O17   O     O_R   0.439720 0.447780 0.939720 -0.505385
O18   O     O_R   0.060280 0.052220 0.060320 -0.487005
O19   O     O_R   0.939720 0.052220 0.939680 -0.487005
O20   O     O_R   0.560280 0.552220 0.060320 -0.487006
O21   O     O_R   0.439720 0.552220 0.939680 -0.487005
O22   O     O_R   0.500000 0.909980 0.552210 -0.509552
O23   O     O_R   0.499990 0.447780 0.090170 -0.516930
O24   O     O_R   0.500000 0.909980 0.447790 -0.509551
O25   O     O_R   0.000000 0.409980 0.552210 -0.509552
O26   O     O_R   0.000000 0.409980 0.447790 -0.509549
O27   O     O_R   0.439710 0.000200 0.491930 -0.505677
O28   O     O_R   0.560290 0.000200 0.508070 -0.505721
O29   O     O_R   0.939710 0.500200 0.491930 -0.505723
O30   O     O_R   0.060290 0.500200 0.508070 -0.505719
O31   O     O_R   0.439720 0.000170 0.387560 -0.494810
O32   O     O_R   0.560280 0.000170 0.612440 -0.494745
O33   O     O_R   0.939720 0.500170 0.387560 -0.494744
O34   O     O_R   0.500010 0.447780 0.909830 -0.516926
O35   O     O_R   0.060280 0.500170 0.612440 -0.494746
O36   O     O_R   0.500000 0.090430 0.552220 -0.499100
O37   O     O_R   0.500000 0.090430 0.447780 -0.499123
O38   O     O_R   0.000000 0.590430 0.552220 -0.499113
O39   O     O_R   0.000000 0.590430 0.447780 -0.499113
O40   O     O_R   0.965130 0.909670 0.465120 -0.490638
O41   O     O_R   0.034870 0.909670 0.534880 -0.490638
O42   O     O_R   0.465130 0.409670 0.465120 -0.490637
O43   O     O_R   0.534870 0.409670 0.534880 -0.490638
O44   O     O_2   0.902701 0.110588 0.136010 -0.270675
O45   O     O_R   0.965120 0.999890 0.374970 -0.520335
O46   O     O_2   0.953890 0.139820 0.108395 -0.245071
O47   O     O_3   0.905934 0.045442 0.039365 -0.528337
O48   O     O_2   0.097297 0.110591 0.863988 -0.270707
O49   O     O_2   0.046107 0.139822 0.891600 -0.245080
O50   O     O_3   0.094064 0.045447 0.960635 -0.528338
O51   O     O_2   0.402701 0.610588 0.136010 -0.270680
O52   O     O_2   0.453891 0.639820 0.108396 -0.245079
O53   O     O_3   0.405935 0.545443 0.039365 -0.528337
O54   O     O_2   0.597298 0.610588 0.863990 -0.270676
O55   O     O_2   0.546110 0.639820 0.891604 -0.245076
O56   O     O_R   0.034880 0.999890 0.625030 -0.520338
O57   O     O_3   0.594065 0.545443 0.960635 -0.528335
O58   O     O_2   0.078708 0.860436 0.345399 -0.270309
O59   O     O_2   0.096731 0.937502 0.441129 -0.249721
O60   O     O_3   0.034799 0.863157 0.401994 -0.530650
O61   O     O_2   0.921293 0.860434 0.654602 -0.270312
O62   O     O_2   0.903270 0.937500 0.558871 -0.249726
O63   O     O_3   0.965203 0.863156 0.598008 -0.530651
O64   O     O_2   0.578707 0.360435 0.345398 -0.270314
O65   O     O_2   0.596730 0.437501 0.441129 -0.249726
O66   O     O_3   0.534798 0.363156 0.401993 -0.530649
O67   O     O_R   0.465120 0.499890 0.374970 -0.520334
O68   O     O_2   0.421293 0.360435 0.654601 -0.270291
O69   O     O_2   0.403270 0.437501 0.558871 -0.249715
O70   O     O_3   0.465202 0.363156 0.598006 -0.530649
O71   O     O_2   0.277430 0.171070 0.193868 -0.247865
O72   O     O_2   0.275966 0.155509 0.303725 -0.283860
O73   O     O_3   0.345066 0.132496 0.313587 -0.527959
O74   O     O_2   0.722565 0.170824 0.806617 -0.247823
O75   O     O_2   0.724044 0.155588 0.696731 -0.283896
O76   O     O_3   0.654936 0.132406 0.686772 -0.527936
O77   O     O_2   0.777435 0.670827 0.193387 -0.247824
O78   O     O_R   0.534880 0.499890 0.625030 -0.520335
O79   O     O_2   0.775956 0.655588 0.303273 -0.283896
O80   O     O_3   0.845064 0.632407 0.313231 -0.527935
O81   O     O_2   0.222565 0.670828 0.806611 -0.247829
O82   O     O_2   0.224044 0.655587 0.696725 -0.283895
O83   O     O_3   0.154936 0.632407 0.686768 -0.527935
O84   O     O_R   0.034900 0.999930 0.444740 -0.448982
S1    S     S_3+6 0.932682 0.086341 0.118322 0.040030
S2    S     S_3+6 0.707439 0.130627 0.739917 -0.000772
S3    S     S_3+6 0.792562 0.630628 0.260086 -0.000772
S4    S     S_3+6 0.207439 0.630629 0.739912 -0.000774
S5    S     S_3+6 0.067316 0.086344 0.881676 0.040011
S6    S     S_3+6 0.432683 0.586342 0.118322 0.040025
S7    S     S_3+6 0.567317 0.586342 0.881678 0.040029
S8    S     S_3+6 0.061281 0.903961 0.375437 0.038380
S9    S     S_3+6 0.938720 0.903959 0.624564 0.038377
S10   S     S_3+6 0.561280 0.403960 0.375436 0.038375
S11   S     S_3+6 0.438719 0.403960 0.624564 0.038390
S12   S     S_3+6 0.292563 0.130722 0.260454 -0.000776

loop_
_geom_bond_atom_site_label_1
_geom_bond_atom_site_label_2
_ccdc_geom_bond_type
Cu12  O45   S    
C21   C26   S    
Cu4   O8    S    
C86   O78   A    
C8    C26   T    
O55   S7    D    
C15   C32   S    
C5    C119  S    
H52   O57   S    
Cu4   O78   S    
C70   C107  A    
C85   O3    A    
C64   O17   A    
Cu10  O29   S    
Cu3   O67   S    
C101  H23   S    
C62   O15   A    
H50   O50   S    
C15   C120  S    
C1    O9    A    
Cu2   Cu12  S    
C24   H39   S    
O64   S10   D    
Cu11  O39   S    
C80   O39   A    
C77   H41   S    
C20   H78   S    
C17   C98   S    
C42   S7    S    
C91   H10   S    
C33   O10   A    
C6    H33   S    
Cu3   O4    S    
C39   C65   A    
Cu5   O34   S    
C36   C62   S    
C111  H17   S    
O65   S10   D    
C37   C63   S    
C38   C64   S    
C25   C29   S    
Cu9   O37   S    
C119  H68   S    
C90   C105  A    
C100  H12   S    
C17   C21   S    
C72   O24   A    
Cu1   O1    S    
C19   C23   S    
C5    S2    S    
C114  H25   S    
Cu5   O23   S    
C97   H65   S    
C89   O7    A    
Cu10  O35   S    
H57   O70   S    
C8    C74   S    
C61   O18   A    
C111  C113  A    
C44   O11   A    
C66   C110  S    
C102  H21   S    
O83   S4    S    
C87   C103  S    
C92   C106  A    
C22   C27   S    
C96   C104  A    
Cu8   O32   S    
C82   O43   A    
C2    H76   S    
C66   H80   S    
C19   H47   S    
C98   H18   S    
C17   H45   S    
H72   O76   S    
C70   C79   S    
C94   H62   S    
C88   H3    S    
H51   O53   S    
C53   C58   A    
C14   C100  S    
H49   O47   S    
Cu1   O15   S    
Cu10  Cu11  S    
C49   C53   A    
C99   H4    S    
C76   O29   A    
C40   S5    S    
C2    C14   S    
C86   O4    A    
C81   O40   A    
C90   H9    S    
C2    H37   S    
C33   O12   A    
C58   C67   A    
C48   C52   A    
C14   C119  S    
Cu5   Cu7   S    
C3    H70   S    
C31   C36   T    
O80   S3    S    
O46   S1    D    
C81   O41   A    
C46   H7    S    
O73   S12   S    
O75   S2    D    
C21   C66   S    
C91   C105  A    
C14   C31   S    
Cu8   Cu9   S    
O60   S8    S    
Cu2   O41   S    
C12   C110  S    
Cu2   O56   S    
Cu3   Cu4   S    
Cu8   O27   S    
C73   O25   A    
C108  C115  A    
Cu5   O17   S    
C6    S3    S    
C88   H42   S    
Cu3   O42   S    
C3    H30   S    
C16   C34   S    
C40   C67   A    
C47   H8    S    
C1    C65   S    
C85   O67   A    
C110  H75   S    
Cu5   O16   S    
H71   O73   S    
C93   C95   A    
C80   O38   A    
Cu4   O43   S    
C24   H79   S    
C95   C103  A    
C60   H61   S    
C54   C59   A    
Cu7   O21   S    
C115  H26   S    
O77   S3    D    
C13   H77   S    
C107  H14   S    
C23   C28   S    
C53   S9    S    
O69   S11   D    
C93   C106  A    
C83   O84   A    
C96   H64   S    
C4    H31   S    
C35   C61   S    
C32   C37   T    
C15   C101  S    
C55   C69   S    
C4    S12   S    
C23   C88   S    
Cu2   O84   S    
C77   H2    S    
C118  H66   S    
C112  C116  A    
O71   S12   D    
Cu3   O7    S    
O47   S1    S    
C18   C22   S    
C56   S11   S    
C41   S6    S    
C90   C96   A    
C19   H67   S    
C61   O14   A    
C48   C83   S    
C55   O13   A    
O81   S4    D    
C73   O26   A    
Cu9   O28   S    
C70   C108  A    
O72   S12   D    
C60   C69   A    
C81   C116  S    
Cu7   O20   S    
Cu1   O12   S    
C114  C117  A    
C99   H43   S    
C18   H46   S    
C3    C16   S    
Cu4   O3    S    
Cu10  O25   S    
C76   O33   A    
C75   O28   A    
Cu6   O9    S    
C7    S4    S    
C98   H1    S    
C33   C67   S    
C50   C54   A    
C3    C7    S    
C20   C25   S    
Cu11  O26   S    
C84   O56   A    
C87   O6    A    
C92   H11   S    
C7    H35   S    
C75   O32   A    
O54   S7    D    
C50   C85   S    
C25   C99   S    
C115  C117  A    
C55   O34   A    
C12   C98   S    
O68   S11   D    
O53   S6    S    
C59   H60   S    
O59   S8    D    
C51   C86   S    
C41   C68   A    
O48   S5    D    
C40   C45   A    
Cu9   O24   S    
O51   S6    D    
C44   O23   A    
O57   S7    S    
H54   O63   S    
O58   S8    D    
Cu1   O14   S    
C56   C60   A    
Cu1   Cu6   S    
C107  C114  A    
O63   S9    S    
C45   C49   A    
C39   S1    S    
C91   C97   A    
H74   O83   S    
C12   C118  S    
C74   O31   A    
C94   C103  A    
C1    O1    A    
C113  H24   S    
C9    C27   T    
C10   C28   T    
C95   H63   S    
C12   C30   S    
C22   C77   S    
C57   C65   A    
Cu11  O30   S    
C47   C51   A    
C63   O16   A    
C101  H20   S    
C7    C25   S    
C2    C77   S    
C89   O8    A    
C92   C94   A    
C18   H56   S    
C83   O45   A    
C97   C104  A    
C52   C57   A    
C64   O21   A    
C72   C105  S    
C62   O19   A    
C58   H59   S    
Cu7   O13   S    
C82   O42   A    
C82   C117  S    
O62   S9    D    
O50   S5    S    
C24   C99   S    
C52   S8    S    
C20   H48   S    
C78   O30   A    
C30   C35   T    
C66   H40   S    
Cu6   O18   S    
Cu12  O5    S    
C20   C102  S    
C51   C56   A    
C74   O27   A    
C45   H6    S    
Cu11  O33   S    
C110  H36   S    
C5    C22   S    
C119  H28   S    
C71   C111  A    
C41   C46   A    
C93   H13   S    
C118  H27   S    
O79   S3    D    
C43   C48   A    
H53   O60   S    
C17   H44   S    
Cu7   O11   S    
O66   S10   S    
C113  C116  A    
C16   C24   S    
C120  H69   S    
C79   O37   A    
C4    C118  S    
C18   C100  S    
C6    C120  S    
C71   C80   S    
C84   O2    A    
Cu10  O38   S    
C100  H19   S    
Cu8   O22   S    
Cu6   O19   S    
Cu8   O36   S    
C5    H32   S    
C109  C112  A    
O61   S9    D    
C39   C43   A    
Cu9   O31   S    
O49   S5    D    
C42   C69   A    
O82   S4    D    
C11   C78   S    
C59   C68   A    
C78   O35   A    
C120  H29   S    
C16   C102  S    
C13   H38   S    
C13   C15   S    
C89   C104  S    
C44   C68   S    
C109  H16   S    
Cu12  O2    S    
Cu12  O40   S    
H55   O66   S    
C49   C84   S    
Cu2   O6    S    
C34   C38   T    
C10   C76   S    
C54   S10   S    
C57   H58   S    
Cu6   O10   S    
C46   C50   A    
C79   O36   A    
C108  H15   S    
H73   O80   S    
O44   S1    D    
O70   S11   S    
C4    C21   S    
C19   C101  S    
C73   C106  S    
C6    C23   S    
C71   C109  A    
C13   C88   S    
C72   O22   A    
C43   H5    S    
C42   C47   A    
C87   O5    A    
O52   S6    D    
C11   C29   T    
C102  H34   S    
O76   S2    S    
O74   S2    D    
C112  H22   S    
C9    C75   S    
C63   O20   A    
