data_mof_unit_36813.cif
_audit_creation_date              2012-12-11T21:12:14-0500
_audit_creation_method            fapswitch 2.2
_symmetry_space_group_name_H-M    P1
_symmetry_Int_Tables_number       1
_space_group_crystal_system       triclinic
_cell_length_a                    8.492269
_cell_length_b                    18.947829
_cell_length_c                    27.077602
_cell_angle_alpha                 99.782284
_cell_angle_beta                  92.183291
_cell_angle_gamma                 87.691899
_cell_volume                      4288.0639251

loop_
_atom_site_label
_atom_site_type_symbol
_atom_type_description
_atom_site_fract_x
_atom_site_fract_y
_atom_site_fract_z
_atom_type_partial_charge
Ba1   Ba    Ba6+2 0.160810 0.465630 0.521640 1.756016
Ba2   Ba    Ba6+2 0.649380 0.534380 0.478400 1.740738
C1    C     C_3   0.367121 0.224291 0.687115 0.664175
C2    C     C_3   0.400787 0.274973 0.648686 1.042182
C3    C     C_3   0.481565 0.314014 0.392857 0.322182
C4    C     C_3   0.509029 0.234563 0.371459 0.204707
C5    C     C_3   0.839989 0.724364 0.368626 0.376116
C6    C     C_3   0.801025 0.793506 0.348590 -0.366316
C7    C     C_3   0.370454 0.690703 0.347725 0.333237
C8    C     C_3   0.389427 0.712648 0.296902 -0.345022
C9    C     C_R   0.985420 0.043596 0.472880 -0.075292
C10   C     C_R   0.075171 0.093960 0.453387 0.427453
C11   C     C_R   0.136435 0.935280 0.430880 -0.094846
C12   C     C_3   0.955208 0.273694 0.619082 0.337605
C13   C     C_R   0.026419 0.968353 0.466228 0.026504
C14   C     C_R   0.197124 0.866251 0.431341 -0.124570
C15   C     C_R   0.134943 0.822993 0.462110 -0.025586
C16   C     C_R   0.004265 0.849920 0.491544 -0.000663
C17   C     C_R   0.953121 0.923649 0.494997 0.027067
C18   C     C_R   0.192760 0.751961 0.461666 -0.046102
C19   C     C_R   0.099200 0.704538 0.480845 -0.226527
C20   C     C_R   0.972774 0.729487 0.511915 0.082007
C21   C     C_R   0.928097 0.803778 0.518561 -0.064381
C22   C     C_R   0.854415 0.070724 0.502150 -0.033998
C23   C     C_3   0.961171 0.200441 0.635104 -0.404418
C24   C     C_R   0.801420 0.144258 0.504572 0.026308
C25   C     C_R   0.886028 0.192073 0.480857 -0.121103
C26   C     C_R   0.024473 0.165524 0.457118 -0.060245
C27   C     C_R   0.810094 0.833579 0.551344 -0.033467
C28   C     C_R   0.762176 0.905508 0.555599 -0.100509
C29   C     C_R   0.828564 0.951766 0.526721 0.005678
C30   C     C_R   0.774343 0.024657 0.528458 0.032507
C31   C     C_R   0.640457 0.053041 0.555191 -0.088685
C32   C     C_R   0.660918 0.169334 0.529546 -0.045900
C33   C     C_R   0.585223 0.122997 0.555256 -0.160754
C34   C     C_3   0.872234 0.639039 0.639532 0.642872
C35   C     C_R   0.596050 0.238324 0.525263 0.039207
C36   C     C_R   0.673721 0.280133 0.496894 -0.119281
C37   C     C_R   0.825471 0.263638 0.480000 -0.036264
C38   C     C_R   0.299032 0.452213 0.168964 0.625689
C39   C     C_R   0.168556 0.566835 0.171415 0.591237
C40   C     C_2   0.063275 0.545025 0.271411 -0.154814
C41   C     C_3   0.060619 0.571836 0.327144 -0.067021
C42   C     C_1   0.294300 0.492915 0.333861 -0.034613
C43   C     C_2   0.326567 0.491153 0.285305 0.328507
C44   C     C_2   0.198174 0.515221 0.250380 0.173347
C45   C     C_3   0.956919 0.656044 0.691126 0.283368
C46   C     C_R   0.298123 0.510352 0.095734 -0.121315
C47   C     C_R   0.360416 0.455889 0.121297 -0.101457
C48   C     C_R   0.475850 0.406325 0.096935 0.416575
C49   C     C_R   0.191847 0.562694 0.119713 -0.011130
C50   C     C_2   0.172858 0.529799 0.356431 -0.332812
C51   C     C_2   0.654596 0.480943 0.640930 0.179498
C52   C     C_R   0.528366 0.481333 0.978983 0.033533
C53   C     C_R   0.286964 0.551795 0.965031 0.013664
C54   C     C_R   0.430758 0.518062 0.947519 0.059400
C55   C     C_R   0.682198 0.459265 0.963627 -0.101715
C56   C     C_3   0.986580 0.287067 0.351834 0.949716
C57   C     C_R   0.735574 0.472017 0.917798 -0.066711
C58   C     C_R   0.631980 0.500564 0.883966 -0.038184
C59   C     C_R   0.477309 0.520778 0.898171 -0.089159
C60   C     C_R   0.369641 0.544287 0.863330 -0.037211
C61   C     C_R   0.411808 0.536762 0.812608 0.557023
C62   C     C_R   0.678609 0.509121 0.836042 0.655300
C63   C     C_2   0.714319 0.448454 0.727715 0.322634
C64   C     C_3   0.741958 0.430540 0.671044 -0.101123
C65   C     C_1   0.535568 0.522672 0.659231 0.079456
C66   C     C_2   0.525542 0.544121 0.708201 -0.227986
C67   C     C_3   0.948313 0.205788 0.344549 0.675812
C68   C     C_2   0.610011 0.503746 0.745434 0.136887
C69   C     C_R   0.469429 0.469605 0.025135 -0.056599
C70   C     C_R   0.340294 0.512222 0.045738 0.048137
C71   C     C_R   0.253718 0.556982 0.016678 0.034584
C72   C     C_R   0.532559 0.415795 0.050704 -0.078092
C73   C     C_R   0.114815 0.610884 0.091841 -0.058124
C74   C     C_R   0.182575 0.578515 0.930190 -0.107119
C75   C     C_R   0.220863 0.572140 0.879722 -0.047803
C76   C     C_R   0.139939 0.605995 0.040631 -0.107208
C77   C     C_3   0.368370 0.684841 0.587859 0.648699
C78   C     C_3   0.360404 0.767145 0.601628 0.640053
H1    H     H_    0.886500 0.698872 0.715157 -0.013624
H2    H     H_    0.961958 0.606875 0.708841 0.005608
H3    H     H_    0.886642 0.196086 0.378106 -0.079223
H4    H     H_    0.465105 0.669153 0.562480 0.076910
H5    H     H_    0.242499 0.235611 0.698693 -0.076482
H6    H     H_    0.354201 0.788470 0.565569 -0.017878
H7    H     H_    0.596241 0.336426 0.407095 0.009698
H8    H     H_    0.397396 0.319492 0.423876 0.104673
H9    H     H_    0.612789 0.230416 0.347508 0.070590
H10   H     H_    0.406841 0.213484 0.347519 0.086050
H11   H     H_    0.884811 0.163353 0.609720 0.088406
H12   H     H_    0.793984 0.729793 0.407064 0.067117
H13   H     H_    0.970719 0.717729 0.370500 -0.078055
H14   H     H_    0.671731 0.804247 0.347257 0.147581
H15   H     H_    0.856907 0.838989 0.373509 0.070203
H16   H     H_    0.846653 0.789511 0.310264 0.120331
H17   H     H_    0.242176 0.692491 0.354835 -0.063826
H18   H     H_    0.419827 0.635176 0.346185 0.084166
H19   H     H_    0.324948 0.675458 0.267598 0.126747
H20   H     H_    0.515854 0.710394 0.287513 0.154129
H21   H     H_    0.023258 0.270290 0.584458 0.082379
H22   H     H_    0.340502 0.768036 0.297326 0.104629
H23   H     H_    0.135338 0.648443 0.475729 0.106642
H24   H     H_    0.286286 0.845869 0.404809 0.108892
H25   H     H_    0.094300 0.199062 0.438893 0.164985
H26   H     H_    0.753248 0.802021 0.574623 0.149936
H27   H     H_    0.476165 0.138219 0.573331 0.143902
H28   H     H_    0.613037 0.326930 0.487541 -0.069260
H29   H     H_    0.175616 0.960728 0.401139 0.144587
H30   H     H_    0.673065 0.923309 0.582615 0.085599
H31   H     H_    0.830287 0.286965 0.609928 -0.012709
H32   H     H_    0.569300 0.021390 0.574526 0.082026
H33   H     H_    0.855848 0.456214 0.907879 0.108416
H34   H     H_    0.765068 0.435317 0.987773 0.073821
H35   H     H_    0.622981 0.378272 0.034132 0.105032
H36   H     H_    0.963520 0.559075 0.248340 0.145580
H37   H     H_    0.031344 0.651410 0.109299 0.117098
H38   H     H_    0.067395 0.601087 0.940746 0.077251
H39   H     H_    0.082658 0.177181 0.632826 0.140827
H40   H     H_    0.134891 0.590689 0.853797 0.134053
H41   H     H_    0.466160 0.595191 0.721596 0.132048
H42   H     H_    0.075878 0.643841 0.021036 0.069322
H43   H     H_    0.172179 0.544484 0.396982 0.085807
H44   H     H_    0.919570 0.204800 0.673923 0.141265
H45   H     H_    0.920021 0.586425 0.620457 0.059787
N1    N     N_R   0.221617 0.511292 0.196273 -0.408372
N2    N     N_R   0.566320 0.517666 0.798571 -0.402396
O1    O     O_2   0.106080 0.324280 0.466820 -0.444249
O2    O     O_3   0.391105 0.652992 0.630664 -0.623659
O3    O     O_3   0.020445 0.324947 0.657597 -0.588637
O4    O     O_2   0.704230 0.675760 0.533200 -0.479727
O5    O     O_3   0.951180 0.586390 0.529420 -0.468639
O6    O     O_3   0.434080 0.629720 0.443130 -0.471230
O7    O     O_3   0.894376 0.694380 0.612389 -0.630229
O8    O     O_3   0.351080 0.462080 0.440130 -0.479753
O9    O     O_3   0.839200 0.593040 0.416790 -0.483788
O10   O     O_2   0.745896 0.528732 0.326623 -0.452317
O11   O     O_3   0.769755 0.666448 0.337018 -0.575477
O12   O     O_3   0.859130 0.413620 0.470620 -0.475706
O13   O     O_3   0.459240 0.537930 0.559910 -0.461761
O14   O     O_2   0.583120 0.462390 0.379940 -0.436129
O15   O     O_3   0.420321 0.349499 0.354533 -0.681236
O16   O     O_2   0.521549 0.759743 0.480809 -0.491099
O17   O     O_3   0.452024 0.737718 0.384817 -0.600149
O18   O     O_2   0.307295 0.395836 0.184984 -0.600626
O19   O     O_2   0.818896 0.509455 0.827783 -0.613913
O20   O     O_2   0.102881 0.620465 0.194206 -0.611553
O21   O     O_2   0.309720 0.545940 0.781189 -0.624385
O22   O     O_3   0.376230 0.370290 0.556910 -0.473676
O23   O     O_2   0.280804 0.246761 0.509158 -0.483167
O24   O     O_3   0.889972 0.330566 0.387285 -0.663517
O25   O     O_3   0.332056 0.243258 0.602083 -0.641848
O26   O     O_2   0.227190 0.537650 0.620070 -0.446211
O27   O     O_3   0.971110 0.406970 0.583250 -0.470437
O28   O     O_2   0.071983 0.463502 0.674946 -0.473406
P1    P     P_3+3 0.929380 0.335110 0.452880 0.986111
P2    P     P_3+3 0.398530 0.559060 0.613740 1.122471
P3    P     P_3+3 0.951166 0.409879 0.647959 1.011231
P4    P     P_3+3 0.880940 0.664900 0.547160 1.043099
P5    P     P_3+3 0.856492 0.587332 0.352214 0.980004
P6    P     P_3+3 0.402243 0.276050 0.550242 0.991027
P7    P     P_3+3 0.405052 0.441474 0.376615 0.970677
P8    P     P_3+3 0.397943 0.720954 0.443296 0.942148
O29   O     O_3   0.329701 0.344685 0.661051 -0.629186
C79   C     C_3   0.350819 0.375426 0.711942 0.151285
H46   H     H_    0.470580 0.365142 0.726900 0.122831
H47   H     H_    0.261256 0.356500 0.735007 0.012687
H48   H     H_    0.332076 0.433847 0.715243 0.134211
O30   O     O_3   0.111196 0.678601 0.685513 -0.607384
C80   C     C_3   0.178723 0.705699 0.732894 0.238790
H49   H     H_    0.193325 0.662821 0.756509 0.068208
H50   H     H_    0.106933 0.752352 0.752633 0.004962
H51   H     H_    0.298281 0.725340 0.727500 0.069390
O31   O     O_3   0.144841 0.296642 0.365844 -0.761188
H52   H     H_    0.202584 0.280124 0.334628 0.289579
O32   O     O_3   0.953731 0.308261 0.304231 -0.651613
C81   C     C_3   0.994019 0.379333 0.303170 0.242918
H53   H     H_    0.123060 0.381142 0.298378 0.011778
H54   H     H_    0.954817 0.417819 0.336760 0.048339
H55   H     H_    0.933515 0.396568 0.269931 0.050932
O33   O     O_3   0.090462 0.162756 0.339781 -0.755415
H56   H     H_    0.130672 0.164409 0.305656 0.289958
O34   O     O_3   0.843037 0.187883 0.302031 -0.650108
C82   C     C_3   0.836548 0.113133 0.285069 0.180001
H57   H     H_    0.870369 0.079926 0.314175 0.044098
H58   H     H_    0.915083 0.097659 0.252733 0.074815
H59   H     H_    0.713799 0.100248 0.271693 0.041891
O35   O     O_3   0.231102 0.660999 0.562598 -0.806046
H60   H     H_    0.156776 0.657542 0.589484 0.329157
O36   O     O_3   0.224957 0.789755 0.630171 -0.631127
C83   C     C_3   0.192370 0.863614 0.630817 0.178112
H61   H     H_    0.293140 0.896505 0.647550 0.050237
H62   H     H_    0.088682 0.880339 0.654450 0.067329
H63   H     H_    0.161873 0.874761 0.592550 0.012264
O37   O     O_3   0.499133 0.791342 0.628241 -0.785635
H64   H     H_    0.488532 0.784118 0.663506 0.305507
O38   O     O_3   0.564664 0.280886 0.645426 -0.783638
H65   H     H_    0.611308 0.231612 0.637653 0.278054
O39   O     O_3   0.472661 0.237407 0.728808 -0.738123
H66   H     H_    0.411857 0.235574 0.759142 0.270114
O40   O     O_3   0.533524 0.194734 0.410667 -0.665962
C84   C     C_3   0.574668 0.122981 0.390645 0.177223
H67   H     H_    0.687120 0.119172 0.370403 0.015205
H68   H     H_    0.477479 0.096416 0.365621 0.084883
H69   H     H_    0.598965 0.093048 0.421861 0.053557
O41   O     O_3   0.387937 0.152002 0.663411 -0.664649
C85   C     C_3   0.326951 0.105172 0.692709 0.155403
H70   H     H_    0.200156 0.117548 0.700384 0.006408
H71   H     H_    0.396749 0.106207 0.728387 0.073326
H72   H     H_    0.336167 0.049758 0.671434 0.053950
O42   O     O_3   0.218223 0.075586 0.431679 -0.639947
C86   C     C_3   0.333525 0.070373 0.469792 0.169934
H73   H     H_    0.288962 0.055924 0.504914 0.006449
H74   H     H_    0.391369 0.122155 0.478691 0.117129
H75   H     H_    0.422266 0.028020 0.455487 0.044853
O43   O     O_3   0.481655 0.489430 0.270581 -0.633604
C87   C     C_3   0.547171 0.418547 0.263564 0.306931
H76   H     H_    0.459400 0.375613 0.259279 0.057898
H77   H     H_    0.630235 0.410639 0.294676 0.093787
H78   H     H_    0.620342 0.410882 0.230099 0.024657
O44   O     O_3   0.540934 0.349159 0.116850 -0.694559
H79   H     H_    0.554168 0.363818 0.153350 0.325741
O45   O     O_3   0.742092 0.395335 0.757117 -0.634285
C88   C     C_3   0.903972 0.378505 0.763355 0.283561
H80   H     H_    0.983406 0.420545 0.755890 0.059945
H81   H     H_    0.932791 0.325717 0.740611 0.062482
H82   H     H_    0.927328 0.372198 0.802990 0.058667
O46   O     O_3   0.706224 0.485221 0.594125 -0.651910
C89   C     C_3   0.662678 0.422044 0.562689 0.388529
H83   H     H_    0.574603 0.432252 0.533877 0.090665
H84   H     H_    0.639504 0.376149 0.581846 -0.128192
H85   H     H_    0.757104 0.401906 0.539891 0.056677
O47   O     O_3   0.711455 0.634784 0.646203 -0.797757
H86   H     H_    0.671908 0.683206 0.661659 0.294953

loop_
_geom_bond_atom_site_label_1
_geom_bond_atom_site_label_2
_ccdc_geom_bond_type
C68   N2    S    
C53   C54   A    
C47   C48   A    
C48   O44   S    
O36   C83   S    
C54   C59   A    
C1    H5    S    
C32   C35   A    
O40   C84   S    
C60   C75   A    
C34   H45   S    
C73   H37   S    
Ba1   O1    S    
C64   P3    S    
O34   C82   S    
C75   H40   S    
C17   C29   A    
C88   H80   S    
C15   C18   A    
O2    P2    S    
C5    C6    S    
C79   H46   S    
O33   H56   S    
C56   O24   S    
C87   H78   S    
C13   C17   A    
C24   C25   A    
C7    H18   S    
C59   C60   A    
C84   H68   S    
C38   O18   D    
C10   C26   A    
Ba2   O12   S    
C21   C27   A    
O29   C79   S    
C35   C36   A    
C22   C24   A    
O27   P3    S    
C89   H85   S    
C48   C72   A    
C51   O46   S    
C40   C44   D    
C3    C4    S    
C50   H43   S    
C41   C50   S    
C55   C57   A    
C20   P4    S    
C5    H12   S    
O14   P7    D    
C38   C47   A    
C77   O2    S    
C23   H39   S    
C9    C22   A    
C43   O43   S    
C82   H57   S    
C80   H51   S    
C34   C45   S    
C32   C33   A    
O30   C80   S    
C45   H2    S    
C78   O37   S    
C51   C65   D    
O31   H52   S    
C11   H29   S    
C3    H8    S    
C9    C13   A    
C14   H24   S    
C46   C49   A    
C52   C69   A    
O45   C88   S    
C25   C37   A    
C14   C15   A    
C81   H54   S    
C84   H69   S    
C6    H16   S    
C85   H72   S    
Ba2   O5    S    
C71   C76   A    
C2    O29   S    
Ba1   O22   S    
C7    C8    S    
C53   C71   A    
O25   P6    S    
Ba1   O12   S    
C77   C78   S    
Ba1   O5    S    
O7    P4    S    
C57   C58   A    
C79   H47   S    
C19   C20   A    
O28   P3    D    
O26   P2    D    
C56   O31   S    
C6    H15   S    
C42   P7    S    
C46   C70   A    
C5    H13   S    
O6    P8    S    
O16   P8    D    
O46   C89   S    
C45   O30   S    
C7    O17   S    
C24   C32   A    
C15   C16   A    
C12   H31   S    
C2    O25   S    
C52   C54   A    
C23   H11   S    
O5    P4    S    
C84   H67   S    
C85   H70   S    
Ba2   O6    S    
C8    H22   S    
C6    H14   S    
O43   C87   S    
C4    O40   S    
C41   P5    S    
C77   O35   S    
O41   C85   S    
C16   C17   A    
C12   H21   S    
C34   O47   S    
C4    H10   S    
C18   P8    S    
C74   H38   S    
C16   C21   A    
C34   O7    S    
O35   H60   S    
O9    P5    S    
Ba1   P1    S    
C8    H20   S    
C65   C66   D    
C22   C30   A    
O42   C86   S    
C27   C28   A    
C67   H3    S    
O11   P5    S    
O13   P2    S    
C5    O11   S    
O44   H79   S    
C1    O39   S    
C29   C30   A    
C39   O20   D    
C86   H75   S    
C26   H25   S    
C57   H33   S    
C81   H55   S    
C38   N1    Am   
C60   C61   A    
Ba2   O4    S    
C65   P2    S    
C31   H32   S    
O24   P1    S    
C74   C75   A    
O4    P4    D    
C51   C64   S    
C23   H44   S    
Ba1   O13   S    
C67   O34   S    
C53   C74   A    
C40   H36   S    
C46   C47   A    
C28   H30   S    
C63   C64   S    
C79   H48   S    
C11   C13   A    
O17   P8    S    
O8    P7    S    
C27   H26   S    
O22   P6    S    
C40   C41   S    
Ba2   P4    S    
C1    C2    S    
C88   H82   S    
C61   O21   D    
C63   O45   S    
C3    H7    S    
C42   C43   D    
C49   C73   A    
C35   P6    S    
C12   O3    S    
C83   H61   S    
O23   P6    D    
C2    O38   S    
C7    H17   S    
O10   P5    D    
C62   O19   D    
C36   C37   A    
C1    O41   S    
C78   O36   S    
C39   N1    Am   
C44   N1    S    
C56   O32   S    
C10   O42   S    
C86   H74   S    
C70   C71   A    
C88   H81   S    
C66   H41   S    
O15   P7    S    
C69   C72   A    
C9    C10   A    
C56   C67   S    
C55   H34   S    
C87   H77   S    
C4    H9    S    
C78   H6    S    
Ba2   O8    S    
C89   H83   S    
C82   H59   S    
O3    P3    S    
C37   P1    S    
C58   C62   A    
Ba2   O13   S    
C30   C31   A    
O32   C81   S    
C87   H76   S    
C83   H63   S    
C69   C70   A    
C89   H84   S    
C83   H62   S    
C62   N2    Am   
C28   C29   A    
C42   C50   D    
C3    O15   S    
C77   H4    S    
C80   H50   S    
O12   P1    S    
C72   H35   S    
Ba1   Ba2   S    
Ba1   P2    S    
C31   C33   A    
C82   H58   S    
C8    H19   S    
C45   H1    S    
C12   C23   S    
C36   H28   S    
O38   H65   S    
C76   H42   S    
C73   C76   A    
Ba2   O9    S    
Ba1   O26   S    
C33   H27   S    
O1    P1    D    
O37   H64   S    
C19   H23   S    
C43   C44   S    
O39   H66   S    
C18   C19   A    
C66   C68   S    
C81   H53   S    
C80   H49   S    
C11   C14   A    
C67   O33   S    
Ba1   O27   S    
C85   H71   S    
Ba2   O14   S    
C20   C21   A    
C58   C59   A    
Ba1   O8    S    
C39   C49   A    
C61   N2    Am   
C63   C68   D    
O47   H86   S    
C86   H73   S    
C25   C26   A    
C52   C55   A    
