data_mof_unit_42721.cif
_audit_creation_date              2012-12-10T17:56:45-0500
_audit_creation_method            fapswitch 2.2
_symmetry_space_group_name_H-M    P1
_symmetry_Int_Tables_number       1
_space_group_crystal_system       triclinic
_cell_length_a                    10.830536
_cell_length_b                    9.51853
_cell_length_c                    10.785461
_cell_angle_alpha                 90.009275
_cell_angle_beta                  90.406406
_cell_angle_gamma                 90.253245
_cell_volume                      1111.84275497

loop_
_atom_site_label
_atom_site_type_symbol
_atom_type_description
_atom_site_fract_x
_atom_site_fract_y
_atom_site_fract_z
_atom_type_partial_charge
C1    C     C_R   0.262117 0.499405 0.501358 0.828177
C2    C     C_R   0.737794 0.500129 0.502525 0.848769
C3    C     C_R   0.936347 0.614139 0.457763 -0.260490
C4    C     C_R   0.063981 0.613753 0.457767 -0.272463
C5    C     C_R   0.426774 0.074037 0.419211 -0.026000
C6    C     C_R   0.573405 0.074804 0.580643 0.010700
C7    C     C_R   0.426451 0.925226 0.419481 -0.029677
C8    C     C_R   0.573547 0.925974 0.580522 -0.020017
C9    C     C_R   0.494948 0.500001 0.262512 0.779395
C10   C     C_R   0.495009 0.500007 0.737469 0.786657
C11   C     C_R   0.301416 0.652998 0.128117 -0.192137
C12   C     C_R   0.301898 0.654002 0.869381 -0.170880
C13   C     C_R   0.211943 0.727958 0.062679 -0.146248
C14   C     C_R   0.212213 0.728511 0.933725 -0.131519
C15   C     C_R   0.394949 0.579120 0.933744 0.095662
C16   C     C_R   0.394808 0.578821 0.064952 0.100212
C17   C     C_R   0.485496 0.499615 0.128814 -0.095186
C18   C     C_R   0.485429 0.499617 0.871109 -0.090122
C19   C     C_R   0.568887 0.416080 0.064478 -0.202896
C20   C     C_R   0.568449 0.415651 0.936705 -0.212120
C21   C     C_R   0.063989 0.381084 0.552912 0.397571
C22   C     C_R   0.935253 0.386032 0.560316 0.403212
C23   C     C_R   0.871579 0.499946 0.507009 -0.186930
C24   C     C_R   0.128234 0.497709 0.504310 -0.181282
Cu1   Cu    Cu3+1 0.500000 0.640660 0.500000 0.932222
Cu2   Cu    Cu3+1 0.500000 0.359340 0.500000 0.976351
H1    H     H_    0.636625 0.353176 0.113569 0.151530
H2    H     H_    0.635212 0.351692 0.888680 0.137536
H3    H     H_    0.294486 0.651401 0.227993 0.135916
H4    H     H_    0.295412 0.653448 0.769366 0.153225
H5    H     H_    0.141003 0.784152 0.112284 0.128460
H6    H     H_    0.141486 0.785185 0.883246 0.138379
H7    H     H_    0.888235 0.703098 0.417912 0.181810
H8    H     H_    0.112491 0.703097 0.418855 0.168749
H9    H     H_    0.368202 0.129806 0.354407 0.116596
H10   H     H_    0.632123 0.131181 0.645292 0.145414
H11   H     H_    0.367325 0.868937 0.355133 0.115228
H12   H     H_    0.632551 0.870205 0.644959 0.125665
N1    N     N_R   0.500000 0.852070 0.500000 -0.159326
N2    N     N_R   0.500000 0.147940 0.500000 -0.158692
O1    O     O_R   0.319640 0.618740 0.499990 -0.609715
O2    O     O_R   0.680360 0.618740 0.500010 -0.592067
O3    O     O_R   0.319620 0.381170 0.499990 -0.543322
O4    O     O_R   0.680380 0.381170 0.500010 -0.539122
O5    O     O_R   0.500000 0.618810 0.319650 -0.584917
O6    O     O_R   0.500000 0.618810 0.680350 -0.593536
O7    O     O_R   0.499970 0.381240 0.319640 -0.587645
O8    O     O_R   0.500030 0.381240 0.680360 -0.571503
O9    O     O_3   0.127337 0.269245 0.604890 -0.561146
C25   C     C_3   0.118293 0.152585 0.524401 -0.240891
H13   H     H_    0.181484 0.069596 0.558714 0.176733
H14   H     H_    0.146844 0.179713 0.428274 0.127237
H15   H     H_    0.023483 0.107565 0.523521 0.186878
O10   O     O_3   0.872022 0.278064 0.618100 -0.575450
C26   C     C_3   0.866559 0.308166 0.745920 -0.308153
H16   H     H_    0.813590 0.223329 0.792156 0.167543
H17   H     H_    0.818064 0.409114 0.763295 0.134519
H18   H     H_    0.960319 0.310731 0.788745 0.193107

loop_
_geom_bond_atom_site_label_1
_geom_bond_atom_site_label_2
_ccdc_geom_bond_type
Cu1   O2    S    
C10   O6    A    
C15   C18   A    
C25   H14   S    
C26   H16   S    
C9    O5    A    
C8    N1    A    
C13   C14   A    
C19   H1    S    
C11   C16   A    
C3    C23   A    
C19   C20   A    
C5    N2    A    
C12   C15   A    
Cu2   O8    S    
C21   O9    S    
C25   H13   S    
C7    H11   S    
Cu2   O4    S    
C22   O10   S    
C21   C22   A    
Cu1   N1    S    
C13   H5    S    
C11   C13   A    
Cu2   N2    S    
C8    H12   S    
Cu2   O7    S    
C2    O2    A    
C5    H9    S    
C1    O1    A    
C17   C19   A    
C10   C18   S    
Cu2   O3    S    
C9    O7    A    
C18   C20   A    
C26   H17   S    
C10   O8    A    
C4    C24   A    
C4    H8    S    
C26   H18   S    
C25   H15   S    
C3    H7    S    
Cu1   O1    S    
C15   C16   A    
Cu1   O5    S    
C12   C14   A    
C6    N2    A    
C14   H6    S    
C2    O4    A    
C11   H3    S    
C1    C24   S    
O9    C25   S    
C21   C24   A    
C9    C17   S    
C2    C23   S    
C5    C7    A    
C7    N1    A    
C22   C23   A    
C6    C8    A    
C20   H2    S    
C12   H4    S    
Cu1   Cu2   S    
O10   C26   S    
Cu1   O6    S    
C1    O3    A    
C3    C4    A    
C6    H10   S    
C16   C17   A    
