data_mof_unit_46650.cif
_audit_creation_date              2013-03-05T15:50:32-0500
_audit_creation_method            fapswitch 2.2
_symmetry_space_group_name_H-M    P1
_symmetry_Int_Tables_number       1
_space_group_crystal_system       triclinic
_cell_length_a                    19.147354
_cell_length_b                    7.147735
_cell_length_c                    17.673841
_cell_angle_alpha                 89.998639
_cell_angle_beta                  108.979374
_cell_angle_gamma                 89.999806
_cell_volume                      2287.3468208

loop_
_atom_site_label
_atom_site_type_symbol
_atom_site_description
_atom_site_fract_x
_atom_site_fract_y
_atom_site_fract_z
_atom_type_partial_charge
O1    O     O_R   0.562310 0.505770 0.439670 -0.605383
O2    O     O_R   0.437690 0.005770 0.560330 -0.605371
O3    O     O_R   0.411650 0.169150 0.405330 -0.553507
O4    O     O_R   0.588350 0.669150 0.594670 -0.553504
C1    C     C_R   0.384424 0.345770 0.382982 0.846698
C2    C     C_R   0.615576 0.845768 0.617018 0.846672
O5    O     O_R   0.560140 0.175610 0.430010 -0.577332
O6    O     O_R   0.439860 0.675610 0.569990 -0.577300
O7    O     O_R   0.587240 0.012100 0.585200 -0.598340
O8    O     O_R   0.412760 0.512100 0.414800 -0.598333
C3    C     C_R   0.580722 0.344618 0.414540 0.945088
C4    C     C_R   0.419278 0.844615 0.585460 0.945056
O9    O     O_3   0.508720 0.341420 0.550890 -0.268885
O10   O     O_3   0.491280 0.841420 0.449110 -0.268893
V1    V     V_3+5 0.498380 0.063930 0.490560 1.193795
V2    V     V_3+5 0.501620 0.563930 0.509440 1.193814
C5    C     C_R   0.180805 0.062843 0.867974 -0.154473
C6    C     C_R   0.819240 0.562922 0.132080 -0.154525
C7    C     C_R   0.131247 0.916222 0.866195 -0.163084
C8    C     C_R   0.868748 0.416212 0.133800 -0.163097
C9    C     C_R   0.131199 0.757025 0.819556 -0.228263
C10   C     C_R   0.868737 0.256920 0.180372 -0.228218
C11   C     C_R   0.178670 0.745034 0.773790 0.223396
C12   C     C_R   0.821271 0.244934 0.226142 0.223407
C13   C     C_R   0.228966 0.891747 0.776468 0.028546
C14   C     C_R   0.771030 0.391747 0.223528 0.028531
C15   C     C_R   0.231954 0.050003 0.825821 -0.034417
C16   C     C_R   0.768083 0.550083 0.174223 -0.034376
C17   C     C_R   0.176990 0.587519 0.725745 -0.202180
C18   C     C_R   0.822895 0.087318 0.274122 -0.202043
C19   C     C_R   0.224619 0.574521 0.680496 -0.213319
C20   C     C_R   0.775263 0.074321 0.319367 -0.213349
C21   C     C_R   0.274500 0.719317 0.682025 0.191130
C22   C     C_R   0.725440 0.219222 0.317905 0.191119
C23   C     C_R   0.276545 0.878914 0.729954 0.054386
C24   C     C_R   0.723454 0.378920 0.270045 0.054423
C25   C     C_R   0.326107 0.025402 0.731263 0.076049
C26   C     C_R   0.673951 0.525509 0.268803 0.076082
C27   C     C_R   0.330091 0.179740 0.781377 -0.287795
C28   C     C_R   0.669999 0.679919 0.218725 -0.287987
C29   C     C_R   0.285465 0.191381 0.830684 0.336583
C30   C     C_R   0.714600 0.691529 0.169390 0.336469
C31   C     C_R   0.322182 0.707348 0.636253 -0.242481
C32   C     C_R   0.677751 0.207248 0.363668 -0.242418
C33   C     C_R   0.370768 0.854873 0.636013 -0.134045
C34   C     C_R   0.629234 0.354883 0.363988 -0.134038
C35   C     C_R   0.372176 0.013646 0.683643 -0.169896
C36   C     C_R   0.627894 0.513765 0.316436 -0.170034
H1    H     H_    0.179070 0.186141 0.902728 0.172097
H2    H     H_    0.821021 0.686295 0.097384 0.172080
H3    H     H_    0.093185 0.643353 0.817785 0.130327
H4    H     H_    0.906703 0.143165 0.182088 0.130368
H5    H     H_    0.139111 0.473423 0.723597 0.117038
H6    H     H_    0.860723 0.973134 0.276210 0.116966
H7    H     H_    0.222450 0.450904 0.644293 0.123566
H8    H     H_    0.777379 0.950617 0.355508 0.123563
H9    H     H_    0.320341 0.584823 0.599467 0.127196
H10   H     H_    0.679534 0.084626 0.400385 0.127238
H11   H     H_    0.410081 0.127076 0.684644 0.153108
H12   H     H_    0.590045 0.627286 0.315496 0.153127
H13   H     H_    0.370112 0.289065 0.784243 0.200777
H14   H     H_    0.630011 0.789306 0.215898 0.200793
C37   C     C_3   0.748573 0.851433 0.841034 -0.403051
C38   C     C_3   0.251429 0.351464 0.158966 -0.403070
H15   H     H_    0.763176 0.718007 0.874936 0.203978
H16   H     H_    0.236834 0.218041 0.125063 0.203966
H17   H     H_    0.741248 0.957416 0.883987 0.170366
H18   H     H_    0.258748 0.457461 0.116014 0.170356
C39   C     C_3   0.674669 0.830976 0.769936 0.263258
C40   C     C_3   0.325334 0.331018 0.230065 0.263254
H19   H     H_    0.636576 0.942704 0.776936 0.085165
H20   H     H_    0.363418 0.442770 0.223068 0.085200
H21   H     H_    0.835934 0.622242 0.782686 0.178185
H22   H     H_    0.164078 0.122220 0.217306 0.178181
H23   H     H_    0.731150 0.586172 0.674706 0.193667
H24   H     H_    0.268864 0.086151 0.325285 0.193670
C41   C     C_3   0.821469 0.759086 0.751466 -0.327143
C42   C     C_3   0.178537 0.259057 0.248531 -0.327155
C43   C     C_3   0.790932 0.096766 0.763731 -0.363488
C44   C     C_3   0.209057 0.596753 0.236275 -0.363491
C45   C     C_3   0.813104 0.912024 0.811011 0.035561
C46   C     C_3   0.186895 0.412019 0.188990 0.035584
H25   H     H_    0.836086 0.143610 0.741344 0.148463
H26   H     H_    0.163901 0.643570 0.258662 0.148461
H27   H     H_    0.782575 0.208608 0.803748 0.204614
H28   H     H_    0.217410 0.708612 0.196261 0.204581
C47   C     C_3   0.687513 0.865922 0.688103 -0.065500
C48   C     C_3   0.312487 0.365925 0.311898 -0.065488
C49   C     C_3   0.749094 0.734649 0.679606 -0.334265
C50   C     C_3   0.250912 0.234622 0.320390 -0.334261
C51   C     C_3   0.719001 0.070161 0.692207 -0.361088
C52   C     C_3   0.280988 0.570152 0.307800 -0.361138
H29   H     H_    0.677639 0.173394 0.698201 0.219238
H30   H     H_    0.322345 0.673408 0.301811 0.219223
H31   H     H_    0.730088 0.103762 0.635649 0.155695
H32   H     H_    0.269899 0.603721 0.364359 0.155689
H33   H     H_    0.867498 0.797171 0.728908 0.124507
H34   H     H_    0.132506 0.297116 0.271088 0.124515
H35   H     H_    0.760278 0.767800 0.623092 0.128007
H36   H     H_    0.239726 0.267745 0.376905 0.128008
O11   O     O_R   0.087220 0.271820 0.085230 -0.594599
O12   O     O_R   0.912780 0.771820 0.914770 -0.594595
O13   O     O_R   0.939860 0.595540 0.069990 -0.600086
O14   O     O_R   0.060140 0.095540 0.930010 -0.600076
C53   C     C_R   0.918916 0.426588 0.085075 0.937555
C54   C     C_R   0.081083 0.926590 0.914924 0.937529
O15   O     O_R   0.088340 0.601930 0.094680 -0.588435
O16   O     O_R   0.911660 0.101930 0.905320 -0.588432
O17   O     O_R   0.062310 0.765410 0.939660 -0.581865
O18   O     O_R   0.937690 0.265410 0.060340 -0.581889
C55   C     C_R   0.115520 0.431738 0.118256 0.875583
C56   C     C_R   0.884479 0.931740 0.881744 0.875594
O19   O     O_3   0.991270 0.429630 0.949130 -0.283516
O20   O     O_3   0.008730 0.929630 0.050870 -0.283532
V3    V     V_3+5 0.001620 0.707150 0.009440 1.154987
V4    V     V_3+5 0.998380 0.207150 0.990560 1.154994
N1    N     N_R   0.639289 0.649985 0.772550 0.248506
O21   O     O_R   0.572028 0.645104 0.774721 -0.365756
O22   O     O_R   0.675410 0.493887 0.777259 -0.439065
N2    N     N_R   0.360728 0.150048 0.227447 0.248508
O23   O     O_R   0.427988 0.145207 0.225272 -0.365719
O24   O     O_R   0.324620 0.993931 0.222740 -0.439023
N3    N     N_R   0.298269 0.341697 0.887872 0.241120
O25   O     O_R   0.302194 0.306812 0.961412 -0.377015
O26   O     O_R   0.322103 0.502545 0.871921 -0.369900
N4    N     N_R   0.701773 0.841830 0.112176 0.241137
O27   O     O_R   0.697888 0.806915 0.038646 -0.377041
O28   O     O_R   0.677880 0.002671 0.128081 -0.369825

loop_
_geom_bond_atom_site_label_1
_geom_bond_atom_site_label_2
_geom_bond_distance
_ccdc_geom_bond_type
C26   C28   1.401266 A    
C53   O18   1.322805 A    
C37   H15   1.112536 S    
C44   C52   1.548736 S    
N4    O27   1.301460 A    
C47   C51   1.572099 S    
O12   C56   1.317259 A    
O1    C3    1.322962 A    
C9    H3    1.084488 S    
C44   H26   1.112937 S    
C40   C48   1.563971 S    
C2    O7    1.351149 A    
O14   C54   1.326562 A    
O20   V3    1.737449 S    
N3    O25   1.301384 A    
C27   C29   1.407422 A    
C42   C50   1.555351 S    
O5    C3    1.326444 A    
C18   H6    1.083833 S    
C41   C49   1.555354 S    
C49   H35   1.112993 S    
C11   C17   1.404264 A    
C23   C25   1.408246 A    
C12   C14   1.414146 A    
O17   V3    1.994226 S    
N1    O22   1.301041 A    
N3    O26   1.301231 A    
C52   H32   1.113538 S    
C28   H14   1.084051 S    
C6    C8    1.407278 A    
C39   N1    1.467994 S    
C39   H19   1.115233 S    
C15   C29   1.421644 A    
C44   H28   1.112881 S    
O12   V3    2.013811 S    
C5    C7    1.407245 A    
O14   V4    2.000810 S    
C1    C48   1.539722 S    
C48   C52   1.572087 S    
C32   H10   1.084451 S    
C42   H34   1.112794 S    
C19   C21   1.402596 A    
C41   H33   1.112798 S    
C38   C40   1.564031 S    
C25   C35   1.405847 A    
C43   C51   1.548736 S    
C39   C47   1.563969 S    
O19   V4    1.737417 S    
O5    V1    2.000992 S    
O2    C4    1.322960 A    
O6    V2    2.001004 S    
O15   C55   1.335377 A    
C50   H36   1.112995 S    
N2    O24   1.301038 A    
C36   H12   1.084453 S    
C34   C36   1.408046 A    
C33   C35   1.408030 A    
C27   H13   1.084038 S    
C37   H17   1.113154 S    
C21   C31   1.405588 A    
C37   C39   1.564036 S    
C22   C32   1.405577 A    
C44   C46   1.546412 S    
C40   N2    1.467993 S    
C43   C45   1.546405 S    
H23   C49   1.110179 S    
C32   C34   1.407126 A    
C35   H11   1.084458 S    
C2    C47   1.539731 S    
O16   C56   1.335382 A    
C5    C15   1.413239 A    
O4    V2    1.991332 S    
O13   V3    2.000789 S    
C18   C20   1.397947 A    
C51   H29   1.112430 S    
C42   C46   1.561368 S    
C28   C30   1.407426 A    
C45   C56   1.529421 S    
C41   C45   1.561378 S    
O6    C4    1.326437 A    
C38   C46   1.556353 S    
C52   H30   1.112430 S    
C6    C16   1.413226 A    
O13   C53   1.326569 A    
O1    V2    1.993946 S    
O2    V1    1.993929 S    
C31   C33   1.407110 A    
O15   V3    1.991273 S    
C13   C23   1.414695 A    
C14   C24   1.414680 A    
C8    C10   1.404963 A    
C47   C49   1.551918 S    
C10   C12   1.402133 A    
O4    C2    1.373886 A    
C13   C15   1.418181 A    
C30   N4    1.440607 S    
C5    H1    1.080914 S    
C24   C26   1.408266 A    
C38   H18   1.113151 S    
O18   V4    1.994233 S    
C43   H27   1.112887 S    
O3    V1    1.991299 S    
N2    O23   1.301322 A    
C6    H2    1.080930 S    
C10   H4    1.084493 S    
C8    C53   1.485880 S    
N4    O28   1.301408 A    
C37   C45   1.556361 S    
C7    C9    1.404931 A    
C26   C36   1.405839 A    
C48   C50   1.551919 S    
C4    C33   1.485339 S    
O3    C1    1.373879 A    
O11   C55   1.317268 A    
C14   C16   1.418219 A    
C46   C55   1.529418 S    
C29   N3    1.440461 S    
C9    C11   1.402142 A    
O7    V1    1.994673 S    
C1    O8    1.351157 A    
C17   C19   1.397950 A    
C38   H16   1.112535 S    
O8    V2    1.994689 S    
N1    O21   1.301321 A    
C43   H25   1.112941 S    
O16   V4    1.991304 S    
C17   H5    1.083816 S    
C16   C30   1.421707 A    
C21   C23   1.413816 A    
C22   C24   1.413838 A    
C11   C13   1.414115 A    
C12   C18   1.404305 A    
C31   H9    1.084456 S    
C51   H31   1.113532 S    
C7    C54   1.485874 S    
C25   C27   1.401206 A    
H22   C42   1.112862 S    
O9    V2    1.737764 S    
H24   C50   1.110176 S    
O11   V4    2.013833 S    
H21   C41   1.112863 S    
O10   V1    1.737797 S    
C3    C34   1.485352 S    
C40   H20   1.115232 S    
C19   H7    1.083780 S    
C20   H8    1.083792 S    
C20   C22   1.402634 A    
C54   O17   1.322803 A    
