data_mof_unit_31048.cif
_audit_creation_date              2012-12-10T16:50:08-0500
_audit_creation_method            fapswitch 2.2
_symmetry_space_group_name_H-M    P1
_symmetry_Int_Tables_number       1
_space_group_crystal_system       triclinic
_cell_length_a                    23.468579
_cell_length_b                    8.717265
_cell_length_c                    7.459689
_cell_angle_alpha                 102.54758
_cell_angle_beta                  93.399248
_cell_angle_gamma                 91.532448
_cell_volume                      1485.81591451

loop_
_atom_site_label
_atom_site_type_symbol
_atom_type_description
_atom_site_fract_x
_atom_site_fract_y
_atom_site_fract_z
_atom_type_partial_charge
C1    C     C_R   0.496422 0.200148 0.454930 0.836580
C2    C     C_R   0.503824 0.799160 0.544518 0.815027
C3    C     C_R   0.244933 0.569036 0.691873 0.505068
C4    C     C_R   0.756535 0.434800 0.327269 0.496727
C5    C     C_R   0.304584 0.556005 0.684158 -0.347682
C6    C     C_R   0.696990 0.432133 0.331446 -0.304765
C7    C     C_R   0.328985 0.511699 0.513661 -0.074736
C8    C     C_R   0.671081 0.507798 0.489747 -0.098711
C9    C     C_R   0.293618 0.478196 0.350857 -0.222262
C10   C     C_R   0.705067 0.586862 0.644629 -0.255332
C11   C     C_R   0.234873 0.486232 0.357905 -0.215681
C12   C     C_R   0.764173 0.589589 0.642113 -0.191748
C13   C     C_R   0.210395 0.530199 0.526957 0.298482
C14   C     C_R   0.790537 0.512187 0.485631 0.234659
C15   C     C_2   0.487486 0.033227 0.437080 0.131466
C16   C     C_2   0.515572 0.964202 0.558939 0.154237
C17   C     C_R   0.391167 0.502480 0.504165 0.825792
C18   C     C_R   0.608812 0.501750 0.496510 0.794075
C19   C     C_R   0.881864 0.654441 0.525560 0.511640
C20   C     C_R   0.119755 0.388746 0.494331 0.551964
C21   C     C_R   0.879288 0.373636 0.459789 0.593160
C22   C     C_R   0.122346 0.668920 0.561239 0.584703
C23   C     C_R   0.939366 0.372431 0.457612 -0.106469
C24   C     C_R   0.062107 0.669374 0.555403 -0.098434
C25   C     C_R   0.970564 0.518447 0.501935 -0.090623
C26   C     C_R   0.030850 0.523626 0.511642 -0.072016
C27   C     C_R   0.941560 0.659818 0.536281 -0.045105
C28   C     C_R   0.059875 0.382817 0.478882 -0.068756
C29   C     C_R   0.968802 0.230815 0.410714 0.453078
C30   C     C_R   0.032368 0.810065 0.592329 0.402956
C31   C     C_R   0.028988 0.238667 0.429118 -0.304758
C32   C     C_R   0.972555 0.803944 0.580308 -0.266723
Cu1   Cu    Cu3+1 0.506340 0.517380 0.684380 0.937918
Cu2   Cu    Cu3+1 0.493660 0.482620 0.315620 0.942912
H1    H     H_    0.052339 0.132192 0.402153 0.219708
H2    H     H_    0.950470 0.913191 0.605027 0.224136
H3    H     H_    0.331818 0.579165 0.810039 0.154044
H4    H     H_    0.671075 0.367646 0.212683 0.170880
H5    H     H_    0.311208 0.443607 0.217680 0.169010
H6    H     H_    0.685923 0.646471 0.768088 0.158194
H7    H     H_    0.208212 0.457058 0.231215 0.165532
H8    H     H_    0.789737 0.650563 0.763568 0.158500
H9    H     H_    0.455408 0.380849 0.949888 0.231616
H10   H     H_    0.544539 0.619300 0.050152 0.216880
N1    N     N_R   0.851933 0.513048 0.489336 -0.476323
N2    N     N_R   0.149438 0.529798 0.529938 -0.446222
N3    N     N_2   0.484110 0.456420 0.038520 -0.215431
N4    N     N_2   0.515890 0.543580 0.961480 -0.232573
O1    O     O_R   0.504120 0.286130 0.619770 -0.548559
O2    O     O_R   0.495880 0.713870 0.380230 -0.582778
O3    O     O_R   0.493410 0.256770 0.308360 -0.598782
O4    O     O_R   0.506590 0.743230 0.691640 -0.593161
O5    O     O_R   0.423230 0.514630 0.655730 -0.598851
O6    O     O_R   0.576770 0.485370 0.344270 -0.588691
O7    O     O_R   0.412530 0.485280 0.344320 -0.586374
O8    O     O_R   0.587470 0.514720 0.655680 -0.593608
O9    O     O_2   0.853771 0.789864 0.550518 -0.536219
O10   O     O_2   0.148332 0.254411 0.474229 -0.565218
O11   O     O_2   0.848336 0.237359 0.437314 -0.456973
O12   O     O_2   0.153799 0.805187 0.597033 -0.515103
O13   O     O_3   0.937673 0.087813 0.355254 -0.560206
C33   C     C_3   0.963377 0.980779 0.215360 0.043826
H11   H     H_    0.998864 0.923669 0.277164 0.175704
H12   H     H_    0.980061 0.040689 0.110752 0.106326
C34   C     C_3   0.919407 0.852599 0.117602 -0.296358
H13   H     H_    0.891442 0.818648 0.218687 0.262849
H14   H     H_    0.892084 0.898327 0.015737 0.219280
C35   C     C_3   0.948648 0.706493 0.019236 -0.949454
H15   H     H_    0.981971 0.738955 0.933212 0.259770
H16   H     H_    0.916667 0.624484 0.929494 0.256031
H17   H     H_    0.968930 0.645638 0.121367 0.261849
O14   O     O_3   0.061673 0.953959 0.626061 -0.573921
C36   C     C_3   0.056405 0.032277 0.810098 0.059553
H18   H     H_    0.067672 0.954793 0.906953 0.130320
H19   H     H_    0.012133 0.072524 0.828745 0.123215
C37   C     C_3   0.097076 0.176422 0.854321 -0.251919
H20   H     H_    0.141633 0.140706 0.830892 0.263254
H21   H     H_    0.084892 0.256642 0.764561 0.242768
C38   C     C_3   0.093762 0.265491 0.051076 -0.960360
H22   H     H_    0.049154 0.298905 0.077120 0.254774
H23   H     H_    0.121178 0.374525 0.076314 0.266012
H24   H     H_    0.108834 0.189669 0.144035 0.290604
O15   O     O_3   0.218296 0.605391 0.856579 -0.613569
C39   C     C_3   0.246229 0.734595 0.981471 0.029863
H25   H     H_    0.262752 0.825260 0.910298 0.154957
H26   H     H_    0.282107 0.692092 0.059465 0.149892
C40   C     C_3   0.203687 0.812133 0.117135 -0.319226
H27   H     H_    0.169355 0.863350 0.042060 0.228808
H28   H     H_    0.183606 0.722430 0.181434 0.230230
C41   C     C_3   0.232917 0.941565 0.268195 -0.809636
H29   H     H_    0.267728 0.893043 0.344126 0.254309
H30   H     H_    0.201265 0.991691 0.367080 0.320256
H31   H     H_    0.250841 0.036949 0.208148 0.245620
O16   O     O_3   0.780665 0.345768 0.176278 -0.568390
C42   C     C_3   0.803092 0.445728 0.069921 0.018273
H32   H     H_    0.835156 0.534037 0.150866 0.150106
H33   H     H_    0.768079 0.509700 0.014865 0.101343
C43   C     C_3   0.831840 0.346746 0.907629 -0.290585
H34   H     H_    0.800683 0.256824 0.825009 0.246328
H35   H     H_    0.845902 0.424497 0.818416 0.167944
C44   C     C_3   0.883964 0.265666 0.969677 -0.735301
H36   H     H_    0.916055 0.354007 0.049852 0.218574
H37   H     H_    0.903930 0.197940 0.847222 0.235026
H38   H     H_    0.871135 0.183142 0.055572 0.300738
O17   O     O_3   0.440125 0.955743 0.330491 -0.633947
C45   C     C_3   0.445441 0.943180 0.139851 0.121143
H39   H     H_    0.443741 0.816074 0.072647 0.179039
H40   H     H_    0.486507 0.992877 0.104297 0.149188
C46   C     C_3   0.394513 0.019317 0.060995 -0.364542
H41   H     H_    0.354276 0.961380 0.089028 0.212391
H42   H     H_    0.394280 0.145853 0.129617 0.236854
C47   C     C_3   0.396329 0.004369 0.853959 -0.884650
H43   H     H_    0.435089 0.067452 0.823903 0.271871
H44   H     H_    0.358130 0.057634 0.801360 0.254238
H45   H     H_    0.396381 0.878635 0.781945 0.260286
O18   O     O_3   0.555716 0.047066 0.692625 -0.589309
C48   C     C_3   0.609360 0.976658 0.672916 0.054085
H46   H     H_    0.624037 0.972096 0.532478 0.119306
H47   H     H_    0.607401 0.855343 0.697173 0.114918
C49   C     C_3   0.653749 0.070536 0.815730 -0.330163
H48   H     H_    0.639961 0.073355 0.956422 0.213357
H49   H     H_    0.695137 0.011295 0.801750 0.189924
C50   C     C_3   0.662359 0.238133 0.790698 -0.717638
H50   H     H_    0.622776 0.303158 0.819446 0.293600
H51   H     H_    0.674132 0.237442 0.648596 0.240276
H52   H     H_    0.697174 0.299439 0.888553 0.230015

loop_
_geom_bond_atom_site_label_1
_geom_bond_atom_site_label_2
_ccdc_geom_bond_type
C40   H27   S    
C23   C29   A    
C44   H36   S    
C5    H3    S    
C36   H18   S    
C42   H32   S    
C37   C38   S    
C47   H44   S    
C42   C43   S    
C50   H50   S    
C19   O9    S    
Cu1   O4    S    
Cu2   O3    S    
C32   H2    S    
C24   C26   A    
C21   O11   S    
C48   H47   S    
C22   O12   S    
C13   N2    S    
C10   C12   A    
C50   H51   S    
C45   H39   S    
Cu1   O1    S    
C15   C16   D    
C9    H5    S    
O18   C48   S    
C10   H6    S    
C33   H12   S    
C2    O2    A    
N3    N4    D    
C35   H15   S    
C34   H14   S    
C1    O1    A    
C12   H8    S    
C39   C40   S    
C1    C15   S    
C2    C16   S    
C17   O7    A    
C3    C13   A    
C49   C50   S    
C18   O8    A    
Cu1   O8    S    
Cu2   O7    S    
C44   H37   S    
C36   H19   S    
O16   C42   S    
C16   O18   S    
C47   H43   S    
C49   H49   S    
C14   N1    S    
C21   N1    A    
C21   C23   A    
Cu1   O5    S    
C29   O13   S    
Cu2   O2    S    
C37   H20   S    
C4    C6    A    
C48   C49   S    
C5    C7    A    
C50   H52   S    
C6    C8    A    
C20   C28   A    
C7    C17   S    
C25   C26   A    
C8    C18   S    
C33   H11   S    
C1    O3    A    
C41   H30   S    
O15   C39   S    
C34   C35   S    
C19   N1    A    
Cu1   Cu2   S    
C39   H25   S    
C9    C11   A    
C2    O4    A    
C4    O16   S    
C8    C10   A    
C22   N2    A    
C12   C14   A    
Cu2   O6    S    
C44   H38   S    
C43   H35   S    
C40   H28   S    
C3    O15   S    
C36   C37   S    
C22   C24   A    
C46   C47   S    
C34   H13   S    
C20   O10   S    
C17   O5    A    
C19   C27   A    
C49   H48   S    
C41   H31   S    
C38   H23   S    
C7    C9    A    
C33   C34   S    
C27   C32   A    
C28   C31   A    
C37   H21   S    
O14   C36   S    
C3    C5    A    
C38   H24   S    
C30   O14   S    
C42   H33   S    
C25   C27   A    
C43   C44   S    
O17   C45   S    
C26   C28   A    
C15   O17   S    
C46   H42   S    
C29   C31   A    
C48   H46   S    
C30   C32   A    
C11   C13   A    
C41   H29   S    
C45   H40   S    
C35   H17   S    
C11   H7    S    
C31   H1    S    
C23   C25   A    
C4    C14   A    
O13   C33   S    
C24   C30   A    
C18   O6    A    
C38   H22   S    
C35   H16   S    
C43   H34   S    
C40   C41   S    
Cu1   N4    S    
C39   H26   S    
Cu2   N3    S    
C6    H4    S    
C46   H41   S    
H9    N3    S    
C47   H45   S    
C20   N2    A    
H10   N4    S    
C45   C46   S    
