data_mof_unit_48918.cif
_audit_creation_date              2012-12-11T15:09:43-0500
_audit_creation_method            fapswitch 2.2
_symmetry_space_group_name_H-M    P1
_symmetry_Int_Tables_number       1
_space_group_crystal_system       triclinic
_cell_length_a                    20.97506
_cell_length_b                    7.123826
_cell_length_c                    14.024955
_cell_angle_alpha                 90.000022
_cell_angle_beta                  98.395476
_cell_angle_gamma                 89.999979
_cell_volume                      2073.18910159

loop_
_atom_site_label
_atom_site_type_symbol
_atom_type_description
_atom_site_fract_x
_atom_site_fract_y
_atom_site_fract_z
_atom_type_partial_charge
O1    O     O_R   0.447130 0.507140 0.597350 -0.559208
O2    O     O_R   0.552870 0.007140 0.402650 -0.559208
O3    O     O_R   0.578910 0.181280 0.586990 -0.535358
O4    O     O_R   0.421090 0.681280 0.413010 -0.535358
C1    C     C_R   0.604510 0.344471 0.607348 0.747404
C2    C     C_R   0.395490 0.844471 0.392652 0.747404
O5    O     O_R   0.449230 0.177860 0.608640 -0.529260
O6    O     O_R   0.550770 0.677860 0.391360 -0.529261
O7    O     O_R   0.422260 0.000770 0.424450 -0.548179
O8    O     O_R   0.577740 0.500770 0.575550 -0.548179
C3    C     C_R   0.432087 0.346874 0.633509 0.792944
C4    C     C_R   0.567913 0.846874 0.366491 0.792944
O9    O     O_3   0.491310 0.336980 0.439550 -0.385686
O10   O     O_3   0.508690 0.836980 0.560450 -0.385685
V1    V     V_3+5 0.501610 0.064760 0.511210 1.430731
V2    V     V_3+5 0.498390 0.564760 0.488790 1.430731
C5    C     C_R   0.616946 0.948768 0.126143 0.406059
C6    C     C_R   0.383054 0.448768 0.873857 0.406059
C7    C     C_R   0.609135 0.864405 0.291475 -0.291239
C8    C     C_R   0.390865 0.364406 0.708525 -0.291239
C9    C     C_R   0.918420 0.850669 0.303331 0.291796
C10   C     C_R   0.081579 0.350672 0.696669 0.291797
C11   C     C_R   0.883465 0.893545 0.377151 -0.186776
C12   C     C_R   0.116535 0.393548 0.622849 -0.186779
C13   C     C_R   0.818191 0.937211 0.356810 0.483085
C14   C     C_R   0.181809 0.437212 0.643190 0.483084
C15   C     C_R   0.784378 0.909479 0.262387 -0.023072
C16   C     C_R   0.215622 0.409479 0.737613 -0.023071
C17   C     C_R   0.821256 0.900149 0.185193 -0.194068
C18   C     C_R   0.178744 0.400148 0.814806 -0.194069
C19   C     C_R   0.715596 0.905390 0.242147 -0.085063
C20   C     C_R   0.284404 0.405390 0.757852 -0.085062
C21   C     C_R   0.685214 0.950707 0.147187 -0.236277
C22   C     C_R   0.314785 0.450707 0.852813 -0.236278
C23   C     C_R   0.724547 0.990610 0.076018 0.396623
C24   C     C_R   0.275453 0.490608 0.923982 0.396622
C25   C     C_R   0.789777 0.938852 0.090545 0.366525
C26   C     C_R   0.210223 0.438850 0.909455 0.366525
C27   C     C_R   0.677136 0.848427 0.312916 0.403180
C28   C     C_R   0.322864 0.348428 0.687084 0.403181
C29   C     C_R   0.579765 0.921831 0.200062 0.310313
C30   C     C_R   0.420235 0.421831 0.799938 0.310313
C31   C     C_R   0.888939 0.865008 0.206953 -0.160128
C32   C     C_R   0.111061 0.365008 0.793047 -0.160128
H1    H     H_    0.907941 0.904628 0.450489 0.201598
H2    H     H_    0.092058 0.404632 0.549511 0.201599
C33   C     C_1   0.166486 0.856965 0.168593 -0.122216
C34   C     C_1   0.833514 0.356965 0.831407 -0.122215
C35   C     C_1   0.218872 0.854759 0.219762 0.064979
C36   C     C_1   0.781128 0.354759 0.780238 0.064979
C37   C     C_1   0.280627 0.853382 0.279749 0.053303
C38   C     C_1   0.719373 0.353382 0.720251 0.053303
C39   C     C_1   0.333035 0.851065 0.330863 -0.173480
C40   C     C_1   0.666965 0.351065 0.669137 -0.173480
O11   O     O_R   0.922300 0.202240 0.924350 -0.509073
O12   O     O_R   0.077700 0.702240 0.075650 -0.509073
O13   O     O_R   0.050780 0.535130 0.891350 -0.528146
O14   O     O_R   0.949220 0.035130 0.108650 -0.528146
C41   C     C_R   0.068920 0.368660 0.867446 0.880580
C42   C     C_R   0.931080 0.868660 0.132554 0.880580
O15   O     O_R   0.921100 0.531560 0.912990 -0.562448
O16   O     O_R   0.078900 0.031560 0.087010 -0.562448
O17   O     O_R   0.947120 0.708470 0.097370 -0.544948
O18   O     O_R   0.052880 0.208470 0.902630 -0.544948
C43   C     C_R   0.895925 0.363511 0.893307 0.746637
C44   C     C_R   0.104075 0.863511 0.106692 0.746635
O19   O     O_3   0.008710 0.375800 0.060400 -0.379265
O20   O     O_3   0.991290 0.875800 0.939600 -0.379265
V3    V     V_3+5 0.998380 0.648080 0.988790 1.545162
V4    V     V_3+5 0.001620 0.148080 0.011210 1.545162
O21   O     O_3   0.513089 0.927086 0.180043 -0.524818
C45   C     C_3   0.492818 0.116126 0.178408 -0.023964
H3    H     H_    0.511642 0.197252 0.120841 0.205723
H4    H     H_    0.507461 0.185792 0.249102 0.104522
H5    H     H_    0.439425 0.119684 0.163144 0.182846
O22   O     O_3   0.486911 0.427086 0.819957 -0.524818
C46   C     C_3   0.507181 0.616126 0.821592 -0.023963
H6    H     H_    0.488357 0.697254 0.879158 0.205721
H7    H     H_    0.492540 0.685791 0.750898 0.104523
H8    H     H_    0.560575 0.619685 0.836859 0.182848
Cl1   Cl    Cl    0.698190 0.129470 0.972895 -0.567385
Cl2   Cl    Cl    0.301809 0.629469 0.027105 -0.567385
Cl3   Cl    Cl    0.574486 0.948994 0.007391 -0.521644
Cl4   Cl    Cl    0.425514 0.448995 0.992609 -0.521644
O23   O     O_3   0.706012 0.739954 0.390407 -0.549268
C47   C     C_3   0.693121 0.805817 0.480913 -0.120955
H9    H     H_    0.655827 0.717885 0.506844 0.122655
H10   H     H_    0.679418 0.956967 0.481048 0.125782
H11   H     H_    0.737267 0.788036 0.534260 0.175262
O24   O     O_3   0.293988 0.239954 0.609592 -0.549268
C48   C     C_3   0.306878 0.305818 0.519087 -0.120954
H12   H     H_    0.344173 0.217887 0.493156 0.122655
H13   H     H_    0.320582 0.456969 0.518952 0.125782
H14   H     H_    0.262733 0.288037 0.465740 0.175262
Cl5   Cl    Cl    0.001550 0.804644 0.333811 -0.640061
Cl6   Cl    Cl    0.998450 0.304648 0.666188 -0.640060
O25   O     O_3   0.790269 0.024456 0.428277 -0.554546
C49   C     C_3   0.784730 0.218340 0.408092 -0.205596
H15   H     H_    0.750013 0.245947 0.341742 0.138828
H16   H     H_    0.832439 0.281997 0.401798 0.164903
H17   H     H_    0.765862 0.288859 0.468753 0.171485
O26   O     O_3   0.209731 0.524457 0.571723 -0.554547
C50   C     C_3   0.215268 0.718342 0.591907 -0.205597
H18   H     H_    0.249983 0.745952 0.658259 0.138829
H19   H     H_    0.167558 0.781996 0.598196 0.164906
H20   H     H_    0.234138 0.788860 0.531248 0.171484
O27   O     O_3   0.824062 0.952743 0.013770 -0.549925
C51   C     C_3   0.808262 0.797969 0.952048 -0.147065
H21   H     H_    0.756670 0.798718 0.919464 0.170948
H22   H     H_    0.820023 0.663059 0.990680 0.113180
H23   H     H_    0.837069 0.807187 0.891935 0.162062
O28   O     O_3   0.175938 0.452739 0.986230 -0.549925
C52   C     C_3   0.191738 0.297966 0.047952 -0.147064
H24   H     H_    0.243330 0.298715 0.080535 0.170948
H25   H     H_    0.179977 0.163056 0.009319 0.113180
H26   H     H_    0.162932 0.307183 0.108066 0.162062

loop_
_geom_bond_atom_site_label_1
_geom_bond_atom_site_label_2
_ccdc_geom_bond_type
C11   H1    S    
C15   C17   A    
O1    C3    A    
O2    C4    A    
C2    O7    A    
O25   C49   S    
C23   Cl1   S    
C33   C35   T    
O15   V3    S    
C46   H6    S    
O5    C3    A    
O19   V3    S    
C18   C26   A    
C41   O18   A    
C42   O17   A    
C23   C25   A    
C12   C14   A    
C25   O27   S    
C6    C30   A    
C8    C28   A    
C47   H10   S    
O13   C41   A    
C32   C41   S    
O14   C42   A    
C51   H21   S    
O16   V4    S    
C9    C31   A    
C10   C32   A    
O17   V3    S    
C24   Cl2   S    
O20   V3    S    
C35   C37   S    
C6    Cl4   S    
O27   C51   S    
C19   C21   A    
O18   V4    S    
C34   C43   S    
C33   C44   S    
C29   O21   S    
C52   H26   S    
C34   C36   T    
O6    V2    S    
C17   C31   A    
C18   C32   A    
C5    C21   A    
C45   H5    S    
O28   C52   S    
O11   C43   A    
C38   C40   T    
C46   H7    S    
C3    C8    S    
O16   C44   A    
C15   C19   A    
C1    C40   S    
C16   C20   A    
O22   C46   S    
C45   H4    S    
C48   H12   S    
C47   H9    S    
O14   V4    S    
C9    Cl5   S    
O23   C47   S    
C37   C39   T    
C20   C22   A    
O4    V2    S    
C48   H13   S    
C36   C38   S    
O6    C4    A    
C14   C16   A    
C50   H19   S    
O1    V2    S    
O2    V1    S    
C6    C22   A    
C7    C27   A    
C31   C42   S    
O4    C2    A    
C5    Cl3   S    
O12   V3    S    
C49   H16   S    
C9    C11   A    
C10   C12   A    
C27   O23   S    
C2    C39   S    
C26   O28   S    
C24   C26   A    
O3    V1    S    
C52   H24   S    
C46   H8    S    
C13   O25   S    
C10   Cl6   S    
C45   H3    S    
O3    C1    A    
C47   H11   S    
C8    C30   A    
C13   C15   A    
C49   H17   S    
C30   O22   S    
C51   H23   S    
O19   V4    S    
C28   O24   S    
C16   C18   A    
O7    V1    S    
C12   H2    S    
O21   C45   S    
O8    V2    S    
C14   O26   S    
C48   H14   S    
O24   C48   S    
O12   C44   A    
C4    C7    S    
O5    V1    S    
C21   C23   A    
C51   H22   S    
C50   H20   S    
C22   C24   A    
C20   C28   A    
O26   C50   S    
C5    C29   A    
O11   V4    S    
O15   C43   A    
C1    O8    A    
C11   C13   A    
O20   V4    S    
C49   H15   S    
O9    V2    S    
C17   C25   A    
C50   H18   S    
C19   C27   A    
O10   V1    S    
O13   V3    S    
C7    C29   A    
C52   H25   S    
