data_mof_unit_23926.cif
_audit_creation_date              2012-12-10T18:07:36-0500
_audit_creation_method            fapswitch 2.2
_symmetry_space_group_name_H-M    P1
_symmetry_Int_Tables_number       1
_space_group_crystal_system       triclinic
_cell_length_a                    11.569198
_cell_length_b                    12.646864
_cell_length_c                    13.134111
_cell_angle_alpha                 81.616493
_cell_angle_beta                  91.520615
_cell_angle_gamma                 102.789684
_cell_volume                      1853.9682862

loop_
_atom_site_label
_atom_site_type_symbol
_atom_type_description
_atom_site_fract_x
_atom_site_fract_y
_atom_site_fract_z
_atom_type_partial_charge
C1    C     C_R   0.478877 0.438614 0.691075 0.853816
C2    C     C_R   0.521531 0.599917 0.196906 -0.156665
C3    C     C_R   0.457969 0.291617 0.841402 -0.149901
C4    C     C_R   0.451307 0.258733 0.947261 -0.113047
C5    C     C_R   0.451318 0.335693 0.013080 -0.197111
C6    C     C_R   0.454712 0.446258 0.973037 0.103665
C7    C     C_R   0.434144 0.472003 0.867254 0.085606
C8    C     C_R   0.474318 0.531743 0.034430 0.053588
C9    C     C_R   0.443914 0.632667 0.994624 0.053636
C10   C     C_R   0.399908 0.648349 0.895133 -0.196366
C11   C     C_R   0.395672 0.569211 0.831732 -0.182059
C12   C     C_R   0.717853 0.501237 0.500296 0.902848
C13   C     C_R   0.529101 0.523137 0.131582 0.072453
C14   C     C_R   0.501064 0.703050 0.154120 0.345481
C15   C     C_R   0.452916 0.399332 0.800545 -0.145564
C16   C     C_R   0.298474 0.078401 0.376341 0.298936
C17   C     C_R   0.643252 0.805482 0.628475 0.250045
C18   C     C_R   0.644978 0.899343 0.676346 0.082368
C19   C     C_R   0.570319 0.969227 0.638108 0.335832
C20   C     C_R   0.509142 0.953558 0.545321 -0.081251
C21   C     C_R   0.494787 0.850212 0.511874 0.090638
C22   C     C_R   0.456430 0.034184 0.487860 -0.034169
C23   C     C_R   0.516708 0.561838 0.308238 0.884932
C24   C     C_R   0.364564 0.001460 0.417345 0.019660
C25   C     C_R   0.345619 0.894445 0.389099 0.155645
C26   C     C_R   0.414639 0.823528 0.434335 -0.075951
C27   C     C_R   0.496640 0.147151 0.495047 -0.020678
C28   C     C_R   0.341158 0.189431 0.386081 0.213961
C29   C     C_R   0.282175 0.498889 0.499442 0.869817
C30   C     C_1   0.839112 0.503360 0.500349 -0.176825
C31   C     C_1   0.941049 0.502015 0.499773 0.018312
C32   C     C_1   0.059151 0.498815 0.498968 0.014518
C33   C     C_1   0.161015 0.497163 0.498753 -0.176305
C34   C     C_R   0.462364 0.718577 0.053122 -0.236419
H1    H     H_    0.573989 0.176708 0.539245 0.192788
H2    H     H_    0.406196 0.747399 0.406113 0.221414
H3    H     H_    0.373076 0.723670 0.864899 0.169037
H4    H     H_    0.445931 0.797715 0.020509 0.193095
H5    H     H_    0.467621 0.233276 0.791635 0.227835
H6    H     H_    0.445826 0.307455 0.094736 0.160036
H7    H     H_    0.450993 0.174582 0.978497 0.177703
H8    H     H_    0.360196 0.584351 0.755308 0.177840
N1    N     N_R   0.440320 0.222190 0.444690 -0.131763
N2    N     N_R   0.559060 0.776980 0.554780 -0.132798
O1    O     O_R   0.471500 0.366730 0.627160 -0.582882
O2    O     O_R   0.509620 0.544830 0.662520 -0.628471
O3    O     O_R   0.646490 0.410960 0.482310 -0.602446
O4    O     O_R   0.684610 0.589050 0.517670 -0.611923
O5    O     O_R   0.490380 0.455170 0.337480 -0.628736
O6    O     O_R   0.528500 0.633270 0.372840 -0.576147
O7    O     O_R   0.315390 0.410950 0.482330 -0.608753
O8    O     O_R   0.353510 0.589040 0.517690 -0.642144
Zn1   Zn    Zn3+2 0.474550 0.381080 0.476390 0.961036
Zn2   Zn    Zn3+2 0.525450 0.618920 0.523610 0.951879
Cl1   Cl    Cl    0.535840 0.818700 0.218005 -0.629276
C35   C     C_3   0.264804 0.855504 0.303132 -0.722589
H9    H     H_    0.282369 0.779949 0.278861 0.215393
H10   H     H_    0.171141 0.834101 0.329417 0.270721
H11   H     H_    0.278616 0.918606 0.233720 0.274740
Cl2   Cl    Cl    0.152947 0.038276 0.326954 -0.640518
C36   C     C_3   0.735915 0.738683 0.656396 -0.747830
H12   H     H_    0.791650 0.744124 0.587690 0.249704
H13   H     H_    0.798822 0.767784 0.716233 0.202065
H14   H     H_    0.695761 0.653172 0.687377 0.261503
Cl3   Cl    Cl    0.532611 0.058146 0.718120 -0.695166
C37   C     C_3   0.724704 0.923821 0.767571 -0.786037
H15   H     H_    0.819017 0.939856 0.743665 0.231119
H16   H     H_    0.715115 0.997401 0.799900 0.289201
H17   H     H_    0.705038 0.853357 0.830461 0.242571
C38   C     C_3   0.619098 0.452110 0.157601 -0.824536
H18   H     H_    0.694495 0.495659 0.200620 0.235918
H19   H     H_    0.579383 0.373780 0.206179 0.252200
H20   H     H_    0.658103 0.435323 0.086929 0.242572
C39   C     C_3   0.270551 0.267820 0.331047 -0.707122
H21   H     H_    0.312348 0.354015 0.322300 0.256401
H22   H     H_    0.253748 0.251289 0.250557 0.223812
H23   H     H_    0.184286 0.256325 0.370977 0.255108

loop_
_geom_bond_atom_site_label_1
_geom_bond_atom_site_label_2
_ccdc_geom_bond_type
C16   C28   A    
C37   H16   S    
C21   C26   A    
C8    C13   A    
C19   C20   A    
C25   C35   S    
C12   O4    A    
C28   C39   S    
C7    C11   A    
O6    Zn2   S    
C39   H22   S    
C10   H3    S    
C5    C6    A    
C1    O2    A    
C23   O5    A    
C37   H17   S    
C13   C38   S    
C29   C33   S    
C35   H9    S    
C11   H8    S    
C18   C19   A    
C16   Cl2   S    
C36   H13   S    
C2    C13   A    
C17   C36   S    
N1    Zn1   S    
C8    C9    A    
C39   H23   S    
C19   Cl3   S    
C38   H18   S    
C1    C15   S    
C9    C10   A    
O3    Zn1   S    
C7    C15   A    
C14   Cl1   S    
O1    Zn1   S    
C16   C24   A    
C12   O3    A    
O8    Zn2   S    
C39   H21   S    
C24   C25   A    
C23   O6    A    
C6    C8    A    
C27   H1    S    
C25   C26   A    
O7    Zn1   S    
C36   H14   S    
O4    Zn2   S    
N2    Zn2   S    
C21   N2    A    
C31   C32   S    
O2    Zn2   S    
C38   H20   S    
C17   C18   A    
C26   H2    S    
C20   C22   A    
C22   C27   A    
C9    C34   A    
C22   C24   A    
C3    C4    A    
C3    C15   A    
C29   O7    A    
C12   C30   S    
C34   H4    S    
C4    C5    A    
C14   C34   A    
C6    C7    A    
C18   C37   S    
C28   N1    A    
C35   H11   S    
C32   C33   T    
C17   N2    A    
C1    O1    A    
C30   C31   T    
O5    Zn1   S    
C35   H10   S    
C37   H15   S    
C36   H12   S    
C2    C14   A    
C10   C11   A    
C3    H5    S    
C27   N1    A    
C20   C21   A    
C4    H7    S    
C5    H6    S    
C2    C23   S    
C38   H19   S    
C29   O8    A    
