data_mof_unit_64483.cif
_audit_creation_date              2012-10-26T17:55:13-0400
_audit_creation_method            fapswitch 2.2
_symmetry_space_group_name_H-M    P1
_symmetry_Int_Tables_number       1
_space_group_crystal_system       tetragonal
_cell_length_a                    21.755222
_cell_length_b                    21.755222
_cell_length_c                    29.362515
_cell_angle_alpha                 90.0
_cell_angle_beta                  90.0
_cell_angle_gamma                 90.0
_cell_volume                      13896.9754537

loop_
_atom_site_label
_atom_site_type_symbol
_atom_type_description
_atom_site_fract_x
_atom_site_fract_y
_atom_site_fract_z
_atom_type_partial_charge
C1    C     C_R   0.381496 1.000000 0.000000 0.630788
C2    C     C_R   0.120330 0.000000 0.000000 0.571088
C3    C     C_R   0.000000 0.120330 1.000000 0.571089
C4    C     C_R   0.879670 1.000000 1.000000 0.571088
C5    C     C_R   0.500000 0.379670 0.500000 0.571088
C6    C     C_R   0.620330 0.500000 0.500000 0.571089
C7    C     C_R   0.500000 0.620330 0.500000 0.571089
C8    C     C_R   0.379670 0.500000 0.500000 0.571088
C9    C     C_R   0.500000 1.000000 0.084612 0.622275
C10   C     C_R   0.000000 0.500000 0.084612 0.622275
C11   C     C_R   0.500000 0.000000 0.915388 0.622275
C12   C     C_R   1.000000 0.381496 1.000000 0.630788
C13   C     C_R   1.000000 0.500000 0.915388 0.622275
C14   C     C_R   0.000000 0.500000 0.584612 0.622275
C15   C     C_R   0.500000 1.000000 0.584612 0.622275
C16   C     C_R   0.000000 0.500000 0.415388 0.622275
C17   C     C_R   0.500000 0.000000 0.415388 0.622275
C18   C     C_1   0.500000 1.000000 0.135889 0.104671
C19   C     C_1   0.000000 0.500000 0.135889 0.104671
C20   C     C_1   0.500000 0.000000 0.864111 0.104671
C21   C     C_1   1.000000 0.500000 0.864111 0.104671
C22   C     C_1   1.000000 0.500000 0.635889 0.104671
C23   C     C_R   0.618504 0.000000 1.000000 0.630789
C24   C     C_1   0.500000 1.000000 0.635889 0.104671
C25   C     C_1   0.000000 0.500000 0.364111 0.104671
C26   C     C_1   0.500000 0.000000 0.364111 0.104671
C27   C     C_1   0.500000 1.000000 0.178367 0.033685
C28   C     C_1   0.000000 0.500000 0.178367 0.033685
C29   C     C_1   0.500000 0.000000 0.821633 0.033686
C30   C     C_1   1.000000 0.500000 0.821633 0.033686
C31   C     C_1   1.000000 0.500000 0.678367 0.033685
C32   C     C_1   0.500000 0.000000 0.678367 0.033685
C33   C     C_1   0.000000 0.500000 0.321633 0.033686
C34   C     C_R   1.000000 0.618504 1.000000 0.630789
C35   C     C_1   0.500000 1.000000 0.321633 0.033686
C36   C     C_1   0.500000 1.000000 0.228757 0.039130
C37   C     C_1   1.000000 0.500000 0.228757 0.039130
C38   C     C_1   0.500000 0.000000 0.771243 0.039130
C39   C     C_1   1.000000 0.500000 0.771243 0.039130
C40   C     C_1   1.000000 0.500000 0.728757 0.039130
C41   C     C_1   0.500000 0.000000 0.728757 0.039130
C42   C     C_1   0.000000 0.500000 0.271243 0.039130
C43   C     C_1   0.500000 1.000000 0.271243 0.039130
C44   C     C_R   0.283058 0.000002 0.958229 0.210802
C45   C     C_R   0.881496 0.500000 0.500000 0.630788
C46   C     C_R   0.999997 0.283058 0.958229 0.210802
C47   C     C_R   0.716941 0.999997 0.958229 0.210802
C48   C     C_R   0.000002 0.716941 0.958229 0.210802
C49   C     C_R   0.716942 0.000003 0.041770 0.210802
C50   C     C_R   0.000003 0.283058 0.041770 0.210802
C51   C     C_R   0.283058 0.999997 0.041770 0.210802
C52   C     C_R   0.999998 0.716942 0.041770 0.210802
C53   C     C_R   0.783058 0.500002 0.458229 0.210802
C54   C     C_R   0.499997 0.783058 0.458229 0.210802
C55   C     C_R   0.216942 0.499997 0.458229 0.210802
C56   C     C_R   0.500000 0.881496 0.500000 0.630788
C57   C     C_R   0.500002 0.216942 0.458229 0.210802
C58   C     C_R   0.216942 0.500002 0.541770 0.210802
C59   C     C_R   0.500003 0.783058 0.541770 0.210802
C60   C     C_R   0.783058 0.499998 0.541770 0.210802
C61   C     C_R   0.499997 0.216942 0.541770 0.210802
C62   C     C_R   0.219151 0.000003 0.958688 -0.103348
C63   C     C_R   0.999997 0.219151 0.958688 -0.103348
C64   C     C_R   0.780849 0.999997 0.958688 -0.103348
C65   C     C_R   0.000003 0.780849 0.958688 -0.103348
C66   C     C_R   0.780849 0.000003 0.041312 -0.103348
C67   C     C_R   0.118504 0.500000 0.500000 0.630789
C68   C     C_R   0.000003 0.219151 0.041312 -0.103348
C69   C     C_R   0.219151 0.999997 0.041312 -0.103348
C70   C     C_R   0.999997 0.780849 0.041312 -0.103348
C71   C     C_R   0.719151 0.500003 0.458688 -0.103348
C72   C     C_R   0.499997 0.719151 0.458688 -0.103348
C73   C     C_R   0.280849 0.499997 0.458688 -0.103348
C74   C     C_R   0.500003 0.280849 0.458688 -0.103348
C75   C     C_R   0.280849 0.500003 0.541312 -0.103348
C76   C     C_R   0.500003 0.719151 0.541312 -0.103348
C77   C     C_R   0.719151 0.499997 0.541312 -0.103348
C78   C     C_R   0.500000 0.118504 0.500000 0.630788
C79   C     C_R   0.499997 0.280849 0.541312 -0.103348
C80   C     C_R   0.187195 0.000000 0.000000 -0.083403
C81   C     C_R   1.000000 0.187195 1.000000 -0.083403
C82   C     C_R   0.812805 1.000000 1.000000 -0.083403
C83   C     C_R   1.000000 0.812805 1.000000 -0.083403
C84   C     C_R   0.687195 0.500000 0.500000 -0.083403
C85   C     C_R   0.500000 0.687195 0.500000 -0.083403
C86   C     C_R   0.312805 0.500000 0.500000 -0.083403
C87   C     C_R   0.500000 0.312805 0.500000 -0.083403
C88   C     C_R   0.315078 1.000000 0.000000 0.003622
C89   C     C_R   1.000000 0.879670 0.000000 0.571088
C90   C     C_R   1.000000 0.315078 1.000000 0.003622
C91   C     C_R   0.684921 0.000000 1.000000 0.003622
C92   C     C_R   1.000000 0.684921 1.000000 0.003622
C93   C     C_R   0.815078 0.500000 0.500000 0.003622
C94   C     C_R   0.500000 0.815078 0.500000 0.003622
C95   C     C_R   0.184921 0.500000 0.500000 0.003622
C96   C     C_R   0.500000 0.184921 0.500000 0.003622
Cu1   Cu    Cu3+1 0.500000 0.938190 0.000000 1.175349
Cu2   Cu    Cu3+1 0.000000 0.000000 0.042460 1.045592
Cu3   Cu    Cu3+1 0.500000 0.500000 0.457540 1.045592
Cu4   Cu    Cu3+1 0.500000 0.500000 0.542460 1.045592
Cu5   Cu    Cu3+1 0.061810 0.500000 0.000000 1.175349
Cu6   Cu    Cu3+1 0.500000 0.061810 0.000000 1.175349
Cu7   Cu    Cu3+1 0.938190 0.500000 0.000000 1.175349
Cu8   Cu    Cu3+1 0.000000 0.438190 0.500000 1.175349
Cu9   Cu    Cu3+1 0.561810 0.000000 0.500000 1.175349
Cu10  Cu    Cu3+1 0.000000 0.561810 0.500000 1.175349
Cu11  Cu    Cu3+1 0.438190 0.000000 0.500000 1.175349
Cu12  Cu    Cu3+1 0.000000 0.000000 0.957540 1.045592
H1    H     H_    0.194144 0.000005 0.926818 0.205011
H2    H     H_    0.499995 0.694144 0.426818 0.205011
H3    H     H_    0.305856 0.499995 0.426818 0.205011
H4    H     H_    0.500005 0.305856 0.426818 0.205011
H5    H     H_    0.305856 0.500005 0.573182 0.205011
H6    H     H_    0.500005 0.694144 0.573182 0.205011
H7    H     H_    0.694144 0.499995 0.573182 0.205011
H8    H     H_    0.499995 0.305856 0.573182 0.205011
H9    H     H_    0.296389 0.000006 0.833892 0.381861
H10   H     H_    0.999995 0.296389 0.833892 0.381861
H11   H     H_    0.703611 0.999993 0.833892 0.381861
H12   H     H_    0.999995 0.194144 0.926818 0.205011
H13   H     H_    0.000006 0.703611 0.833892 0.381861
H14   H     H_    0.703611 0.000006 0.166108 0.381861
H15   H     H_    0.000006 0.296389 0.166108 0.381861
H16   H     H_    0.296389 0.999994 0.166108 0.381861
H17   H     H_    0.999994 0.703611 0.166108 0.381861
H18   H     H_    0.796389 0.500005 0.333892 0.381861
H19   H     H_    0.499994 0.796389 0.333892 0.381861
H20   H     H_    0.203611 0.499994 0.333892 0.381861
H21   H     H_    0.500006 0.203611 0.333892 0.381861
H22   H     H_    0.203611 0.500006 0.666108 0.381861
H23   H     H_    0.805856 0.999995 0.926818 0.205011
H24   H     H_    0.500006 0.796389 0.666108 0.381861
H25   H     H_    0.796389 0.499994 0.666108 0.381861
H26   H     H_    0.499992 0.203611 0.666108 0.381861
H27   H     H_    0.000005 0.805856 0.926818 0.205011
H28   H     H_    0.805856 0.000005 0.073182 0.205011
H29   H     H_    0.000005 0.194144 0.073182 0.205011
H30   H     H_    0.194144 0.999995 0.073182 0.205011
H31   H     H_    0.999995 0.805856 0.073182 0.205011
H32   H     H_    0.694144 0.500004 0.426818 0.205011
O1    O     O_R   0.409820 0.947800 0.000000 -0.474857
O2    O     O_R   0.552200 0.909820 0.500000 -0.474857
O3    O     O_R   0.090180 0.552200 0.500000 -0.474857
O4    O     O_R   0.447800 0.090180 0.500000 -0.474857
O5    O     O_R   0.090180 0.447800 0.500000 -0.474857
O6    O     O_R   0.447800 0.909820 0.500000 -0.474857
O7    O     O_R   0.909820 0.552200 0.500000 -0.474857
O8    O     O_R   0.552200 0.090180 0.500000 -0.474857
O9    O     O_R   0.499990 0.947800 0.061980 -0.474698
O10   O     O_R   0.052200 0.499990 0.061980 -0.474698
O11   O     O_R   0.500010 0.052200 0.061980 -0.474698
O12   O     O_R   0.052200 0.409820 0.000000 -0.474857
O13   O     O_R   0.947800 0.500010 0.061980 -0.474698
O14   O     O_R   0.500010 0.947800 0.938020 -0.474698
O15   O     O_R   0.947800 0.499990 0.938020 -0.474698
O16   O     O_R   0.499990 0.052200 0.938020 -0.474698
O17   O     O_R   0.052200 0.500010 0.938020 -0.474699
O18   O     O_R   0.999990 0.447800 0.561980 -0.474698
O19   O     O_R   0.552200 0.999990 0.561980 -0.474698
O20   O     O_R   0.000010 0.552200 0.561980 -0.474698
O21   O     O_R   0.447800 0.000010 0.561980 -0.474698
O22   O     O_R   0.000010 0.447800 0.438020 -0.474698
O23   O     O_R   0.590180 0.052200 0.000000 -0.474857
O24   O     O_R   0.447800 0.999990 0.438020 -0.474698
O25   O     O_R   0.999990 0.552200 0.438020 -0.474698
O26   O     O_R   0.552200 0.000010 0.438020 -0.474698
O27   O     O_R   0.000010 0.909720 0.964150 -0.503524
O28   O     O_R   0.090280 0.000010 0.964150 -0.503525
O29   O     O_R   0.999990 0.090280 0.964150 -0.503525
O30   O     O_R   0.909720 0.999990 0.964150 -0.503524
O31   O     O_R   0.999990 0.909720 0.035850 -0.503524
O32   O     O_R   0.909720 0.000010 0.035850 -0.503524
O33   O     O_R   0.000010 0.090280 0.035850 -0.503525
O34   O     O_R   0.947800 0.590180 0.000000 -0.474857
O35   O     O_R   0.090280 0.999990 0.035850 -0.503525
O36   O     O_R   0.500010 0.409720 0.464150 -0.503524
O37   O     O_R   0.590280 0.500010 0.464150 -0.503525
O38   O     O_R   0.499990 0.590280 0.464150 -0.503525
O39   O     O_R   0.409720 0.499990 0.464150 -0.503524
O40   O     O_R   0.499990 0.409720 0.535850 -0.503524
O41   O     O_R   0.409720 0.500010 0.535850 -0.503524
O42   O     O_R   0.500010 0.590280 0.535850 -0.503525
O43   O     O_R   0.590280 0.499990 0.535850 -0.503525
O44   O     O_2   0.361286 0.056360 0.901787 -0.282110
O45   O     O_R   0.590180 0.947800 0.000000 -0.474857
O46   O     O_2   0.361288 0.943651 0.901785 -0.282133
O47   O     O_3   0.270880 0.000005 0.861839 -0.503743
O48   O     O_2   0.943640 0.361286 0.901787 -0.282108
O49   O     O_2   0.056348 0.361288 0.901785 -0.282134
O50   O     O_3   0.999995 0.270880 0.861839 -0.503743
O51   O     O_2   0.638714 0.943640 0.901787 -0.282110
O52   O     O_2   0.638712 0.056348 0.901785 -0.282132
O53   O     O_3   0.729119 0.999995 0.861839 -0.503742
O54   O     O_2   0.056360 0.638714 0.901787 -0.282110
O55   O     O_2   0.943651 0.638712 0.901785 -0.282133
O56   O     O_R   0.947800 0.409820 0.000000 -0.474857
O57   O     O_3   0.000005 0.729119 0.861839 -0.503743
O58   O     O_2   0.638714 0.056360 0.098213 -0.282109
O59   O     O_2   0.638712 0.943651 0.098215 -0.282134
O60   O     O_3   0.729119 0.000005 0.138161 -0.503743
O61   O     O_2   0.056360 0.361286 0.098213 -0.282110
O62   O     O_2   0.943651 0.361288 0.098215 -0.282133
O63   O     O_3   0.000005 0.270880 0.138161 -0.503743
O64   O     O_2   0.361286 0.943640 0.098213 -0.282109
O65   O     O_2   0.361288 0.056349 0.098215 -0.282133
O66   O     O_3   0.270880 0.999995 0.138161 -0.503742
O67   O     O_R   0.409820 0.052200 0.000000 -0.474857
O68   O     O_2   0.943640 0.638714 0.098213 -0.282110
O69   O     O_2   0.056349 0.638712 0.098215 -0.282133
O70   O     O_3   0.999995 0.729119 0.138161 -0.503743
O71   O     O_2   0.861286 0.556360 0.401787 -0.282109
O72   O     O_2   0.861288 0.443651 0.401785 -0.282133
O73   O     O_3   0.770880 0.500004 0.361839 -0.503743
O74   O     O_2   0.443640 0.861286 0.401787 -0.282109
O75   O     O_2   0.556348 0.861288 0.401785 -0.282133
O76   O     O_3   0.499995 0.770880 0.361839 -0.503743
O77   O     O_2   0.138714 0.443640 0.401787 -0.282110
O78   O     O_R   0.052200 0.590180 0.000000 -0.474857
O79   O     O_2   0.138712 0.556349 0.401785 -0.282133
O80   O     O_3   0.229120 0.499995 0.361839 -0.503743
O81   O     O_2   0.556360 0.138714 0.401787 -0.282110
O82   O     O_2   0.443651 0.138712 0.401785 -0.282133
O83   O     O_3   0.500005 0.229120 0.361839 -0.503743
O84   O     O_2   0.138714 0.556360 0.598213 -0.282110
O85   O     O_2   0.138712 0.443651 0.598215 -0.282133
O86   O     O_3   0.229120 0.500005 0.638161 -0.503743
O87   O     O_2   0.556360 0.861286 0.598213 -0.282109
O88   O     O_2   0.443652 0.861288 0.598215 -0.282134
O89   O     O_R   0.909820 0.447800 0.500000 -0.474857
O90   O     O_3   0.500005 0.770880 0.638161 -0.503743
O91   O     O_2   0.861286 0.443640 0.598213 -0.282109
O92   O     O_2   0.861288 0.556349 0.598215 -0.282133
O93   O     O_3   0.770880 0.499995 0.638161 -0.503742
O94   O     O_2   0.443640 0.138714 0.598213 -0.282112
O95   O     O_2   0.556349 0.138712 0.598215 -0.282131
O96   O     O_3   0.499995 0.229119 0.638161 -0.503742
S1    S     S_3+6 0.321591 0.000005 0.905084 0.016738
S2    S     S_3+6 0.499995 0.821591 0.405084 0.016738
S3    S     S_3+6 0.178409 0.499995 0.405084 0.016738
S4    S     S_3+6 0.500005 0.178409 0.405084 0.016738
S5    S     S_3+6 0.178409 0.500005 0.594915 0.016738
S6    S     S_3+6 0.500005 0.821591 0.594915 0.016738
S7    S     S_3+6 0.821591 0.499995 0.594915 0.016738
S8    S     S_3+6 0.499995 0.178409 0.594915 0.016738
S9    S     S_3+6 0.999995 0.321591 0.905084 0.016738
S10   S     S_3+6 0.678409 0.999995 0.905084 0.016738
S11   S     S_3+6 0.000005 0.678409 0.905084 0.016738
S12   S     S_3+6 0.678409 0.000005 0.094915 0.016738
S13   S     S_3+6 0.000005 0.321591 0.094915 0.016738
S14   S     S_3+6 0.321591 0.999995 0.094915 0.016738
S15   S     S_3+6 0.999995 0.678409 0.094915 0.016738
S16   S     S_3+6 0.821591 0.500005 0.405084 0.016738

loop_
_geom_bond_atom_site_label_1
_geom_bond_atom_site_label_2
_ccdc_geom_bond_type
C8    O41   A    
C48   C65   A    
C17   C26   S    
Cu2   O35   S    
Cu12  O30   S    
O92   S7    D    
C12   O12   A    
O91   S7    D    
C8    O39   A    
H21   O83   S    
C67   O3    A    
C44   S1    S    
O60   S12   S    
O87   S6    D    
C79   C87   A    
C72   C85   A    
C61   C96   A    
Cu2   Cu12  S    
Cu10  O3    S    
C7    C85   S    
C31   C40   S    
Cu1   O45   S    
Cu9   Cu11  S    
C9    O9    A    
C4    O30   A    
C14   O18   A    
C59   S6    S    
O90   S6    S    
C33   C42   S    
C12   C90   S    
O74   S2    D    
C10   C19   S    
C61   C79   A    
Cu3   O37   S    
C48   S11   S    
C17   O26   A    
Cu8   O22   S    
H19   O76   S    
C65   C83   A    
O85   S5    D    
C35   C43   S    
Cu5   O10   S    
C16   C25   S    
O52   S10   D    
Cu9   O26   S    
O73   S16   S    
O76   S2    S    
O79   S3    D    
C37   C42   T    
C51   S14   S    
Cu4   O43   S    
C89   O27   A    
O65   S14   D    
C11   O14   A    
O63   S13   S    
Cu5   O78   S    
C50   C90   A    
C1    O1    A    
C13   O15   A    
Cu3   O36   S    
Cu11  O21   S    
O58   S12   D    
Cu6   O23   S    
C60   S7    S    
C57   C96   A    
C29   C38   S    
C3    C81   S    
C76   H6    S    
C32   C41   S    
O80   S3    S    
C75   H5    S    
C59   C94   A    
C74   C87   A    
O72   S16   D    
Cu4   O42   S    
Cu6   O67   S    
H20   O80   S    
Cu1   Cu6   S    
C78   O8    A    
Cu6   O11   S    
C56   O2    A    
C60   C93   A    
C61   S8    S    
Cu12  O28   S    
Cu5   O17   S    
C70   H31   S    
Cu5   Cu7   S    
Cu12  O29   S    
C67   C95   S    
C12   O56   A    
C68   H29   S    
C45   O89   A    
C49   C91   A    
O66   S14   S    
C10   O13   A    
C13   O17   A    
O47   S1    S    
O93   S7    S    
C58   C75   A    
C73   H3    S    
C23   O23   A    
C20   C29   T    
C83   C89   S    
C72   H2    S    
C11   C20   S    
C6    C84   S    
C22   C31   T    
O81   S4    D    
O49   S9    D    
O88   S6    D    
C49   S12   S    
Cu10  O25   S    
C13   C21   S    
C2    C80   S    
C89   O31   A    
Cu3   O38   S    
C55   C95   A    
C49   C66   A    
C78   C96   S    
C47   C64   A    
C23   O45   A    
Cu2   O33   S    
C3    O29   A    
O86   S5    S    
C77   C84   A    
C44   C62   A    
Cu9   O8    S    
C53   C93   A    
O57   S11   S    
Cu7   O34   S    
C67   O5    A    
C7    O38   A    
C14   O20   A    
H11   O53   S    
C53   S16   S    
C64   C82   A    
C57   C74   A    
C51   C88   A    
C58   S5    S    
C56   C94   S    
C58   C95   A    
C24   C32   T    
C5    O40   A    
Cu3   O39   S    
C34   O34   A    
C17   O24   A    
C78   O4    A    
C2    O35   A    
C66   C82   A    
O46   S1    D    
C3    O33   A    
C26   C35   T    
C75   C86   A    
Cu3   Cu4   S    
C64   H23   S    
C16   O25   A    
O53   S10   S    
C55   C73   A    
Cu1   O1    S    
C4    C82   S    
O48   S9    D    
C55   S3    S    
O75   S2    D    
H25   O93   S    
Cu1   O14   S    
C70   C83   A    
C54   S2    S    
C65   H27   S    
C50   S13   S    
C11   O16   A    
C38   C41   T    
C66   H28   S    
Cu2   O31   S    
O59   S12   D    
H18   O73   S    
Cu7   O15   S    
C15   C24   S    
Cu12  O27   S    
C63   C81   A    
C45   C93   S    
O61   S13   D    
O54   S11   D    
C6    O37   A    
C19   C28   T    
C14   C22   S    
O71   S16   D    
C5    O36   A    
C23   C91   S    
C52   C92   A    
Cu7   O56   S    
C68   C81   A    
C53   C71   A    
Cu6   O16   S    
O70   S15   S    
Cu9   O2    S    
H9    O47   S    
C71   C84   A    
C62   C80   A    
C69   H30   S    
Cu11  O6    S    
O69   S15   D    
C39   C40   T    
C9    O11   A    
O50   S9    S    
Cu1   O9    S    
C4    O32   A    
C7    O42   A    
H16   O66   S    
C45   O7    A    
C47   C91   A    
Cu8   O5    S    
C15   O21   A    
C18   C27   T    
C46   S9    S    
Cu8   O18   S    
C69   C80   A    
H24   O90   S    
C15   O19   A    
H13   O57   S    
H17   O70   S    
C34   O78   A    
C71   H32   S    
C46   C90   A    
C27   C36   S    
C21   C30   T    
C46   C63   A    
Cu5   O12   S    
H15   O63   S    
C6    O43   A    
O83   S4    S    
C16   O22   A    
C60   C77   A    
O96   S8    S    
Cu8   Cu10  S    
C2    O28   A    
Cu2   O32   S    
C77   H7    S    
C10   O10   A    
C1    O67   A    
C74   H4    S    
C63   H12   S    
H10   O50   S    
O44   S1    D    
Cu7   O13   S    
Cu8   O89   S    
Cu9   O19   S    
C62   H1    S    
O55   S11   D    
C28   C37   S    
C1    C88   S    
Cu10  O20   S    
C59   C76   A    
O82   S4    D    
C30   C39   S    
C8    C86   S    
C56   O6    A    
O64   S14   D    
O84   S5    D    
C52   S15   S    
C34   C92   S    
O95   S8    D    
C54   C94   A    
C57   S4    S    
C52   C70   A    
Cu10  O7    S    
C5    C87   S    
C9    C18   S    
O62   S13   D    
C54   C72   A    
Cu11  O24   S    
H22   O86   S    
C48   C92   A    
O94   S8    D    
O51   S10   D    
H26   O96   S    
O77   S3    D    
C36   C43   T    
C73   C86   A    
C51   C69   A    
C79   H8    S    
H14   O60   S    
Cu11  O4    S    
C44   C88   A    
C50   C68   A    
C76   C85   A    
O68   S15   D    
C47   S10   S    
Cu4   O41   S    
C25   C33   T    
Cu4   O40   S    
