data_mof_unit_56636.cif
_audit_creation_date              2012-12-10T17:18:14-0500
_audit_creation_method            fapswitch 2.2
_symmetry_space_group_name_H-M    P1
_symmetry_Int_Tables_number       1
_space_group_crystal_system       triclinic
_cell_length_a                    10.176178
_cell_length_b                    10.834845
_cell_length_c                    14.943345
_cell_angle_alpha                 90.137393
_cell_angle_beta                  80.071645
_cell_angle_gamma                 96.717059
_cell_volume                      1611.53261455

loop_
_atom_site_label
_atom_site_type_symbol
_atom_type_description
_atom_site_fract_x
_atom_site_fract_y
_atom_site_fract_z
_atom_type_partial_charge
C1    C     C_R   0.558332 0.732656 0.492963 0.863510
C2    C     C_2   0.074791 0.499936 0.487590 -0.063848
C3    C     C_R   0.498428 0.496826 0.672920 0.882471
C4    C     C_R   0.501596 0.503123 0.327116 0.871860
C5    C     C_R   0.542669 0.405167 0.182641 -0.307993
C6    C     C_R   0.476872 0.603515 0.814842 -0.315038
C7    C     C_R   0.505045 0.508268 0.231387 -0.119412
C8    C     C_R   0.497607 0.494455 0.768471 -0.115804
C9    C     C_R   0.469990 0.612664 0.189484 0.154470
C10   C     C_R   0.522725 0.387151 0.812013 0.166645
C11   C     C_R   0.478354 0.613304 0.094990 0.056138
C12   C     C_R   0.441718 0.266634 0.504963 0.872806
C13   C     C_R   0.532993 0.392967 0.904039 0.059147
C14   C     C_R   0.510767 0.505934 0.045614 -0.010036
C15   C     C_R   0.507983 0.502825 0.952316 -0.014158
C16   C     C_R   0.544631 0.401331 0.089668 0.067260
C17   C     C_R   0.479445 0.609128 0.907431 0.075019
C18   C     C_R   0.456543 0.719600 0.048958 -0.245423
C19   C     C_R   0.569619 0.291491 0.948076 -0.235329
C20   C     C_3   0.286169 0.723203 0.260303 -0.767388
C21   C     C_3   0.404610 0.189672 0.782501 -0.843221
C22   C     C_3   0.560485 0.909383 0.878042 -0.814431
C23   C     C_R   0.457780 0.719073 0.955929 0.204562
C24   C     C_3   0.513316 0.091774 0.111278 -0.802369
C25   C     C_R   0.263567 0.074613 0.542597 0.132028
C26   C     C_R   0.181823 0.125593 0.615648 -0.137968
C27   C     C_R   0.052444 0.068019 0.649133 -0.160325
C28   C     C_R   0.002522 0.959493 0.609723 -0.127401
C29   C     C_R   0.080575 0.910114 0.535221 -0.128220
C30   C     C_R   0.209377 0.968166 0.500911 -0.176399
C31   C     C_R   0.728491 0.910501 0.421043 0.136623
C32   C     C_R   0.816925 0.004708 0.451056 -0.176623
C33   C     C_R   0.941253 0.044371 0.397180 -0.139256
C34   C     C_R   0.577097 0.294805 0.039898 0.202137
C35   C     C_R   0.979679 0.988881 0.313835 -0.135714
C36   C     C_R   0.893495 0.893925 0.283917 -0.145083
C37   C     C_R   0.768635 0.854682 0.337154 -0.117371
C38   C     C_3   0.159779 0.684201 0.664151 -0.659947
C39   C     C_3   0.843968 0.313014 0.338093 -0.667341
C40   C     C_2   0.597482 0.864997 0.479524 -0.180863
C41   C     C_2   0.404932 0.132047 0.508932 -0.180959
C42   C     C_2   0.504365 0.937736 0.514029 -0.219235
C43   C     C_2   0.507435 0.064733 0.483585 -0.203162
C44   C     C_2   0.925285 0.500867 0.512034 -0.049469
H1    H     H_    0.564649 0.326248 0.219376 0.152136
H2    H     H_    0.235006 0.644923 0.305918 0.254849
H3    H     H_    0.243509 0.719434 0.196664 0.237389
H4    H     H_    0.265742 0.811974 0.294154 0.226995
H5    H     H_    0.571528 0.278393 0.697656 0.245697
H6    H     H_    0.413300 0.106502 0.739209 0.245167
H7    H     H_    0.320935 0.238460 0.767325 0.238982
H8    H     H_    0.380838 0.158463 0.854778 0.258565
H9    H     H_    0.369892 0.820738 0.868943 0.220636
H10   H     H_    0.536317 0.996515 0.849497 0.250212
H11   H     H_    0.622770 0.861572 0.823311 0.239586
H12   H     H_    0.460270 0.683659 0.777003 0.150216
H13   H     H_    0.618730 0.933752 0.933342 0.262808
H14   H     H_    0.685261 0.210978 0.124571 0.222098
H15   H     H_    0.556853 0.011704 0.135989 0.245015
H16   H     H_    0.459962 0.059907 0.054947 0.261721
H17   H     H_    0.440568 0.124455 0.167976 0.237660
H18   H     H_    0.217805 0.209301 0.647423 0.138042
H19   H     H_    0.991031 0.107410 0.705962 0.135309
H20   H     H_    0.902650 0.914592 0.636052 0.132024
H21   H     H_    0.040987 0.827091 0.503666 0.159900
H22   H     H_    0.267502 0.928961 0.442470 0.151679
H23   H     H_    0.438460 0.804580 0.084835 0.189953
H24   H     H_    0.789690 0.047351 0.516219 0.145133
H25   H     H_    0.008327 0.117677 0.420515 0.161344
H26   H     H_    0.076390 0.019158 0.272647 0.129562
H27   H     H_    0.923547 0.850435 0.219525 0.131502
H28   H     H_    0.703719 0.780496 0.312952 0.108775
H29   H     H_    0.088458 0.495211 0.667642 0.223059
H30   H     H_    0.077964 0.735108 0.699454 0.209712
H31   H     H_    0.222995 0.746464 0.610992 0.254138
H32   H     H_    0.221290 0.660375 0.714736 0.222762
H33   H     H_    0.903831 0.503830 0.331632 0.227596
H34   H     H_    0.595456 0.209197 0.911052 0.188978
H35   H     H_    0.926730 0.270679 0.295408 0.209118
H36   H     H_    0.769523 0.330388 0.294890 0.228188
H37   H     H_    0.795664 0.246614 0.393525 0.245091
H38   H     H_    0.601163 0.108398 0.445240 0.184501
H39   H     H_    0.417780 0.898997 0.562935 0.179449
H40   H     H_    0.116984 0.456496 0.425443 0.157324
H41   H     H_    0.883094 0.544562 0.574071 0.156913
H42   H     H_    0.474430 0.735273 0.297479 0.219061
N1    N     N_2   0.842700 0.448880 0.462930 -0.038339
N2    N     N_2   0.157300 0.551120 0.537070 -0.039984
N3    N     N_2   0.429783 0.717353 0.241221 -0.320470
N4    N     N_2   0.529208 0.272024 0.765463 -0.326460
N5    N     N_2   0.437537 0.830870 0.913189 -0.315452
N6    N     N_2   0.619679 0.190383 0.079755 -0.311851
N7    N     N_2   0.101129 0.572817 0.625742 -0.256007
N8    N     N_2   0.898414 0.427810 0.374138 -0.257926
O1    O     O_R   0.431060 0.692470 0.507460 -0.613855
O2    O     O_R   0.568940 0.307530 0.492540 -0.614769
O3    O     O_R   0.651120 0.659650 0.483670 -0.608872
O4    O     O_R   0.348880 0.340350 0.516330 -0.614109
O5    O     O_R   0.389960 0.516440 0.644050 -0.608605
O6    O     O_R   0.610040 0.483560 0.355950 -0.616881
O7    O     O_R   0.610030 0.483620 0.620260 -0.632224
O8    O     O_R   0.389970 0.516380 0.379740 -0.617578
Zn1   Zn    Zn3+2 0.353060 0.521920 0.515880 0.934507
Zn2   Zn    Zn3+2 0.646940 0.478080 0.484120 0.935145

loop_
_geom_bond_atom_site_label_1
_geom_bond_atom_site_label_2
_ccdc_geom_bond_type
O5    Zn1   S    
C21   N4    S    
C11   C18   A    
C24   H17   S    
C2    H40   S    
C35   C36   A    
H29   N7    S    
H5    N4    S    
C22   H13   S    
C22   H10   S    
C38   H32   S    
C26   C27   A    
C17   C23   A    
C28   C29   A    
C11   C14   A    
O4    Zn1   S    
N1    N8    S    
H33   N8    S    
O6    Zn2   S    
C31   C40   S    
C15   C17   A    
C5    C16   A    
C1    C40   S    
C16   C34   A    
C35   H26   S    
C2    C44   S    
C4    O8    A    
H9    N5    S    
C22   N5    S    
C10   C13   A    
C2    N2    D    
C44   N1    D    
C12   O4    A    
C36   H27   S    
C33   H25   S    
C32   H24   S    
C3    O7    A    
C40   C42   D    
C41   C43   D    
C4    C7    S    
C24   N6    S    
C21   H6    S    
O1    Zn1   S    
C38   H31   S    
C9    N3    S    
C13   C19   A    
C18   C23   A    
C20   H3    S    
O2    Zn2   S    
C39   H37   S    
C3    C8    S    
C25   C41   S    
C5    C7    A    
C6    C8    A    
C25   C26   A    
C5    H1    S    
C19   C34   A    
C31   C37   A    
C39   H35   S    
C19   H34   S    
C39   N8    S    
C29   C30   A    
C31   C32   A    
C1    O1    A    
C20   H4    S    
C9    C11   A    
C30   H22   S    
C27   H19   S    
C29   H21   S    
C28   H20   S    
O7    Zn2   S    
C4    O6    A    
C14   C16   A    
C42   C43   S    
C1    O3    A    
C44   H41   S    
C21   H7    S    
N2    Zn1   S    
C12   C41   S    
C38   H30   S    
C25   C30   A    
C7    C9    A    
C6    C17   A    
N2    N7    S    
C36   C37   A    
C42   H39   S    
C6    H12   S    
H42   N3    S    
C22   H11   S    
C20   N3    S    
C39   H36   S    
C13   C15   A    
C26   H18   S    
C32   C33   A    
C24   H15   S    
C38   N7    S    
C33   C35   A    
C23   N5    S    
O8    Zn1   S    
C34   N6    S    
O3    Zn2   S    
N1    Zn2   S    
C3    O5    A    
C10   N4    S    
C8    C10   A    
C37   H28   S    
C27   C28   A    
C43   H38   S    
C18   H23   S    
C14   C15   A    
C12   O2    A    
C24   H16   S    
H14   N6    S    
C21   H8    S    
C20   H2    S    
