data_mof_unit_24198.cif
_audit_creation_date              2012-12-10T19:12:19-0500
_audit_creation_method            fapswitch 2.2
_symmetry_space_group_name_H-M    P1
_symmetry_Int_Tables_number       1
_space_group_crystal_system       triclinic
_cell_length_a                    7.804098
_cell_length_b                    9.090448
_cell_length_c                    17.020544
_cell_angle_alpha                 90.005794
_cell_angle_beta                  92.240111
_cell_angle_gamma                 89.926768
_cell_volume                      1206.56039813

loop_
_atom_site_label
_atom_site_type_symbol
_atom_type_description
_atom_site_fract_x
_atom_site_fract_y
_atom_site_fract_z
_atom_type_partial_charge
C1    C     C_R   0.500043 0.220102 0.499881 0.829576
C2    C     C_R   0.499944 0.779887 0.499130 0.891702
C3    C     C_R   0.518233 0.506261 0.651450 0.889898
C4    C     C_R   0.482356 0.502727 0.348093 0.859593
C5    C     C_R   0.522758 0.514573 0.738095 -0.183934
C6    C     C_R   0.480225 0.488599 0.261228 -0.213000
C7    C     C_R   0.388786 0.581113 0.780554 0.342399
C8    C     C_R   0.633123 0.484965 0.218045 0.377408
C9    C     C_R   0.387735 0.561423 0.863063 0.089670
C10   C     C_R   0.624427 0.431405 0.140310 0.107741
C11   C     C_R   0.530279 0.495801 0.902465 0.270094
C12   C     C_R   0.464452 0.420348 0.099929 0.254279
C13   C     C_R   0.668310 0.444847 0.860662 -0.146735
C14   C     C_R   0.315060 0.435520 0.140913 -0.137832
C15   C     C_R   0.662454 0.449814 0.779211 -0.231790
C16   C     C_R   0.322939 0.462555 0.221273 -0.214148
C17   C     C_1   0.500094 0.065387 0.499530 -0.140281
C18   C     C_1   0.499967 0.934600 0.499240 -0.132964
Cu1   Cu    Cu3+1 0.669080 0.500010 0.500000 1.089001
Cu2   Cu    Cu3+1 0.330920 0.499990 0.500000 1.079983
H1    H     H_    0.779495 0.398021 0.891499 0.201449
H2    H     H_    0.192510 0.426928 0.110044 0.223989
H3    H     H_    0.767715 0.402193 0.748185 0.210476
H4    H     H_    0.205468 0.465197 0.252146 0.265478
N1    N     N_1   0.076820 0.499970 0.500010 -0.008577
N2    N     N_1   0.923180 0.500030 0.499990 -0.007094
N3    N     N_2   0.546703 0.498061 0.985067 -0.169979
N4    N     N_2   0.450773 0.408438 0.017032 -0.180224
O1    O     O_R   0.642760 0.288400 0.500000 -0.579715
O2    O     O_R   0.357240 0.711600 0.500000 -0.572947
O3    O     O_R   0.357190 0.288380 0.500000 -0.583022
O4    O     O_R   0.642810 0.711620 0.500000 -0.573717
O5    O     O_R   0.658410 0.498660 0.613920 -0.580780
O6    O     O_R   0.341590 0.501340 0.386080 -0.586010
O7    O     O_R   0.372840 0.498650 0.613930 -0.530877
O8    O     O_R   0.627160 0.501350 0.386070 -0.515781
S1    S     S_3+6 0.828716 0.562503 0.255605 0.023346
O9    O     O_2   0.921037 0.449181 0.305739 -0.315161
O10   O     O_2   0.939896 0.609336 0.190005 -0.270911
O11   O     O_3   0.788399 0.712122 0.310186 -0.515225
H5    H     H_    0.898609 0.734805 0.338426 0.372597
S2    S     S_3+6 0.235577 0.700311 0.732561 0.041257
O12   O     O_2   0.085542 0.610801 0.701936 -0.278155
O13   O     O_2   0.173168 0.816681 0.787241 -0.239036
O14   O     O_3   0.325277 0.787434 0.657592 -0.550381
H6    H     H_    0.233613 0.852006 0.635007 0.373913
I1    I     I_    0.841282 0.336404 0.086895 -0.206375
I2    I     I_    0.173303 0.623381 0.931222 -0.129200

loop_
_geom_bond_atom_site_label_1
_geom_bond_atom_site_label_2
_ccdc_geom_bond_type
C4    O8    A    
S2    O14   S    
S1    O9    D    
C3    O7    A    
C2    C18   S    
C11   C13   A    
C1    C17   S    
Cu1   Cu2   S    
C11   N3    S    
C2    O2    A    
Cu2   O6    S    
C14   H2    S    
C15   H3    S    
C17   C18   T    
C13   H1    S    
C16   H4    S    
Cu2   O2    S    
O14   H6    S    
C9    C11   A    
S2    O13   D    
C12   N4    S    
Cu1   O4    S    
C10   C12   A    
C2    O4    A    
C1    O1    A    
O11   H5    S    
C12   C14   A    
S1    O11   S    
C14   C16   A    
Cu1   O8    S    
C13   C15   A    
Cu1   O5    S    
Cu2   O3    S    
C4    O6    A    
C5    C15   A    
C4    C6    S    
S2    O12   D    
C3    O5    A    
C6    C16   A    
Cu1   O1    S    
C1    O3    A    
C9    I2    S    
S1    O10   D    
C8    S1    S    
C7    S2    S    
N3    N4    D    
C7    C9    A    
Cu1   N2    S    
C5    C7    A    
C6    C8    A    
N1    N2    T    
C10   I1    S    
Cu2   O7    S    
C8    C10   A    
C3    C5    S    
Cu2   N1    S    
