data_mof_unit_31929.cif
_audit_creation_date              2012-12-10T17:35:34-0500
_audit_creation_method            fapswitch 2.2
_symmetry_space_group_name_H-M    P1
_symmetry_Int_Tables_number       1
_space_group_crystal_system       triclinic
_cell_length_a                    10.749844
_cell_length_b                    12.393565
_cell_length_c                    13.342886
_cell_angle_alpha                 117.071218
_cell_angle_beta                  75.953668
_cell_angle_gamma                 103.077078
_cell_volume                      1521.70931371

loop_
_atom_site_label
_atom_site_type_symbol
_atom_type_description
_atom_site_fract_x
_atom_site_fract_y
_atom_site_fract_z
_atom_type_partial_charge
C1    C     C_R   0.513356 0.854305 0.286682 0.803411
C2    C     C_3   0.122124 0.995655 0.496347 0.095830
C3    C     C_3   0.070309 0.107589 0.602296 -0.459687
C4    C     C_3   0.038172 0.878434 0.501597 -0.370831
C5    C     C_R   0.373530 0.265764 0.029304 -0.187834
C6    C     C_R   0.469438 0.226701 0.834669 -0.037115
C7    C     C_R   0.619721 0.813498 0.089677 -0.212600
C8    C     C_R   0.681910 0.732513 0.987975 -0.166907
C9    C     C_R   0.658685 0.606364 0.957878 0.096531
C10   C     C_R   0.548854 0.559664 0.019839 0.043664
C11   C     C_R   0.489259 0.643506 0.126344 0.064714
C12   C     C_R   0.740464 0.999122 0.497617 0.792328
C13   C     C_R   0.498173 0.433599 0.983394 0.066433
C14   C     C_R   0.413778 0.391149 0.061638 0.159394
C15   C     C_R   0.360014 0.474668 0.166648 -0.238588
C16   C     C_R   0.388656 0.598469 0.193763 -0.157323
C17   C     C_R   0.514551 0.351241 0.868581 -0.239346
C18   C     C_R   0.404505 0.183236 0.916451 -0.175710
C19   C     C_R   0.533804 0.770353 0.164597 -0.078450
C20   C     C_R   0.693783 0.346337 0.318732 -0.276548
C21   C     C_R   0.328034 0.755653 0.651583 0.289479
C22   C     C_R   0.314729 0.669201 0.695747 -0.223101
C23   C     C_R   0.482923 0.145091 0.713134 0.825061
C24   C     C_R   0.381782 0.570188 0.639664 -0.242217
C25   C     C_R   0.466865 0.555141 0.538772 0.008427
C26   C     C_R   0.494776 0.654224 0.504482 0.264768
C27   C     C_R   0.529866 0.447449 0.474164 -0.024721
C28   C     C_R   0.624606 0.444599 0.380044 0.135484
C29   C     C_R   0.655866 0.542874 0.350184 -0.278751
C30   C     C_R   0.593658 0.645744 0.411783 -0.179471
C31   C     C_R   0.502877 0.341807 0.498035 -0.016788
C32   C     C_R   0.675033 0.250685 0.351833 0.287671
C33   C     C_R   0.260069 0.997775 0.498318 0.794692
C34   C     C_3   0.964384 0.011881 0.391342 -0.471109
C35   C     C_3   0.107049 0.003770 0.386737 0.012837
C36   C     C_3   0.924909 0.106198 0.606087 0.008332
C37   C     C_3   0.898396 0.874655 0.491536 -0.343353
C38   C     C_3   0.878577 0.998311 0.497435 0.094481
Cu1   Cu    Cu3+1 0.529690 0.098270 0.475420 0.929031
Cu2   Cu    Cu3+1 0.470310 0.901730 0.524580 0.925967
H1    H     H_    0.960241 0.102922 0.397471 0.156830
H2    H     H_    0.037202 0.879866 0.584990 0.178778
H3    H     H_    0.086136 0.106959 0.681369 0.189104
H4    H     H_    0.368959 0.087074 0.891950 0.159438
H5    H     H_    0.287825 0.444014 0.224033 0.142936
H6    H     H_    0.312701 0.232355 0.089772 0.142102
H7    H     H_    0.550719 0.385174 0.804231 0.154600
H8    H     H_    0.650994 0.910438 0.115281 0.167506
H9    H     H_    0.759214 0.770277 0.939137 0.143762
H10   H     H_    0.927522 0.941721 0.312357 0.194314
H11   H     H_    0.330484 0.658018 0.268570 0.184106
H12   H     H_    0.731330 0.541261 0.278969 0.148343
H13   H     H_    0.767713 0.349826 0.248809 0.140072
H14   H     H_    0.425415 0.334064 0.563917 0.127849
H15   H     H_    0.363987 0.505856 0.676860 0.143422
H16   H     H_    0.247141 0.672563 0.771256 0.149461
H17   H     H_    0.628445 0.717319 0.384709 0.198327
H18   H     H_    0.166991 0.088046 0.382592 0.148750
H19   H     H_    0.911769 0.193732 0.608097 0.125840
H20   H     H_    0.125384 0.193925 0.599098 0.151949
H21   H     H_    0.832687 0.853595 0.560699 0.208263
H22   H     H_    0.875655 0.798579 0.409146 0.168737
H23   H     H_    0.077549 0.794359 0.434053 0.189937
N1    N     N_R   0.574690 0.246280 0.438200 -0.193804
N2    N     N_R   0.426100 0.754320 0.561190 -0.221091
O1    O     O_R   0.537340 0.972510 0.318130 -0.583100
O2    O     O_R   0.487200 0.806530 0.359650 -0.610221
O3    O     O_R   0.707380 0.082980 0.479220 -0.607493
O4    O     O_R   0.657240 0.917000 0.520740 -0.583069
O5    O     O_R   0.512800 0.193470 0.640350 -0.590606
O6    O     O_R   0.462660 0.027490 0.681870 -0.583601
O7    O     O_R   0.342760 0.083000 0.479260 -0.582520
O8    O     O_R   0.292620 0.917020 0.520780 -0.612543
I1    I     I_    0.812269 0.102412 0.763004 -0.483180
C39   C     C_3   0.769374 0.534235 0.879336 -0.424658
C40   C     C_3   0.827812 0.483913 0.941182 -0.314337
C41   C     C_3   0.958725 0.442047 0.875834 -0.809390
H24   H     H_    0.949703 0.374221 0.787128 0.260240
H25   H     H_    0.030491 0.521389 0.873651 0.243663
H26   H     H_    0.994504 0.399160 0.918692 0.256322
H27   H     H_    0.841721 0.555915 0.027726 0.220667
H28   H     H_    0.761110 0.405257 0.950792 0.244610
H29   H     H_    0.743020 0.460509 0.798368 0.193315
H30   H     H_    0.847969 0.595390 0.851565 0.195925
C42   C     C_3   0.779756 0.167454 0.305279 -0.373848
C43   C     C_3   0.870560 0.162660 0.194516 -0.448206
C44   C     C_3   0.964849 0.069673 0.151604 -0.840310
H31   H     H_    0.028436 0.095166 0.215243 0.263873
H32   H     H_    0.911852 0.976337 0.133188 0.256593
H33   H     H_    0.028161 0.069945 0.072544 0.256046
H34   H     H_    0.812316 0.137929 0.126857 0.244440
H35   H     H_    0.930300 0.252916 0.210112 0.226577
H36   H     H_    0.840066 0.203206 0.372890 0.191959
H37   H     H_    0.737636 0.072958 0.288885 0.242723
C45   C     C_3   0.220675 0.835208 0.692826 -0.371407
C46   C     C_3   0.120762 0.834486 0.797536 -0.466960
C47   C     C_3   0.018305 0.916945 0.828647 -0.820498
H38   H     H_    0.063960 0.012206 0.845612 0.261285
H39   H     H_    0.960258 0.881805 0.759206 0.265772
H40   H     H_    0.950906 0.916842 0.906032 0.250555
H41   H     H_    0.069222 0.740556 0.779120 0.224817
H42   H     H_    0.170786 0.867040 0.872050 0.241428
H43   H     H_    0.260198 0.931269 0.713425 0.237976
H44   H     H_    0.166849 0.797994 0.620828 0.199290
I2    I     I_    0.176649 0.855329 0.230280 -0.489744

loop_
_geom_bond_atom_site_label_1
_geom_bond_atom_site_label_2
_ccdc_geom_bond_type
C2    C35   S    
C12   O4    A    
Cu2   O6    S    
C46   H42   S    
Cu1   O3    S    
C45   C46   S    
C16   H11   S    
C44   H31   S    
C36   H19   S    
C37   H22   S    
C7    C8    A    
C41   H24   S    
C24   H15   S    
Cu1   N1    S    
C12   O3    A    
C4    H23   S    
C11   C19   A    
C29   C30   A    
C35   H18   S    
C28   C29   A    
C43   H34   S    
C39   H30   S    
C6    C23   S    
C15   C16   A    
C30   H17   S    
Cu2   O8    S    
C34   C35   S    
C11   C16   A    
C33   O7    A    
C42   H36   S    
C8    C9    A    
Cu2   O2    S    
Cu1   O7    S    
C13   C14   A    
C9    C10   A    
C3    H20   S    
C46   H41   S    
C23   O5    A    
C34   H1    S    
C47   H39   S    
C45   H43   S    
C47   H38   S    
C41   H25   S    
C6    C18   A    
C34   H10   S    
C1    C19   S    
Cu2   O4    S    
C27   C31   A    
C23   O6    A    
C24   C25   A    
C32   N1    A    
C40   H28   S    
Cu1   Cu2   S    
C43   C44   S    
C22   H16   S    
C5    C18   A    
C20   C28   A    
C25   C26   A    
C42   C43   S    
C2    C4    S    
C39   C40   S    
C37   C38   S    
C35   I2    S    
C18   H4    S    
C42   H37   S    
C3    H3    S    
C46   C47   S    
C1    O1    A    
C40   C41   S    
C5    C14   A    
C36   I1    S    
C2    C33   S    
C33   O8    A    
C26   C30   A    
C7    C19   A    
Cu2   N2    S    
C44   H32   S    
Cu1   O1    S    
C22   C24   A    
C15   H5    S    
C47   H40   S    
C45   H44   S    
C20   C32   A    
C41   H26   S    
C6    C17   A    
C21   N2    A    
C34   C38   S    
C26   N2    A    
C31   N1    A    
C17   H7    S    
C20   H13   S    
C10   C13   A    
C40   H27   S    
C37   H21   S    
C25   C27   A    
C21   C45   S    
C5    H6    S    
C13   C17   A    
C7    H8    S    
C36   C38   S    
C2    C3    S    
C43   H35   S    
C39   H29   S    
C4    H2    S    
C3    C36   S    
C32   C42   S    
C1    O2    A    
Cu1   O5    S    
C31   H14   S    
C12   C38   S    
C10   C11   A    
C4    C37   S    
C44   H33   S    
C27   C28   A    
C14   C15   A    
C9    C39   S    
C21   C22   A    
C8    H9    S    
C29   H12   S    
