data_mof_unit_8074.cif
_audit_creation_date              2012-12-11T15:22:27-0500
_audit_creation_method            fapswitch 2.2
_symmetry_space_group_name_H-M    P1
_symmetry_Int_Tables_number       1
_space_group_crystal_system       triclinic
_cell_length_a                    22.460782
_cell_length_b                    12.996527
_cell_length_c                    26.950496
_cell_angle_alpha                 89.999926
_cell_angle_beta                  90.106822
_cell_angle_gamma                 89.999946
_cell_volume                      7867.16381941

loop_
_atom_site_label
_atom_site_type_symbol
_atom_type_description
_atom_site_fract_x
_atom_site_fract_y
_atom_site_fract_z
_atom_type_partial_charge
C1    C     C_R   0.721277 0.345817 0.178525 0.530786
C2    C     C_R   0.278723 0.345817 0.821476 0.530786
C3    C     C_R   0.221277 0.845818 0.178525 0.530786
C4    C     C_R   0.778723 0.845817 0.821476 0.530786
C5    C     C_R   0.473670 0.162683 0.871951 -0.006397
C6    C     C_R   0.526314 0.162693 0.128056 -0.006403
C7    C     C_R   0.973675 0.662686 0.871949 -0.006399
C8    C     C_R   0.026319 0.662689 0.128053 -0.006402
C9    C     C_R   0.520698 0.257049 0.102903 -0.135611
C10   C     C_R   0.479314 0.257041 0.897098 -0.135612
C11   C     C_R   0.020693 0.757047 0.102902 -0.135611
C12   C     C_R   0.979309 0.757044 0.897098 -0.135611
C13   C     C_R   0.509008 0.258458 0.051771 0.013849
C14   C     C_R   0.490998 0.258452 0.948232 0.013855
C15   C     C_R   0.009005 0.758456 0.051770 0.013851
C16   C     C_R   0.990996 0.758455 0.948231 0.013853
C17   C     C_R   0.503784 0.164480 0.025867 0.062783
C18   C     C_R   0.496185 0.164476 0.974143 0.062783
C19   C     C_R   0.003794 0.664478 0.025864 0.062783
C20   C     C_R   0.996195 0.664477 0.974139 0.062783
C21   C     C_R   0.504784 0.351671 0.025672 -0.136075
C22   C     C_R   0.495255 0.351668 0.974324 -0.136073
C23   C     C_R   0.004770 0.851670 0.025673 -0.136074
C24   C     C_R   0.995241 0.851669 0.974325 -0.136074
C25   C     C_R   0.741395 0.955353 0.130442 0.016739
C26   C     C_R   0.258607 0.955356 0.869559 0.016742
C27   C     C_R   0.241394 0.455354 0.130442 0.016740
C28   C     C_R   0.758606 0.455355 0.869558 0.016741
C29   C     C_R   0.794219 0.976246 0.104496 -0.135646
C30   C     C_R   0.205783 0.976250 0.895506 -0.135646
C31   C     C_R   0.294219 0.476246 0.104495 -0.135645
C32   C     C_R   0.705782 0.476249 0.895505 -0.135647
C33   C     C_R   0.797744 0.956515 0.053864 -0.125879
C34   C     C_R   0.202260 0.956522 0.946138 -0.125880
C35   C     C_R   0.297743 0.456516 0.053863 -0.125879
C36   C     C_R   0.702259 0.456520 0.946138 -0.125880
C37   C     C_R   0.748743 0.914883 0.028635 0.032724
C38   C     C_R   0.251261 0.914893 0.971366 0.032727
C39   C     C_R   0.248742 0.414885 0.028635 0.032724
C40   C     C_R   0.751260 0.414890 0.971366 0.032726
C41   C     C_R   0.697685 0.886494 0.055158 -0.125446
C42   C     C_R   0.302320 0.886505 0.944843 -0.125445
C43   C     C_R   0.197684 0.386497 0.055158 -0.125446
C44   C     C_R   0.802318 0.386501 0.944843 -0.125445
C45   C     C_R   0.553900 0.157218 0.177476 0.548642
C46   C     C_R   0.446097 0.157217 0.822526 0.548642
C47   C     C_R   0.053901 0.657217 0.177475 0.548642
C48   C     C_R   0.946098 0.657217 0.822525 0.548643
C49   C     C_R   0.694016 0.906540 0.105759 -0.134758
C50   C     C_R   0.305987 0.906547 0.894243 -0.134760
C51   C     C_R   0.194015 0.406542 0.105758 -0.134759
C52   C     C_R   0.805986 0.406545 0.894242 -0.134760
C53   C     C_R   0.731604 0.811922 0.952701 -0.131737
C54   C     C_R   0.268401 0.811930 0.047300 -0.131740
C55   C     C_R   0.231602 0.311925 0.952701 -0.131738
C56   C     C_R   0.768399 0.311928 0.047299 -0.131739
C57   C     C_R   0.736814 0.798407 0.901940 -0.136122
C58   C     C_R   0.263189 0.798412 0.098061 -0.136125
C59   C     C_R   0.236812 0.298409 0.901940 -0.136123
C60   C     C_R   0.763187 0.298410 0.098060 -0.136124
C61   C     C_R   0.774781 0.973396 0.892836 0.015195
C62   C     C_R   0.225222 0.973401 0.107165 0.015194
C63   C     C_R   0.274781 0.473397 0.892836 0.015196
C64   C     C_R   0.725222 0.473399 0.107165 0.015192
C65   C     C_R   0.770614 0.984800 0.944538 -0.094798
C66   C     C_R   0.229390 0.984807 0.055464 -0.094799
C67   C     C_R   0.270614 0.484801 0.944538 -0.094798
C68   C     C_R   0.729389 0.484805 0.055463 -0.094800
C69   C     C_R   0.750331 0.903721 0.974494 0.019350
C70   C     C_R   0.249673 0.903730 0.025508 0.019352
C71   C     C_R   0.250330 0.403723 0.974493 0.019351
C72   C     C_R   0.749672 0.403727 0.025507 0.019351
C73   C     C_R   0.760677 0.876507 0.871717 0.033455
C74   C     C_R   0.239324 0.876510 0.128284 0.033454
C75   C     C_R   0.260677 0.376508 0.871717 0.033455
C76   C     C_R   0.739324 0.376509 0.128283 0.033454
C77   C     C_R   0.527263 0.169057 0.370828 0.018868
C78   C     C_R   0.472736 0.169057 0.629172 0.018867
C79   C     C_R   0.027263 0.669057 0.370828 0.018867
C80   C     C_R   0.972736 0.669057 0.629172 0.018866
C81   C     C_R   0.536686 0.259820 0.398039 -0.128739
C82   C     C_R   0.463311 0.259820 0.601960 -0.128740
C83   C     C_R   0.036686 0.759820 0.398039 -0.128739
C84   C     C_R   0.963310 0.759820 0.601960 -0.128740
C85   C     C_R   0.525544 0.262128 0.448698 -0.125224
C86   C     C_R   0.474453 0.262128 0.551301 -0.125225
C87   C     C_R   0.025544 0.762128 0.448698 -0.125224
C88   C     C_R   0.974453 0.762127 0.551301 -0.125225
C89   C     C_R   0.731563 0.001706 0.179425 0.538992
C90   C     C_R   0.268438 0.001706 0.820575 0.538991
C91   C     C_R   0.231563 0.501706 0.179425 0.538992
C92   C     C_R   0.768437 0.501706 0.820575 0.538990
C93   C     C_R   0.503704 0.174388 0.472867 0.033821
C94   C     C_R   0.496295 0.174388 0.527133 0.033820
C95   C     C_R   0.003704 0.674388 0.472867 0.033820
C96   C     C_R   0.996295 0.674388 0.527133 0.033819
C97   C     C_R   0.490009 0.086124 0.444980 -0.125867
C98   C     C_R   0.509991 0.086126 0.555020 -0.125866
C99   C     C_R   0.990010 0.586124 0.444980 -0.125867
C100  C     C_R   0.009991 0.586126 0.555020 -0.125866
C101  C     C_R   0.502067 0.083239 0.394338 -0.135958
C102  C     C_R   0.497933 0.083240 0.605662 -0.135959
C103  C     C_R   0.002068 0.583238 0.394338 -0.135958
C104  C     C_R   0.997933 0.583240 0.605662 -0.135959
C105  C     C_R   0.734246 0.972840 0.375643 0.027795
C106  C     C_R   0.265754 0.972841 0.624357 0.027795
C107  C     C_R   0.234246 0.472841 0.375642 0.027796
C108  C     C_R   0.765755 0.472842 0.624357 0.027797
C109  C     C_R   0.789106 0.954273 0.398641 -0.138248
C110  C     C_R   0.210894 0.954269 0.601360 -0.138250
C111  C     C_R   0.182181 0.479944 0.404378 -0.129615
C112  C     C_R   0.710895 0.454261 0.601361 -0.138254
C113  C     C_R   0.791776 0.944110 0.450060 -0.134756
C114  C     C_R   0.208223 0.944105 0.549941 -0.134758
C115  C     C_R   0.185217 0.473492 0.455564 -0.138042
C116  C     C_R   0.708223 0.444096 0.549941 -0.134757
C117  C     C_R   0.740048 0.957022 0.478635 0.023720
C118  C     C_R   0.259951 0.957022 0.521365 0.023720
C119  C     C_R   0.240049 0.457021 0.478635 0.023720
C120  C     C_R   0.759950 0.457021 0.521365 0.023719
C121  C     C_R   0.685215 0.973486 0.455564 -0.138041
C122  C     C_R   0.314783 0.973491 0.544436 -0.138042
C123  C     C_R   0.291777 0.444104 0.450059 -0.134758
C124  C     C_R   0.814782 0.473500 0.544435 -0.138044
C125  C     C_R   0.682180 0.979937 0.404378 -0.129615
C126  C     C_R   0.317819 0.979943 0.595622 -0.129615
C127  C     C_R   0.289106 0.454267 0.398640 -0.138251
C128  C     C_R   0.817818 0.479953 0.595621 -0.129614
C129  C     C_R   0.780831 0.006421 0.562361 0.029010
C130  C     C_R   0.219167 0.006420 0.437640 0.029012
C131  C     C_R   0.280834 0.506419 0.562360 0.029012
C132  C     C_R   0.719163 0.506417 0.437640 0.029013
C133  C     C_R   0.721123 0.347928 0.321481 0.541263
C134  C     C_R   0.278877 0.347928 0.678519 0.541263
C135  C     C_R   0.221123 0.847928 0.321481 0.541263
C136  C     C_R   0.778877 0.847928 0.678519 0.541262
C137  C     C_R   0.789462 0.977203 0.611762 -0.112850
C138  C     C_R   0.210537 0.977203 0.388237 -0.112852
C139  C     C_R   0.289463 0.477203 0.611762 -0.112853
C140  C     C_R   0.710535 0.477201 0.388238 -0.112853
C141  C     C_R   0.715983 0.841676 0.603274 -0.136402
C142  C     C_R   0.284017 0.841677 0.396726 -0.136401
C143  C     C_R   0.215984 0.341677 0.603274 -0.136401
C144  C     C_R   0.784018 0.341680 0.396726 -0.136401
C145  C     C_R   0.708074 0.867897 0.553914 -0.140590
C146  C     C_R   0.291925 0.867898 0.446086 -0.140590
C147  C     C_R   0.208075 0.367898 0.553914 -0.140590
C148  C     C_R   0.791926 0.367901 0.446086 -0.140588
C149  C     C_R   0.742386 0.946236 0.532515 0.041106
C150  C     C_R   0.257612 0.946235 0.467485 0.041109
C151  C     C_R   0.242388 0.446235 0.532514 0.041109
C152  C     C_R   0.757611 0.446235 0.467486 0.041111
C153  C     C_R   0.759000 0.892685 0.631684 0.006665
C154  C     C_R   0.241000 0.892685 0.368316 0.006665
C155  C     C_R   0.259000 0.392685 0.631684 0.006666
C156  C     C_R   0.741000 0.392686 0.368316 0.006665
C157  C     C_R   0.554159 0.158903 0.321553 0.538384
C158  C     C_R   0.445841 0.158903 0.678446 0.538385
C159  C     C_R   0.054159 0.658903 0.321553 0.538384
C160  C     C_R   0.945841 0.658903 0.678446 0.538383
C161  C     C_R   0.730726 0.004488 0.323892 0.539254
C162  C     C_R   0.269274 0.004488 0.676108 0.539254
C163  C     C_R   0.230726 0.504488 0.323892 0.539253
C164  C     C_R   0.769274 0.504488 0.676108 0.539252
C165  C     C_R   0.516201 0.070122 0.102487 -0.131552
C166  C     C_R   0.483744 0.070109 0.897529 -0.131540
C167  C     C_R   0.016219 0.570118 0.102481 -0.131548
C168  C     C_R   0.983763 0.570113 0.897524 -0.131544
C169  C     C_R   0.506840 0.070143 0.051550 0.012009
C170  C     C_R   0.493096 0.070135 0.948467 0.012005
C171  C     C_R   0.006861 0.570140 0.051545 0.012008
C172  C     C_R   0.993117 0.570138 0.948461 0.012007
C173  C     C_R   0.496782 0.976883 0.974344 -0.135012
C174  C     C_R   0.503115 0.976887 0.025680 -0.135008
C175  C     C_R   0.996816 0.476884 0.974336 -0.135011
C176  C     C_R   0.003149 0.476886 0.025672 -0.135009
Cr1   Cr    Cr6+3 0.756570 0.170940 0.251190 1.010588
Cr2   Cr    Cr6+3 0.243430 0.170940 0.748810 1.010588
Cr3   Cr    Cr6+3 0.256570 0.670940 0.251190 1.010587
Cr4   Cr    Cr6+3 0.743430 0.670940 0.748810 1.010589
Cr5   Cr    Cr6+3 0.623740 0.299110 0.249580 1.005859
Cr6   Cr    Cr6+3 0.376260 0.299110 0.750420 1.005862
Cr7   Cr    Cr6+3 0.123740 0.799110 0.249580 1.005860
Cr8   Cr    Cr6+3 0.876260 0.799110 0.750420 1.005861
Cr9   Cr    Cr6+3 0.625990 0.036240 0.250480 1.005341
Cr10  Cr    Cr6+3 0.374010 0.036240 0.749520 1.005340
Cr11  Cr    Cr6+3 0.125990 0.536240 0.250480 1.005340
Cr12  Cr    Cr6+3 0.874010 0.536240 0.749520 1.005340
H1    H     H_    0.479839 0.996841 0.878542 0.128859
H2    H     H_    0.520082 0.996858 0.121481 0.128852
H3    H     H_    0.979866 0.496847 0.878534 0.128857
H4    H     H_    0.020109 0.496852 0.121473 0.128855
H5    H     H_    0.659495 0.853754 0.036300 0.105012
H6    H     H_    0.340510 0.853768 0.963702 0.105005
H7    H     H_    0.159493 0.353758 0.036299 0.105010
H8    H     H_    0.840509 0.353763 0.963701 0.105008
H9    H     H_    0.652718 0.889572 0.124763 0.125994
H10   H     H_    0.347285 0.889580 0.875238 0.125982
H11   H     H_    0.152717 0.389575 0.124762 0.125991
H12   H     H_    0.847284 0.389577 0.875238 0.125986
H13   H     H_    0.556670 0.326954 0.381032 0.133258
H14   H     H_    0.443326 0.326952 0.618967 0.133260
H15   H     H_    0.056669 0.826954 0.381032 0.133258
H16   H     H_    0.943326 0.826952 0.618967 0.133260
H17   H     H_    0.528616 0.018468 0.537461 0.098319
H18   H     H_    0.471386 0.018466 0.462539 0.098318
H19   H     H_    0.028616 0.518468 0.537461 0.098319
H20   H     H_    0.971386 0.518466 0.462539 0.098318
H21   H     H_    0.505753 0.012499 0.625899 0.124191
H22   H     H_    0.494249 0.012496 0.374102 0.124190
H23   H     H_    0.005754 0.512499 0.625899 0.124191
H24   H     H_    0.994249 0.512496 0.374102 0.124191
H25   H     H_    0.536827 0.331009 0.469273 0.097734
H26   H     H_    0.463167 0.331006 0.530726 0.097735
H27   H     H_    0.036827 0.831009 0.469273 0.097735
H28   H     H_    0.963167 0.831006 0.530725 0.097735
H29   H     H_    0.829637 0.949856 0.377034 0.117981
H30   H     H_    0.170364 0.949848 0.622967 0.117981
H31   H     H_    0.139393 0.496496 0.387571 0.144420
H32   H     H_    0.670365 0.449832 0.622969 0.117979
H33   H     H_    0.822040 0.017848 0.634082 0.125112
H34   H     H_    0.177959 0.017848 0.365918 0.125112
H35   H     H_    0.322041 0.517848 0.634082 0.125112
H36   H     H_    0.677956 0.517845 0.365919 0.125111
H37   H     H_    0.493988 0.903984 0.954947 0.099340
H38   H     H_    0.505882 0.903991 0.045082 0.099353
H39   H     H_    0.994031 0.403986 0.954938 0.099344
H40   H     H_    0.005925 0.403989 0.045072 0.099349
H41   H     H_    0.834199 0.928607 0.467739 0.109954
H42   H     H_    0.165801 0.928598 0.532263 0.109955
H43   H     H_    0.144927 0.482165 0.477241 0.111241
H44   H     H_    0.665802 0.428582 0.532264 0.109957
H45   H     H_    0.677643 0.822644 0.531600 0.103391
H46   H     H_    0.322357 0.822646 0.468400 0.103390
H47   H     H_    0.177643 0.322645 0.531600 0.103390
H48   H     H_    0.822359 0.322650 0.468400 0.103387
H49   H     H_    0.691761 0.776349 0.617927 0.135936
H50   H     H_    0.308240 0.776351 0.382073 0.135935
H51   H     H_    0.191761 0.276350 0.617927 0.135935
H52   H     H_    0.808242 0.276356 0.382073 0.135933
H53   H     H_    0.644924 0.982154 0.477239 0.111238
H54   H     H_    0.355074 0.982163 0.522759 0.111241
H55   H     H_    0.334199 0.428595 0.467737 0.109955
H56   H     H_    0.855072 0.482179 0.522758 0.111244
H57   H     H_    0.639392 0.996483 0.387569 0.144420
H58   H     H_    0.360607 0.996494 0.612429 0.144420
H59   H     H_    0.329636 0.449845 0.377032 0.117980
H60   H     H_    0.860605 0.496511 0.612428 0.144420
H61   H     H_    0.471629 0.328746 0.877559 0.124172
H62   H     H_    0.528412 0.328753 0.122435 0.124190
H63   H     H_    0.971614 0.828748 0.877561 0.124178
H64   H     H_    0.028398 0.828751 0.122437 0.124184
H65   H     H_    0.491306 0.424489 0.955023 0.101288
H66   H     H_    0.508762 0.424493 0.044967 0.101289
H67   H     H_    0.991282 0.924491 0.955026 0.101289
H68   H     H_    0.008738 0.924492 0.044971 0.101289
H69   H     H_    0.831542 0.013439 0.122601 0.124883
H70   H     H_    0.168459 0.013441 0.877401 0.124882
H71   H     H_    0.331542 0.513439 0.122600 0.124883
H72   H     H_    0.668459 0.513441 0.877400 0.124881
H73   H     H_    0.715673 0.748626 0.975239 0.103665
H74   H     H_    0.284332 0.748635 0.024761 0.103665
H75   H     H_    0.215671 0.248629 0.975239 0.103665
H76   H     H_    0.784329 0.248632 0.024761 0.103665
H77   H     H_    0.725633 0.723578 0.886829 0.140632
H78   H     H_    0.274369 0.723581 0.113171 0.140631
H79   H     H_    0.225631 0.223579 0.886828 0.140632
H80   H     H_    0.774368 0.223579 0.113171 0.140631
H81   H     H_    0.838073 0.976510 0.034088 0.104875
H82   H     H_    0.161931 0.976516 0.965914 0.104873
H83   H     H_    0.338072 0.476511 0.034088 0.104877
H84   H     H_    0.661930 0.476515 0.965913 0.104871
H85   H     H_    0.783198 0.057171 0.961574 0.101728
H86   H     H_    0.216806 0.057180 0.038428 0.101728
H87   H     H_    0.283198 0.557173 0.961574 0.101728
H88   H     H_    0.716805 0.557178 0.038428 0.101728
O1    O     O_R   0.769900 0.064540 0.196060 -0.525447
O2    O     O_R   0.230100 0.064540 0.803940 -0.525446
O3    O     O_R   0.269900 0.564540 0.196060 -0.525447
O4    O     O_R   0.730100 0.564540 0.803940 -0.525447
O5    O     O_R   0.574760 0.239320 0.300850 -0.503628
O6    O     O_R   0.425240 0.239320 0.699150 -0.503628
O7    O     O_R   0.074760 0.739320 0.300850 -0.503628
O8    O     O_R   0.925240 0.739320 0.699150 -0.503628
O9    O     O_R   0.566290 0.069580 0.305400 -0.526152
O10   O     O_R   0.433710 0.069580 0.694600 -0.526149
O11   O     O_R   0.066290 0.569580 0.305400 -0.526151
O12   O     O_R   0.933710 0.569580 0.694600 -0.526150
O13   O     O_R   0.680760 0.993330 0.302620 -0.508859
O14   O     O_R   0.319240 0.993330 0.697380 -0.508858
O15   O     O_R   0.180760 0.493330 0.302620 -0.508859
O16   O     O_R   0.819240 0.493330 0.697380 -0.508858
O17   O     O_3   0.668770 0.168760 0.250420 -0.235997
O18   O     O_3   0.331230 0.168760 0.749580 -0.235999
O19   O     O_3   0.168770 0.668760 0.250420 -0.235997
O20   O     O_3   0.831230 0.668760 0.749580 -0.235999
O21   O     O_R   0.750800 0.274080 0.199250 -0.505764
O22   O     O_R   0.249200 0.274080 0.800750 -0.505764
O23   O     O_R   0.250800 0.774080 0.199250 -0.505765
O24   O     O_R   0.749200 0.774080 0.800750 -0.505763
O25   O     O_R   0.669990 0.371670 0.194150 -0.522927
O26   O     O_R   0.330010 0.371670 0.805850 -0.522924
O27   O     O_R   0.169990 0.871670 0.194150 -0.522926
O28   O     O_R   0.830010 0.871670 0.805850 -0.522926
O29   O     O_R   0.574600 0.238480 0.197800 -0.499135
O30   O     O_R   0.425400 0.238480 0.802200 -0.499128
O31   O     O_R   0.074600 0.738480 0.197800 -0.499132
O32   O     O_R   0.925400 0.738480 0.802200 -0.499131
O33   O     O_R   0.566130 0.068680 0.194240 -0.524090
O34   O     O_R   0.433870 0.068680 0.805760 -0.524098
O35   O     O_R   0.066130 0.568680 0.194240 -0.524092
O36   O     O_R   0.933870 0.568680 0.805760 -0.524095
O37   O     O_R   0.680610 0.992490 0.199570 -0.503667
O38   O     O_R   0.319390 0.992490 0.800430 -0.503671
O39   O     O_R   0.180610 0.492490 0.199570 -0.503668
O40   O     O_R   0.819390 0.492490 0.800430 -0.503670
O41   O     O_R   0.770060 0.065440 0.307230 -0.516613
O42   O     O_R   0.229940 0.065440 0.692770 -0.516613
O43   O     O_R   0.270060 0.565440 0.307230 -0.516613
O44   O     O_R   0.729940 0.565440 0.692770 -0.516613
O45   O     O_R   0.750960 0.274920 0.302300 -0.502113
O46   O     O_R   0.249040 0.274920 0.697700 -0.502114
O47   O     O_R   0.250960 0.774920 0.302300 -0.502114
O48   O     O_R   0.749040 0.774920 0.697700 -0.502114
O49   O     O_R   0.670160 0.372580 0.305320 -0.529062
O50   O     O_R   0.329840 0.372580 0.694680 -0.529064
O51   O     O_R   0.170160 0.872580 0.305320 -0.529063
O52   O     O_R   0.829840 0.872580 0.694680 -0.529063
C177  C     C_3   0.793697 0.065449 0.862077 -0.282389
C178  C     C_3   0.748366 0.152872 0.865687 -0.442660
H89   H     H_    0.703590 0.125388 0.854164 0.160304
H90   H     H_    0.745943 0.183343 0.904116 0.161517
H91   H     H_    0.761833 0.216655 0.840699 0.142927
H92   H     H_    0.837815 0.093103 0.875212 0.137052
H93   H     H_    0.798053 0.046213 0.822227 0.167350
C179  C     C_3   0.206306 0.065452 0.137926 -0.282389
C180  C     C_3   0.251638 0.152874 0.134317 -0.442659
H94   H     H_    0.296413 0.125389 0.145841 0.160303
H95   H     H_    0.254061 0.183347 0.095889 0.161520
H96   H     H_    0.238170 0.216657 0.159306 0.142927
H97   H     H_    0.162188 0.093108 0.124790 0.137051
H98   H     H_    0.201949 0.046214 0.177776 0.167349
C181  C     C_3   0.293697 0.565449 0.862076 -0.282388
C182  C     C_3   0.248367 0.652873 0.865687 -0.442661
H99   H     H_    0.203591 0.625391 0.854164 0.160304
H100  H     H_    0.245945 0.683345 0.904115 0.161517
H101  H     H_    0.261835 0.716656 0.840698 0.142927
H102  H     H_    0.337816 0.593102 0.875212 0.137053
H103  H     H_    0.298053 0.546213 0.822226 0.167350
C183  C     C_3   0.706306 0.565451 0.137925 -0.282390
C184  C     C_3   0.751639 0.652872 0.134316 -0.442658
H104  H     H_    0.796414 0.625386 0.145840 0.160303
H105  H     H_    0.754062 0.683345 0.095888 0.161520
H106  H     H_    0.738172 0.716655 0.159305 0.142927
H107  H     H_    0.662188 0.593108 0.124789 0.137050
H108  H     H_    0.701949 0.546214 0.177775 0.167349
C185  C     C_3   0.814397 0.099277 0.542987 -0.292020
C186  C     C_3   0.795264 0.197604 0.569524 -0.430605
H109  H     H_    0.747482 0.213645 0.562129 0.171768
H110  H     H_    0.802610 0.191907 0.610164 0.147806
H111  H     H_    0.822286 0.262651 0.555535 0.144955
H112  H     H_    0.862919 0.087104 0.548631 0.128308
H113  H     H_    0.807090 0.111957 0.502788 0.156287
C187  C     C_3   0.185597 0.099272 0.457013 -0.292019
C188  C     C_3   0.204734 0.197603 0.430481 -0.430606
H114  H     H_    0.252511 0.213656 0.437891 0.171768
H115  H     H_    0.197408 0.191904 0.389839 0.147814
H116  H     H_    0.177701 0.262644 0.444462 0.144948
H117  H     H_    0.137077 0.087099 0.451364 0.128308
H118  H     H_    0.192898 0.111946 0.497213 0.156283
C189  C     C_3   0.314403 0.599271 0.542986 -0.292019
C190  C     C_3   0.295266 0.697603 0.569518 -0.430606
H119  H     H_    0.247489 0.713656 0.562107 0.171768
H120  H     H_    0.302591 0.691904 0.610160 0.147814
H121  H     H_    0.322300 0.762643 0.555537 0.144947
H122  H     H_    0.362924 0.587098 0.548637 0.128307
H123  H     H_    0.307103 0.611944 0.502787 0.156283
C191  C     C_3   0.685591 0.599266 0.457015 -0.292017
C192  C     C_3   0.704729 0.697601 0.430486 -0.430603
H124  H     H_    0.752504 0.713659 0.437903 0.171768
H125  H     H_    0.697411 0.691903 0.389842 0.147817
H126  H     H_    0.677689 0.762637 0.444464 0.144941
H127  H     H_    0.637071 0.587091 0.451361 0.128306
H128  H     H_    0.692888 0.611935 0.497215 0.156281

loop_
_geom_bond_atom_site_label_1
_geom_bond_atom_site_label_2
_ccdc_geom_bond_type
C99   C103  A    
C7    C168  A    
C146  H46   S    
C185  C186  S    
C55   C59   A    
C126  H58   S    
C142  C146  A    
C131  C151  A    
C19   C20   A    
C45   O29   A    
C53   C69   A    
C92   O40   A    
C180  H94   S    
C50   H10   S    
C108  C164  S    
C130  C187  S    
C37   C69   S    
C26   C50   A    
C95   C99   A    
C29   C33   A    
C100  C104  A    
C190  H119  S    
C186  H111  S    
C3    C74   S    
C9    C13   A    
C41   H5    S    
C21   H66   S    
C146  C150  A    
C77   C101  A    
Cr7   O51   S    
C12   C16   A    
C56   C72   A    
C169  C174  A    
C124  H56   S    
C172  C175  A    
C141  C145  A    
C84   H16   S    
C6    C165  A    
C21   C22   A    
C119  C151  S    
C41   C49   A    
Cr12  O16   S    
C18   C170  A    
C165  C169  A    
C44   H8    S    
C178  H89   S    
C27   C31   A    
C143  H51   S    
C28   C32   A    
Cr9   O13   S    
Cr10  O10   S    
C82   H14   S    
C62   C66   A    
C167  C171  A    
C98   C102  A    
C60   C76   A    
C29   H69   S    
Cr6   O30   S    
Cr8   O52   S    
C128  H60   S    
C78   C82   A    
C134  C155  S    
C54   C70   A    
C36   C40   A    
C68   C72   A    
C165  H2    S    
C137  C153  A    
C2    O26   A    
C3    O23   A    
Cr8   O28   S    
C20   C172  A    
C132  C152  A    
C130  C138  A    
C180  H96   S    
C139  H35   S    
C160  O8    A    
C84   C88   A    
C179  C180  S    
Cr6   O6    S    
C119  C123  A    
C26   C90   S    
C5    C46   S    
C190  H121  S    
C105  C125  A    
C7    C48   S    
Cr6   O26   S    
Cr3   O23   S    
C8    C47   S    
C107  C127  A    
C173  H37   S    
C188  H114  S    
C136  C153  S    
C66   C70   A    
C183  C184  S    
C129  C185  S    
C158  O6    A    
C129  C137  A    
C189  H122  S    
C39   C71   S    
C34   H82   S    
C47   O31   A    
C4    O24   A    
C148  H48   S    
C191  C192  S    
C89   O37   A    
C55   C71   A    
C2    C75   S    
C26   C30   A    
C92   O4    A    
Cr10  O38   S    
C147  C151  A    
C184  H104  S    
C134  O46   A    
Cr4   O4    S    
C46   O34   A    
C6    C9    A    
C123  H55   S    
C184  H106  S    
C49   H9    S    
C121  H53   S    
C12   H63   S    
C64   C68   A    
Cr5   O17   S    
C138  H34   S    
C53   H73   S    
C187  C188  S    
C144  H52   S    
C25   C29   A    
C161  O41   A    
Cr8   O32   S    
C57   C73   A    
C179  H98   S    
C123  C127  A    
C78   C158  S    
C87   C95   A    
C130  C150  A    
C163  O43   A    
C23   C24   A    
C27   C91   S    
C52   H12   S    
C97   H18   S    
C110  C114  A    
C44   C52   A    
C164  O44   A    
C116  H44   S    
C79   C103  A    
C111  H31   S    
C27   C51   A    
C112  H32   S    
C7    C12   A    
C176  H40   S    
C30   C34   A    
C65   H85   S    
C32   H72   S    
Cr2   O22   S    
C10   C14   A    
C188  H116  S    
C164  O16   A    
C140  H36   S    
C192  H126  S    
C133  O49   A    
C108  C128  A    
C116  C120  A    
C88   C96   A    
C187  H117  S    
C144  C156  A    
C161  O13   A    
C86   H26   S    
C129  C149  A    
C61   C65   A    
C143  C155  A    
C139  C155  A    
C177  H92   S    
C89   O1    A    
C17   C18   A    
C36   H84   S    
C5    C166  A    
C142  C154  A    
C186  H110  S    
C4    C73   S    
Cr12  O20   S    
C42   C50   A    
C113  C117  A    
C107  C163  S    
C166  C170  A    
C115  C119  A    
C105  C161  S    
Cr9   O17   S    
Cr10  O14   S    
C93   C97   A    
C112  C116  A    
Cr11  O19   S    
C58   C74   A    
Cr4   O44   S    
C105  C109  A    
C40   C72   S    
C30   H70   S    
C1    C76   S    
C107  C111  A    
C148  C152  A    
C182  H100  S    
C23   H68   S    
C117  C149  S    
C102  H21   S    
C113  H41   S    
C117  C121  A    
C171  C176  A    
C11   H64   S    
C13   C17   A    
C166  H1    S    
C14   C22   A    
C9    H62   S    
Cr3   O47   S    
C141  C153  A    
C63   C75   A    
C183  H107  S    
C96   C100  A    
C190  H120  S    
C37   C41   A    
C163  O15   A    
C109  H29   S    
C40   C44   A    
C182  H99   S    
C125  H57   S    
C138  C154  A    
C81   C85   A    
C185  H113  S    
C83   C87   A    
C38   C70   S    
Cr1   O17   S    
C189  H123  S    
C6    C45   S    
C145  H45   S    
C78   C102  A    
C133  C156  S    
Cr3   O19   S    
Cr7   O19   S    
C80   C84   A    
C192  H124  S    
C131  C189  S    
C15   C19   A    
C135  C154  S    
C178  H90   S    
C80   C104  A    
C1    O21   A    
C60   H80   S    
C79   C159  S    
C80   C160  S    
C94   C98   A    
C135  O47   A    
C189  C190  S    
C137  H33   S    
C175  H39   S    
C47   O35   A    
C4    O28   A    
C191  H127  S    
C118  C150  S    
C22   H65   S    
C90   O38   A    
C63   C181  S    
Cr12  O12   S    
C178  H91   S    
C159  O7    A    
Cr11  O39   S    
C46   O30   A    
C124  C128  A    
C91   O3    A    
Cr4   O20   S    
Cr1   O21   S    
Cr7   O31   S    
Cr6   O18   S    
C180  H95   S    
C100  H19   S    
C162  O42   A    
C83   H15   S    
C53   C57   A    
C81   H13   S    
C61   C73   A    
C82   C86   A    
C33   C37   A    
C56   C60   A    
C48   O36   A    
Cr12  O36   S    
C35   C39   A    
C8    C167  A    
Cr4   O48   S    
C182  H101  S    
C77   C81   A    
Cr9   O33   S    
C177  H93   S    
Cr11  O35   S    
C31   C35   A    
C136  O52   A    
C127  H59   S    
C32   C36   A    
Cr3   O43   S    
C133  O45   A    
C142  H50   S    
Cr8   O8    S    
C162  O14   A    
C157  O9    A    
C184  H105  S    
C132  C140  A    
C106  C126  A    
C25   C89   S    
C99   H20   S    
C90   O2    A    
C174  H38   S    
C45   O33   A    
Cr12  O40   S    
C79   C83   A    
C43   C51   A    
C65   C69   A    
C181  H103  S    
C67   C71   A    
C106  C162  S    
C67   H87   S    
Cr10  O18   S    
C25   C49   A    
Cr11  O15   S    
C108  C112  A    
C168  C172  A    
Cr7   O7    S    
C134  O50   A    
C87   H27   S    
C62   C74   A    
C31   H71   S    
C145  C149  A    
C170  C173  A    
C147  H47   S    
C181  C182  S    
C93   C94   S    
Cr2   O46   S    
C177  C178  S    
C14   C18   A    
C95   C96   S    
C144  C148  A    
Cr8   O20   S    
C122  H54   S    
C173  C174  A    
C143  C147  A    
C167  H4    S    
C168  H3    S    
C55   H75   S    
C43   H7    S    
C56   H76   S    
C19   C171  A    
C38   C42   A    
C188  H115  S    
C118  C122  A    
C17   C169  A    
C192  H125  S    
C57   H77   S    
C187  H118  S    
C42   H6    S    
Cr2   O2    S    
Cr9   O9    S    
C86   C94   A    
C121  C125  A    
Cr11  O11   S    
C175  C176  A    
Cr5   O29   S    
Cr2   O18   S    
C59   H79   S    
C98   H17   S    
C115  H43   S    
C16   C20   A    
Cr5   O49   S    
C15   C23   A    
C64   C183  S    
C16   C24   A    
C181  H102  S    
C1    O25   A    
Cr1   O45   S    
C2    O22   A    
C110  H30   S    
C3    O27   A    
C135  O51   A    
C63   C67   A    
C120  C152  S    
C13   C21   A    
C54   H74   S    
C48   O32   A    
C131  C139  A    
C58   H78   S    
C91   O39   A    
C39   C43   A    
C159  O11   A    
C160  O12   A    
C122  C126  A    
C24   H67   S    
Cr5   O5    S    
C179  H97   S    
C85   H25   S    
C85   C93   A    
C68   H88   S    
C183  H108  S    
Cr4   O24   S    
C64   C76   A    
Cr5   O25   S    
C28   C92   S    
C109  C113  A    
Cr7   O27   S    
C114  C118  A    
C51   H11   S    
C62   C179  S    
C140  C156  A    
C11   C15   A    
C59   C75   A    
C157  O5    A    
C54   C58   A    
C185  H112  S    
C158  O10   A    
C141  H49   S    
C88   H28   S    
C33   H81   S    
C34   C38   A    
C35   H83   S    
C103  H24   S    
C114  H42   S    
Cr1   O1    S    
C101  H22   S    
Cr9   O37   S    
Cr6   O50   S    
Cr10  O34   S    
C10   H61   S    
C132  C191  S    
C5    C10   A    
C28   C52   A    
C8    C11   A    
C136  O48   A    
C191  H128  S    
C186  H109  S    
Cr2   O42   S    
C66   H86   S    
Cr3   O3    S    
Cr1   O41   S    
C106  C110  A    
C111  C115  A    
C104  H23   S    
C61   C177  S    
C97   C101  A    
C120  C124  A    
C77   C157  S    
