data_mof_unit_26764.cif
_audit_creation_date              2012-12-10T20:27:53-0500
_audit_creation_method            fapswitch 2.2
_symmetry_space_group_name_H-M    P1
_symmetry_Int_Tables_number       1
_space_group_crystal_system       triclinic
_cell_length_a                    12.88195
_cell_length_b                    10.657707
_cell_length_c                    9.87187
_cell_angle_alpha                 87.769884
_cell_angle_beta                  97.704956
_cell_angle_gamma                 89.739971
_cell_volume                      1342.01042177

loop_
_atom_site_label
_atom_site_type_symbol
_atom_type_description
_atom_site_fract_x
_atom_site_fract_y
_atom_site_fract_z
_atom_type_partial_charge
C1    C     C_R   0.502168 0.259969 0.502462 0.866928
C2    C     C_R   0.029863 0.476697 0.565257 0.190989
C3    C     C_R   0.969736 0.480638 0.435055 0.110525
C4    C     C_R   0.862665 0.489149 0.425072 -0.253335
C5    C     C_R   0.873546 0.482314 0.673271 -0.219591
C6    C     C_R   0.981786 0.476160 0.684220 -0.196599
C7    C     C_R   0.422047 0.062769 0.555395 0.038017
C8    C     C_R   0.502350 0.127453 0.503656 -0.067778
C9    C     C_R   0.566346 0.066422 0.422194 -0.220537
C10   C     C_R   0.560817 0.937281 0.413925 -0.182784
C11   C     C_R   0.489941 0.871774 0.485349 -0.107517
C12   C     C_R   0.298004 0.494273 0.472727 0.883893
C13   C     C_R   0.412955 0.936014 0.542156 -0.013581
C14   C     C_3   0.372124 0.915802 0.677105 0.320292
C15   C     C_3   0.391313 0.054897 0.695776 -0.491492
C16   C     C_R   0.437132 0.420194 0.063899 0.248210
C17   C     C_R   0.555723 0.585651 0.078742 -0.264062
C18   C     C_R   0.558443 0.584340 0.934229 0.506909
C19   C     C_R   0.435882 0.421505 0.921129 0.119242
C20   C     C_3   0.439791 0.282306 0.921987 -0.524397
C21   C     C_3   0.443765 0.280757 0.075583 -0.485938
C22   C     C_R   0.496887 0.739737 0.496538 0.862470
C23   C     C_R   0.701991 0.498521 0.527228 0.872797
C24   C     C_R   0.814376 0.491108 0.543439 -0.049828
C25   C     C_R   0.185423 0.481670 0.455662 -0.165220
C26   C     C_R   0.017048 0.477778 0.316162 -0.353506
C27   C     C_R   0.125944 0.472819 0.325358 0.509573
C28   C     C_R   0.137123 0.477406 0.574497 -0.386917
H1    H     H_    0.817230 0.494302 0.324129 0.158973
H2    H     H_    0.421431 0.854066 0.753646 0.139771
H3    H     H_    0.318906 0.110449 0.701483 0.217850
H4    H     H_    0.458506 0.071235 0.775571 0.167802
H5    H     H_    0.600277 0.653580 0.140138 0.162053
H6    H     H_    0.365287 0.244781 0.870680 0.203641
H7    H     H_    0.513084 0.246658 0.888543 0.217244
H8    H     H_    0.373832 0.237942 0.111628 0.213889
H9    H     H_    0.519941 0.245689 0.130756 0.213865
H10   H     H_    0.836539 0.480076 0.765457 0.144784
H11   H     H_    0.969379 0.482507 0.216972 0.142249
H12   H     H_    0.027628 0.471755 0.784795 0.130162
H13   H     H_    0.182638 0.478428 0.675213 0.186963
H14   H     H_    0.623205 0.117691 0.370716 0.147193
H15   H     H_    0.615970 0.888393 0.360303 0.148031
N1    N     N_R   0.499290 0.499140 0.142710 -0.125318
N2    N     N_R   0.499290 0.499180 0.857070 -0.144311
O1    O     O_R   0.500010 0.316790 0.614690 -0.620919
O2    O     O_R   0.500000 0.316760 0.385350 -0.626822
O3    O     O_R   0.346360 0.499990 0.595720 -0.638475
O4    O     O_R   0.346350 0.499960 0.366370 -0.559300
O5    O     O_R   0.500000 0.683240 0.614650 -0.582617
O6    O     O_R   0.499990 0.683210 0.385310 -0.618180
O7    O     O_R   0.653650 0.500040 0.633630 -0.603510
O8    O     O_R   0.653640 0.500010 0.404280 -0.631971
Zn1   Zn    Zn3+2 0.500010 0.500020 0.653130 0.968682
Zn2   Zn    Zn3+2 0.499990 0.499980 0.346870 0.959067
O9    O     O_3   0.615082 0.672392 0.868168 -0.616047
C29   C     C_3   0.721107 0.676802 0.928846 0.072769
H16   H     H_    0.770740 0.666930 0.846226 0.168642
H17   H     H_    0.745324 0.599034 0.005919 0.102825
C30   C     C_3   0.744269 0.804723 0.991140 -0.358162
H18   H     H_    0.732217 0.879520 0.908726 0.229577
H19   H     H_    0.689758 0.823707 0.066119 0.212474
C31   C     C_3   0.856684 0.810141 0.062961 -0.961208
H20   H     H_    0.869531 0.738398 0.148437 0.267156
H21   H     H_    0.871595 0.904350 0.105355 0.264943
H22   H     H_    0.913020 0.793266 0.989552 0.271634
O10   O     O_3   0.175461 0.469547 0.208808 -0.630463
C32   C     C_3   0.143488 0.365345 0.128640 0.093340
H23   H     H_    0.187723 0.369711 0.039390 0.164994
H24   H     H_    0.059440 0.371996 0.085203 0.119009
C33   C     C_3   0.168054 0.238301 0.206667 -0.403889
H25   H     H_    0.249695 0.237606 0.259837 0.230934
H26   H     H_    0.114781 0.224040 0.285522 0.214830
C34   C     C_3   0.153677 0.129560 0.109850 -0.936677
H27   H     H_    0.070712 0.125013 0.062101 0.265715
H28   H     H_    0.174954 0.039796 0.167716 0.273124
H29   H     H_    0.204753 0.141073 0.028171 0.264934
O11   O     O_3   0.262966 0.893205 0.672235 -0.630313
C35   C     C_3   0.223169 0.809063 0.571252 0.138883
H30   H     H_    0.167945 0.745477 0.616706 0.168094
H31   H     H_    0.284180 0.748142 0.537344 0.116440
C36   C     C_3   0.162464 0.883523 0.449709 -0.372382
H32   H     H_    0.100175 0.940691 0.486281 0.235636
H33   H     H_    0.215994 0.948603 0.403240 0.226935
C37   C     C_3   0.112101 0.797519 0.340446 -0.940138
H34   H     H_    0.173032 0.740397 0.301136 0.284913
H35   H     H_    0.069668 0.854822 0.253956 0.270392
H36   H     H_    0.055032 0.735039 0.383491 0.273526

loop_
_geom_bond_atom_site_label_1
_geom_bond_atom_site_label_2
_ccdc_geom_bond_type
C31   H21   S    
C16   C21   S    
C1    C8    S    
C19   C20   S    
C12   O3    A    
C12   O4    A    
C29   H16   S    
C7    C8    A    
C21   H8    S    
C37   H34   S    
C25   C28   A    
O3    Zn1   S    
C9    H14   S    
O5    Zn1   S    
C34   H28   S    
C30   C31   S    
O2    Zn2   S    
C32   C33   S    
C5    C6    A    
C4    C24   A    
C26   H11   S    
C29   H17   S    
C28   H13   S    
O9    C29   S    
C30   H19   S    
C32   H23   S    
C20   H7    S    
C8    C9    A    
C34   H29   S    
C23   C24   S    
C9    C10   A    
C16   N1    A    
C4    H1    S    
C18   O9    S    
C22   O5    A    
C20   H6    S    
C37   H35   S    
C31   H22   S    
C5    H10   S    
C2    C6    A    
C17   H5    S    
C14   H2    S    
O7    Zn1   S    
C23   O8    A    
O8    Zn2   S    
C34   H27   S    
O10   C32   S    
C15   H4    S    
C35   H31   S    
O11   C35   S    
C1    O2    A    
C29   C30   S    
O4    Zn2   S    
C35   H30   S    
C30   H18   S    
C35   C36   S    
O1    Zn1   S    
C17   C18   A    
C26   C27   A    
N2    Zn1   S    
C36   H33   S    
C6    H12   S    
C3    C4    A    
C18   N2    A    
C33   H26   S    
C37   H36   S    
C10   H15   S    
C3    C26   A    
C33   C34   S    
C19   N2    A    
C15   H3    S    
C25   C27   A    
C36   C37   S    
C11   C22   S    
C12   C25   S    
C2    C3    A    
C17   N1    A    
C33   H25   S    
C11   C13   A    
N1    Zn2   S    
C23   O7    A    
C5    C24   A    
C16   C19   A    
C7    C15   S    
O6    Zn2   S    
C14   O11   S    
C1    O1    A    
C27   O10   S    
C10   C11   A    
C31   H20   S    
C7    C13   A    
C21   H9    S    
C20   C21   S    
C32   H24   S    
C36   H32   S    
C14   C15   S    
C2    C28   A    
C13   C14   S    
C22   O6    A    
