data_mof_unit_22568.cif
_audit_creation_date              2012-10-26T21:02:12-0400
_audit_creation_method            fapswitch 2.2
_symmetry_space_group_name_H-M    P1
_symmetry_Int_Tables_number       1
_space_group_crystal_system       triclinic
_cell_length_a                    9.832342
_cell_length_b                    10.914349
_cell_length_c                    13.880571
_cell_angle_alpha                 91.359795
_cell_angle_beta                  85.304823
_cell_angle_gamma                 90.346147
_cell_volume                      1484.14498538

loop_
_atom_site_label
_atom_site_type_symbol
_atom_type_description
_atom_site_fract_x
_atom_site_fract_y
_atom_site_fract_z
_atom_type_partial_charge
C1    C     C_R   0.499648 0.734498 0.505478 0.591868
C2    C     C_R   0.498490 0.266325 0.508228 0.548951
C3    C     C_R   0.521879 0.499861 0.317583 0.558196
C4    C     C_1   0.534567 0.499115 0.214685 0.108622
C5    C     C_2   0.554414 0.497176 0.024297 0.221619
C6    C     C_2   0.441508 0.492295 0.975410 0.233598
C7    C     C_1   0.454026 0.493065 0.871778 0.110969
C8    C     C_1   0.544823 0.498250 0.127970 0.107999
C9    C     C_1   0.465559 0.494513 0.785149 0.148071
C10   C     C_2   0.589599 0.069717 0.545303 0.244743
C11   C     C_2   0.489010 0.152013 0.560356 0.204035
C12   C     C_2   0.563219 0.952534 0.495721 0.159555
C13   C     C_2   0.496342 0.860356 0.543542 0.196775
C14   C     C_2   0.064950 0.534536 0.571549 0.401624
C15   C     C_2   0.918339 0.494100 0.575597 0.422733
C16   C     C_R   0.478251 0.497164 0.682317 0.602973
Cl1   Cl    Cl    0.903757 0.612662 0.418393 -0.320649
Cl2   Cl    Cl    0.719817 0.503100 0.964501 -0.439434
Cl3   Cl    Cl    0.428358 0.188578 0.680926 -0.396410
Cl4   Cl    Cl    0.110084 0.640035 0.660654 -0.398452
Cl5   Cl    Cl    0.856203 0.418256 0.680409 -0.355577
Cu1   Cu    Cu3+1 0.361370 0.499980 0.499980 1.270434
Cu2   Cu    Cu3+1 0.638630 0.500020 0.500020 1.277804
H1    H     H_    0.069313 0.478756 0.989581 0.417790
H2    H     H_    0.911688 0.967355 0.626608 0.407871
H3    H     H_    0.706540 0.056253 0.261283 0.401070
H4    H     H_    0.343195 0.761476 0.779062 0.397829
H5    H     H_    0.219950 0.234588 0.337469 0.377502
N1    N     N_2   0.152970 0.501340 0.501040 -0.090433
N2    N     N_2   0.846830 0.501370 0.501060 -0.059738
O1    O     O_R   0.382960 0.678040 0.499980 -0.466755
O2    O     O_2   0.251127 0.598594 0.097997 -0.219060
O3    O     O_3   0.158914 0.480902 0.951412 -0.434820
O4    O     O_2   0.840272 0.161769 0.526363 -0.175814
O5    O     O_2   0.731927 0.153231 0.691615 -0.144997
O6    O     O_3   0.818750 0.949761 0.607096 -0.447174
O7    O     O_2   0.772361 0.872092 0.376613 -0.158106
O8    O     O_2   0.544855 0.857976 0.316385 -0.268016
O9    O     O_3   0.659921 0.072838 0.326224 -0.496564
O10   O     O_2   0.516421 0.942397 0.727068 -0.179607
O11   O     O_2   0.290592 0.950391 0.662319 -0.183756
O12   O     O_R   0.617100 0.678080 0.500020 -0.458031
O13   O     O_3   0.381115 0.742256 0.712115 -0.506916
O14   O     O_2   0.095408 0.263492 0.510429 -0.213340
O15   O     O_2   0.990436 0.369171 0.382545 -0.196514
O16   O     O_3   0.240702 0.320825 0.354988 -0.444730
O17   O     O_R   0.366380 0.499950 0.637830 -0.456263
O18   O     O_R   0.600520 0.499990 0.637860 -0.478446
O19   O     O_R   0.382900 0.321920 0.499980 -0.449588
O20   O     O_R   0.617040 0.321960 0.500020 -0.463479
O21   O     O_R   0.399480 0.500010 0.362140 -0.443169
O22   O     O_R   0.633620 0.500050 0.362170 -0.455301
O23   O     O_2   0.260825 0.374153 0.094877 -0.219522
S1    S     S_3+6 0.274867 0.486384 0.034078 0.084355
S2    S     S_3+6 0.748535 0.088109 0.594836 0.165448
S3    S     S_3+6 0.636630 0.934222 0.375520 0.073585
S4    S     S_3+6 0.420050 0.878265 0.663833 0.092757
S5    S     S_3+6 0.114837 0.363551 0.437949 0.191883

loop_
_geom_bond_atom_site_label_1
_geom_bond_atom_site_label_2
_ccdc_geom_bond_type
C5    C8    S    
C3    O22   A    
C6    C7    S    
C10   S2    S    
C2    O19   A    
C14   Cl4   S    
O8    S3    D    
O9    S3    S    
C15   Cl5   S    
C4    C8    T    
C5    Cl2   S    
H5    O16   S    
C16   O18   A    
Cu1   O17   S    
O11   S4    D    
O4    S2    D    
O6    S2    S    
O23   S1    D    
Cu2   O18   S    
Cl1   N2    S    
C11   Cl3   S    
Cu2   O22   S    
C12   S3    S    
Cu2   O12   S    
C10   C12   S    
C6    S1    S    
Cu1   O19   S    
C2    C11   S    
N1    S5    S    
C16   O17   A    
O2    S1    D    
Cu1   N1    S    
C9    C16   S    
C5    C6    D    
H3    O9    S    
O15   S5    D    
C1    C13   S    
Cu1   O1    S    
O13   S4    S    
C14   N1    D    
O5    S2    D    
C3    C4    S    
Cu2   N2    S    
H4    O13   S    
C1    O12   A    
C1    O1    A    
C13   S4    S    
C12   C13   D    
C15   N2    D    
C10   C11   D    
O3    S1    S    
C7    C9    T    
C3    O21   A    
Cu1   Cu2   S    
Cu2   O20   S    
O10   S4    D    
C2    O20   A    
H2    O6    S    
C14   C15   S    
O7    S3    D    
O16   S5    S    
H1    O3    S    
O14   S5    D    
Cu1   O21   S    
