data_mof_unit_35988.cif
_audit_creation_date              2012-12-10T17:21:00-0500
_audit_creation_method            fapswitch 2.2
_symmetry_space_group_name_H-M    P1
_symmetry_Int_Tables_number       1
_space_group_crystal_system       triclinic
_cell_length_a                    18.355696
_cell_length_b                    25.864858
_cell_length_c                    18.242256
_cell_angle_alpha                 90.067169
_cell_angle_beta                  89.994654
_cell_angle_gamma                 90.111096
_cell_volume                      8660.80746959

loop_
_atom_site_label
_atom_site_type_symbol
_atom_type_description
_atom_site_fract_x
_atom_site_fract_y
_atom_site_fract_z
_atom_type_partial_charge
C1    C     C_R   0.389753 0.250153 0.139892 0.850573
C2    C     C_R   0.389798 0.134279 0.682035 -0.099819
C3    C     C_R   0.938932 0.358801 0.136520 -0.203724
C4    C     C_R   0.588210 0.623485 0.211846 -0.168375
C5    C     C_R   0.600193 0.369188 0.799530 -0.170497
C6    C     C_R   0.410367 0.170484 0.394226 -0.200795
C7    C     C_R   0.438801 0.858720 0.636409 -0.203725
C8    C     C_R   0.094940 0.164975 0.760117 -0.174772
C9    C     C_R   0.104131 0.828943 0.248929 -0.176271
C10   C     C_R   0.975096 0.697433 0.882961 -0.173713
C11   C     C_R   0.993788 0.321842 0.137412 -0.182901
C12   C     C_R   0.594814 0.664913 0.260244 -0.174757
C13   C     C_R   0.594788 0.331921 0.107341 -0.181137
C14   C     C_R   0.603862 0.329125 0.748671 -0.176333
C15   C     C_R   0.475584 0.196702 0.382463 -0.173852
C16   C     C_R   0.493715 0.821802 0.637351 -0.182897
C17   C     C_R   0.254500 0.054177 0.135393 -0.134078
C18   C     C_R   0.243114 0.946834 0.135432 -0.160635
C19   C     C_R   0.754566 0.554189 0.635387 -0.134245
C20   C     C_R   0.743155 0.446848 0.635447 -0.160733
C21   C     C_R   0.253091 0.027279 0.201539 -0.132721
C22   C     C_R   0.246579 0.973738 0.201575 -0.153912
C23   C     C_R   0.753188 0.527299 0.701541 -0.132668
C24   C     C_R   0.566536 0.633647 0.861047 -0.125736
C25   C     C_R   0.746657 0.473758 0.701586 -0.153832
C26   C     C_R   0.247939 0.973119 0.067652 0.078116
C27   C     C_R   0.251148 0.027458 0.067577 0.071748
C28   C     C_R   0.747961 0.473126 0.567660 0.078119
C29   C     C_R   0.751177 0.527464 0.567575 0.071839
C30   C     C_R   0.248349 0.946349 0.000169 -0.145375
C31   C     C_R   0.249793 0.053823 0.999970 -0.139939
C32   C     C_R   0.748345 0.446349 0.500179 -0.145379
C33   C     C_R   0.749796 0.553824 0.499965 -0.139971
C34   C     C_R   0.244549 0.972753 0.932652 0.065373
C35   C     C_R   0.913300 0.379354 0.791852 -0.188349
C36   C     C_R   0.245215 0.027170 0.932575 0.068056
C37   C     C_R   0.744524 0.472749 0.432659 0.065414
C38   C     C_R   0.745198 0.527166 0.432574 0.068016
C39   C     C_R   0.238196 0.946036 0.865098 -0.123681
C40   C     C_R   0.240978 0.053717 0.864872 -0.133521
C41   C     C_R   0.738145 0.446027 0.365110 -0.123651
C42   C     C_R   0.740956 0.553709 0.364867 -0.133645
C43   C     C_R   0.232498 0.973038 0.799300 -0.136879
C44   C     C_R   0.235331 0.026692 0.799045 -0.152078
C45   C     C_R   0.732437 0.473024 0.299308 -0.136764
C46   C     C_R   0.889384 0.634596 0.181598 -0.099875
C47   C     C_R   0.735287 0.526678 0.299044 -0.152025
C48   C     C_R   0.249977 0.109423 0.999920 0.783901
C49   C     C_R   0.249804 0.890641 0.000245 0.790533
C50   C     C_R   0.749978 0.609423 0.499910 0.783972
C51   C     C_R   0.749803 0.390641 0.500258 0.790531
C52   C     C_R   0.251303 0.391392 0.999751 0.874403
C53   C     C_R   0.252203 0.608628 0.999454 0.817754
C54   C     C_R   0.751311 0.891391 0.499753 0.874480
C55   C     C_R   0.752200 0.108628 0.499454 0.817625
C56   C     C_3   0.176875 0.470495 0.024900 0.396693
C57   C     C_R   0.095817 0.830376 0.606268 -0.181377
C58   C     C_3   0.279904 0.529234 0.921083 0.405995
C59   C     C_3   0.174096 0.530239 0.013664 0.355340
C60   C     C_3   0.268866 0.469590 0.918854 0.379364
C61   C     C_3   0.676847 0.970493 0.524796 0.396836
C62   C     C_3   0.780084 0.029230 0.421149 0.405958
C63   C     C_3   0.674071 0.030229 0.513489 0.355379
C64   C     C_3   0.769014 0.969589 0.418893 0.379385
C65   C     C_3   0.311579 0.470396 0.050670 -0.644229
C66   C     C_3   0.305441 0.529835 0.056634 -0.605591
C67   C     C_3   0.811506 0.970397 0.550779 -0.644142
C68   C     C_R   0.066502 0.133623 0.361030 -0.125705
C69   C     C_3   0.805327 0.029834 0.556753 -0.605574
C70   C     C_3   0.251788 0.449198 0.998180 -0.098527
C71   C     C_3   0.252387 0.550863 0.997136 -0.092391
C72   C     C_3   0.751801 0.949196 0.498190 -0.098592
C73   C     C_3   0.752398 0.050861 0.497139 -0.092419
C74   C     C_R   0.015857 0.336752 0.846264 -0.140646
C75   C     C_R   0.000932 0.671690 0.137762 -0.148553
C76   C     C_R   0.135289 0.801683 0.724826 -0.142997
C77   C     C_R   0.112034 0.171552 0.250243 -0.132221
C78   C     C_R   0.515982 0.836819 0.346125 -0.140678
C79   C     C_R   0.401882 0.837242 0.244955 0.123991
C80   C     C_R   0.501302 0.171419 0.638160 -0.148561
C81   C     C_R   0.634546 0.302830 0.225606 -0.142592
C82   C     C_R   0.612065 0.671581 0.750262 -0.132009
C83   C     C_R   0.970098 0.379236 0.841610 -0.145907
C84   C     C_R   0.946800 0.634460 0.132621 -0.215024
C85   C     C_R   0.148850 0.827902 0.660017 -0.165488
C86   C     C_R   0.115556 0.133558 0.303545 -0.180732
C87   C     C_R   0.470280 0.879329 0.341406 -0.146042
C88   C     C_R   0.447306 0.134079 0.633167 -0.214647
C89   C     C_R   0.647747 0.329597 0.161179 -0.165564
C90   C     C_R   0.385194 0.171447 0.737370 0.119501
C91   C     C_R   0.615594 0.633588 0.803566 -0.180263
C92   C     C_3   0.058687 0.438770 0.033309 -0.328435
C93   C     C_3   0.292671 0.570283 0.807391 -0.212436
C94   C     C_3   0.075091 0.579890 0.974148 -0.225484
C95   C     C_3   0.235282 0.436040 0.803877 -0.137465
C96   C     C_3   0.558693 0.938688 0.533143 -0.328967
C97   C     C_3   0.793144 0.070293 0.307501 -0.212563
C98   C     C_3   0.575082 0.079770 0.473663 -0.225161
C99   C     C_3   0.735589 0.936071 0.303855 -0.137347
C100  C     C_R   0.527465 0.307232 0.116757 0.123744
C101  C     C_R   0.390941 0.748741 0.861430 0.780275
C102  C     C_R   0.511688 0.670851 0.865656 0.107689
C103  C     C_R   0.901791 0.337191 0.745053 0.123925
C104  C     C_R   0.884977 0.671613 0.237154 0.119448
C105  C     C_R   0.028096 0.806328 0.616121 0.123804
C106  C     C_R   0.011672 0.170839 0.365650 0.107690
C107  C     C_R   0.450532 0.793942 0.246082 0.073883
C108  C     C_R   0.441701 0.209973 0.745413 0.028663
C109  C     C_R   0.513001 0.278302 0.182304 0.072746
C110  C     C_R   0.504388 0.709511 0.809034 0.027259
C111  C     C_R   0.950482 0.293914 0.746137 0.073864
C112  C     C_R   0.389417 0.750273 0.140230 0.847970
C113  C     C_R   0.941572 0.710067 0.245282 0.028661
C114  C     C_R   0.013330 0.777822 0.681972 0.072851
C115  C     C_R   0.004379 0.209501 0.309030 0.027300
C116  C     C_R   0.007306 0.293719 0.798791 0.024425
C117  C     C_R   0.999202 0.710103 0.193119 0.058289
C118  C     C_R   0.067976 0.776285 0.736962 0.035828
C119  C     C_R   0.057143 0.209911 0.251837 0.047258
C120  C     C_R   0.507366 0.793751 0.298725 0.024417
C121  C     C_R   0.499376 0.209982 0.693302 0.058232
C122  C     C_R   0.567617 0.276834 0.237333 0.035873
C123  C     C_R   0.388742 0.249328 0.859160 0.782956
C124  C     C_R   0.557156 0.709928 0.751845 0.047188
C125  C     C_R   0.444437 0.750934 0.197420 -0.141898
C126  C     C_R   0.442628 0.248982 0.801006 -0.132004
C127  C     C_R   0.446466 0.251271 0.195350 -0.142775
C128  C     C_R   0.448191 0.747716 0.806785 -0.130233
C129  C     C_R   0.944440 0.250934 0.697419 -0.141856
C130  C     C_R   0.942635 0.748981 0.301011 -0.131980
C131  C     C_R   0.946473 0.751278 0.695347 -0.142931
C132  C     C_R   0.948202 0.247721 0.306796 -0.130256
C133  C     C_R   0.492290 0.708178 0.202128 0.017231
C134  C     C_R   0.889755 0.750156 0.639891 0.850372
C135  C     C_R   0.495191 0.289294 0.800781 0.038851
C136  C     C_R   0.433952 0.224255 0.261755 0.009003
C137  C     C_R   0.445405 0.785518 0.750613 0.029624
C138  C     C_R   0.992347 0.208206 0.702070 0.017242
C139  C     C_R   0.995318 0.789217 0.300903 0.038788
C140  C     C_R   0.933693 0.724661 0.762024 0.009061
C141  C     C_R   0.945459 0.285550 0.250661 0.029535
C142  C     C_R   0.047079 0.207793 0.756189 0.075677
C143  C     C_R   0.051205 0.788992 0.248039 0.073686
C144  C     C_R   0.988096 0.724279 0.816549 0.086047
C145  C     C_R   0.890942 0.248743 0.361431 0.780289
C146  C     C_R   0.998602 0.285362 0.194979 0.077141
C147  C     C_R   0.547016 0.707763 0.256253 0.075689
C148  C     C_R   0.551071 0.289083 0.747908 0.073657
C149  C     C_R   0.488351 0.223886 0.316286 0.086118
C150  C     C_R   0.498558 0.785341 0.694941 0.077144
C151  C     C_R   0.054054 0.250462 0.804018 -0.130477
C152  C     C_R   0.053326 0.749116 0.195427 -0.130241
C153  C     C_R   0.054606 0.749979 0.803506 -0.125352
C154  C     C_R   0.054700 0.248434 0.196900 -0.127975
C155  C     C_R   0.554053 0.750463 0.304018 -0.130519
C156  C     C_R   0.889417 0.250273 0.640230 0.848003
C157  C     C_R   0.553338 0.249113 0.695442 -0.130265
C158  C     C_R   0.554588 0.250009 0.303525 -0.125196
C159  C     C_R   0.554693 0.748440 0.696893 -0.127983
C160  C     C_R   0.487274 0.665818 0.152783 -0.158326
C161  C     C_R   0.492698 0.330507 0.852253 -0.184516
C162  C     C_R   0.368017 0.197016 0.274813 -0.133853
C163  C     C_R   0.390061 0.823834 0.748626 -0.133482
C164  C     C_R   0.987381 0.165875 0.652673 -0.158346
C165  C     C_R   0.992932 0.830373 0.352472 -0.184827
C166  C     C_R   0.867511 0.697788 0.775331 -0.133934
C167  C     C_R   0.888744 0.749330 0.359162 0.782850
C168  C     C_R   0.890175 0.323911 0.248725 -0.133216
C169  C     C_R   0.534632 0.623795 0.157536 0.172723
C170  C     C_R   0.544264 0.370318 0.851388 0.166482
C171  C     C_R   0.356406 0.170509 0.340430 0.172829
C172  C     C_R   0.387628 0.860427 0.692563 0.165668
C173  C     C_R   0.034806 0.123886 0.657357 0.172733
C174  C     C_R   0.044629 0.870101 0.351727 0.166416
C175  C     C_R   0.855680 0.671604 0.841166 0.172201
C176  C     C_R   0.887792 0.360534 0.192699 0.166067
C177  C     C_R   0.110431 0.249885 0.859946 0.783106
C178  C     C_R   0.413461 0.879439 0.291674 -0.188479
C179  C     C_R   0.110230 0.749883 0.139858 0.785339
C180  C     C_R   0.110257 0.749843 0.860171 0.784493
C181  C     C_R   0.110516 0.249594 0.140208 0.784176
C182  C     C_R   0.610429 0.749887 0.359947 0.783054
C183  C     C_R   0.610233 0.249884 0.639863 0.785325
C184  C     C_R   0.610253 0.249846 0.360175 0.784640
C185  C     C_R   0.610509 0.749601 0.640202 0.784176
C186  C     C_R   0.088395 0.123580 0.711656 -0.168239
C187  C     C_R   0.100579 0.868942 0.299894 -0.170563
C188  C     C_R   0.909649 0.671558 0.894954 -0.200765
H1    H     H_    0.174446 0.462604 0.085244 0.026067
H2    H     H_    0.450213 0.332922 0.893196 0.130022
H3    H     H_    0.331287 0.539548 0.790068 0.104069
H4    H     H_    0.323975 0.604090 0.828069 0.173180
H5    H     H_    0.261673 0.582829 0.758379 0.191004
H6    H     H_    0.041036 0.588847 0.925604 0.192368
H7    H     H_    0.038552 0.564909 0.017697 0.114337
H8    H     H_    0.101636 0.616401 0.992158 0.118761
H9    H     H_    0.267566 0.400203 0.811853 0.158536
H10   H     H_    0.267961 0.464788 0.773183 0.128387
H11   H     H_    0.187378 0.425880 0.769681 0.180632
H12   H     H_    0.513532 0.921737 0.500848 0.173386
H13   H     H_    0.324810 0.195843 0.234449 0.119942
H14   H     H_    0.539567 0.976051 0.556232 0.154396
H15   H     H_    0.572119 0.911418 0.578130 0.156636
H16   H     H_    0.831778 0.039549 0.290248 0.104133
H17   H     H_    0.824417 0.104083 0.328280 0.173053
H18   H     H_    0.762271 0.082866 0.258425 0.191064
H19   H     H_    0.541215 0.088720 0.424988 0.192598
H20   H     H_    0.538388 0.064726 0.517033 0.114218
H21   H     H_    0.601491 0.116294 0.491830 0.118461
H22   H     H_    0.767832 0.900219 0.311866 0.158471
H23   H     H_    0.768342 0.964816 0.273233 0.128438
H24   H     H_    0.348392 0.826162 0.790483 0.127882
H25   H     H_    0.687734 0.925940 0.269573 0.180617
H26   H     H_    0.293436 0.845800 0.229216 0.154060
H27   H     H_    0.347534 0.870468 0.162101 0.200311
H28   H     H_    0.291890 0.204231 0.776931 0.191354
H29   H     H_    0.332725 0.159374 0.834531 0.196401
H30   H     H_    0.464333 0.352028 0.051779 0.159985
H31   H     H_    0.497307 0.298011 0.011051 0.185338
H32   H     H_    0.414028 0.657521 0.916325 0.183677
H33   H     H_    0.469877 0.702669 0.959293 0.192558
H34   H     H_    0.793352 0.345732 0.729229 0.154140
H35   H     H_    0.947010 0.164764 0.609479 0.131419
H36   H     H_    0.847502 0.370460 0.662198 0.200255
H37   H     H_    0.791752 0.704286 0.277093 0.191436
H38   H     H_    0.832804 0.659355 0.334429 0.196422
H39   H     H_    0.965490 0.851431 0.551059 0.159722
H40   H     H_    0.997415 0.796987 0.510590 0.186049
H41   H     H_    0.914026 0.157539 0.416365 0.183591
H42   H     H_    0.969910 0.202682 0.459292 0.192585
H43   H     H_    0.950421 0.832812 0.393385 0.129982
H44   H     H_    0.824298 0.696621 0.734977 0.120395
H45   H     H_    0.848522 0.326256 0.290597 0.127953
H46   H     H_    0.138284 0.163069 0.800211 0.135381
H47   H     H_    0.148583 0.829983 0.209982 0.125427
H48   H     H_    0.015386 0.695878 0.926210 0.121970
H49   H     H_    0.339999 0.536916 0.919398 -0.011334
H50   H     H_    0.032051 0.322037 0.092298 0.128555
H51   H     H_    0.638156 0.663002 0.300341 0.135475
H52   H     H_    0.648306 0.330182 0.709717 0.125530
H53   H     H_    0.515862 0.195183 0.425725 0.121582
H54   H     H_    0.531997 0.822011 0.592254 0.128488
H55   H     H_    0.232684 0.047426 0.747674 0.122169
H56   H     H_    0.225395 0.952323 0.748305 0.146803
H57   H     H_    0.732637 0.547409 0.247670 0.122163
H58   H     H_    0.725323 0.452304 0.248318 0.146463
H59   H     H_    0.258073 0.095920 0.138023 0.112500
H60   H     H_    0.155376 0.547253 0.066906 0.001633
H61   H     H_    0.235414 0.905454 0.137783 0.110911
H62   H     H_    0.758149 0.595932 0.638007 0.112448
H63   H     H_    0.735441 0.405470 0.637805 0.110843
H64   H     H_    0.256158 0.048074 0.252924 0.126219
H65   H     H_    0.244086 0.952995 0.252991 0.114443
H66   H     H_    0.756298 0.548103 0.752923 0.125829
H67   H     H_    0.744180 0.453019 0.753005 0.114439
H68   H     H_    0.236397 0.904239 0.862495 0.118157
H69   H     H_    0.241056 0.095448 0.862218 0.118041
H70   H     H_    0.736336 0.404230 0.362514 0.118031
H71   H     H_    0.321715 0.452000 0.901134 -0.008525
H72   H     H_    0.741053 0.595440 0.362205 0.118046
H73   H     H_    0.306058 0.453313 0.106355 0.245630
H74   H     H_    0.360444 0.547493 0.050314 0.225462
H75   H     H_    0.285281 0.540300 0.112247 0.236883
H76   H     H_    0.366496 0.459689 0.029756 0.209498
H77   H     H_    0.805911 0.953305 0.606451 0.245683
H78   H     H_    0.860337 0.047506 0.550568 0.225537
H79   H     H_    0.785033 0.040283 0.612323 0.236860
H80   H     H_    0.866459 0.959708 0.529945 0.209611
H81   H     H_    0.125514 0.091386 0.716201 0.127998
H82   H     H_    0.674354 0.962641 0.585148 0.026054
H83   H     H_    0.141386 0.899175 0.298587 0.121469
H84   H     H_    0.901010 0.651245 0.946130 0.131400
H85   H     H_    0.935861 0.386300 0.092086 0.122247
H86   H     H_    0.625275 0.591264 0.216446 0.128058
H87   H     H_    0.640896 0.399489 0.798125 0.121624
H88   H     H_    0.401892 0.149932 0.445239 0.131026
H89   H     H_    0.435717 0.886206 0.591957 0.122279
H90   H     H_    0.058039 0.338323 0.887594 0.161069
H91   H     H_    0.043764 0.670260 0.097086 0.114796
H92   H     H_    0.178435 0.801625 0.765249 0.125908
H93   H     H_    0.840187 0.036894 0.419607 -0.011313
H94   H     H_    0.152820 0.170184 0.207446 0.122556
H95   H     H_    0.558171 0.838396 0.387446 0.161238
H96   H     H_    0.544189 0.169945 0.597546 0.115128
H97   H     H_    0.677639 0.302850 0.266091 0.125151
H98   H     H_    0.652856 0.670220 0.707471 0.122467
H99   H     H_    0.978150 0.412134 0.877335 0.167772
H100  H     H_    0.948515 0.605775 0.089514 0.123355
H101  H     H_    0.200754 0.846690 0.651574 0.146990
H102  H     H_    0.157287 0.104165 0.300818 0.147149
H103  H     H_    0.478388 0.912255 0.377068 0.167949
H104  H     H_    0.655200 0.047270 0.566660 0.001398
H105  H     H_    0.449187 0.105265 0.590242 0.123319
H106  H     H_    0.699312 0.348915 0.153094 0.146611
H107  H     H_    0.657344 0.604207 0.800848 0.146808
H108  H     H_    0.377335 0.912483 0.289741 0.137629
H109  H     H_    0.347290 0.105428 0.676232 0.133666
H110  H     H_    0.605984 0.353374 0.057685 0.126472
H111  H     H_    0.571410 0.604371 0.903194 0.135020
H112  H     H_    0.877139 0.412380 0.789958 0.137581
H113  H     H_    0.846798 0.605811 0.175716 0.133649
H114  H     H_    0.107267 0.851449 0.556339 0.126807
H115  H     H_    0.821880 0.951984 0.401253 -0.008682
H116  H     H_    0.071369 0.104345 0.403176 0.135045
H117  H     H_    0.065646 0.052999 0.618014 0.172912
H118  H     H_    0.039543 0.095887 0.554376 0.177793
H119  H     H_    0.079920 0.938993 0.394582 0.172943
H120  H     H_    0.046766 0.896618 0.455558 0.160079
H121  H     H_    0.800140 0.606174 0.863410 0.163886
H122  H     H_    0.763830 0.660429 0.899669 0.194029
H123  H     H_    0.859870 0.435592 0.197191 0.188098
H124  H     H_    0.806096 0.398968 0.143254 0.161478
H125  H     H_    0.565354 0.552848 0.118314 0.172915
H126  H     H_    0.446914 0.664709 0.109579 0.131474
H127  H     H_    0.539363 0.595714 0.054598 0.177683
H128  H     H_    0.579430 0.439268 0.894161 0.172935
H129  H     H_    0.546213 0.396938 0.955172 0.160004
H130  H     H_    0.301412 0.104780 0.362274 0.163973
H131  H     H_    0.264611 0.158768 0.398798 0.193679
H132  H     H_    0.359545 0.935461 0.696896 0.188030
H133  H     H_    0.305803 0.898719 0.643089 0.161455
H134  H     H_    0.013482 0.421869 0.001025 0.173369
H135  H     H_    0.039637 0.476146 0.056421 0.154480
H136  H     H_    0.072088 0.411482 0.078283 0.156531
N1    N     N_3   0.027304 0.081744 0.606628 -0.469391
N2    N     N_3   0.320188 0.169357 0.780665 -0.503775
N3    N     N_3   0.474734 0.312664 0.059385 -0.462241
N4    N     N_3   0.467194 0.667983 0.930075 -0.502186
N5    N     N_3   0.839926 0.339175 0.697546 -0.463579
N6    N     N_3   0.820099 0.669422 0.280633 -0.503798
N7    N     N_3   0.975260 0.812007 0.558900 -0.462202
N8    N     N_3   0.967202 0.167991 0.430088 -0.502196
N9    N     N_3   0.038499 0.911859 0.403227 -0.479197
N10   N     N_3   0.788362 0.644983 0.852800 -0.487284
N11   N     N_3   0.833333 0.399868 0.193551 -0.496419
N12   N     N_3   0.527074 0.581622 0.106867 -0.469388
N13   N     N_3   0.538020 0.412124 0.902796 -0.479243
N14   N     N_3   0.289307 0.143564 0.351857 -0.488049
N15   N     N_3   0.333088 0.899704 0.693358 -0.496325
N16   N     N_3   0.339977 0.839210 0.197499 -0.463584
O1    O     O_3   0.249990 0.250010 0.000000 -0.491272
O2    O     O_R   0.835430 0.219350 0.353840 -0.658422
O3    O     O_R   0.835430 0.219350 0.646160 -0.634598
O4    O     O_R   0.835430 0.780650 0.353840 -0.658065
O5    O     O_R   0.164550 0.280640 0.853840 -0.643396
O6    O     O_R   0.164550 0.719360 0.146160 -0.634606
O7    O     O_R   0.164550 0.719360 0.853840 -0.628877
O8    O     O_R   0.164550 0.280640 0.146160 -0.636715
O9    O     O_R   0.664550 0.780640 0.353840 -0.643400
O10   O     O_R   0.664550 0.219360 0.646160 -0.634641
O11   O     O_R   0.664550 0.219360 0.353840 -0.628669
O12   O     O_3   0.249990 0.749990 0.000000 -0.493152
O13   O     O_R   0.664550 0.780640 0.646160 -0.636728
O14   O     O_R   0.396160 0.219380 0.914560 -0.634355
O15   O     O_R   0.396160 0.780620 0.085440 -0.631275
O16   O     O_R   0.396160 0.780620 0.914560 -0.638055
O17   O     O_R   0.396160 0.219380 0.085440 -0.624680
O18   O     O_R   0.896160 0.719380 0.414560 -0.634538
O19   O     O_R   0.896160 0.280620 0.585440 -0.631284
O20   O     O_R   0.896160 0.280620 0.414560 -0.638131
O21   O     O_R   0.896160 0.719380 0.585440 -0.624594
O22   O     O_R   0.103840 0.219370 0.085450 -0.634223
O23   O     O_3   0.749990 0.750010 0.500000 -0.491243
O24   O     O_R   0.103840 0.780630 0.914550 -0.634667
O25   O     O_R   0.103840 0.780630 0.085450 -0.633640
O26   O     O_R   0.103840 0.219370 0.914550 -0.631900
O27   O     O_R   0.603840 0.719370 0.585450 -0.634230
O28   O     O_R   0.603840 0.280630 0.414550 -0.634680
O29   O     O_R   0.603840 0.280630 0.585450 -0.633603
O30   O     O_R   0.603840 0.719370 0.414550 -0.631929
O31   O     O_R   0.310730 0.133160 0.000000 -0.641120
O32   O     O_R   0.310730 0.866840 0.000000 -0.634378
O33   O     O_R   0.810730 0.633160 0.500000 -0.641103
O34   O     O_3   0.749990 0.249990 0.500000 -0.493196
O35   O     O_R   0.810730 0.366840 0.500000 -0.634362
O36   O     O_R   0.249970 0.366860 0.060720 -0.654471
O37   O     O_R   0.249970 0.633140 0.939280 -0.600343
O38   O     O_R   0.249970 0.633140 0.060720 -0.661512
O39   O     O_R   0.249970 0.366860 0.939280 -0.627735
O40   O     O_R   0.749970 0.866860 0.560720 -0.654490
O41   O     O_R   0.749970 0.133140 0.439280 -0.600184
O42   O     O_R   0.749970 0.133140 0.560720 -0.661509
O43   O     O_R   0.749970 0.866860 0.439280 -0.627622
O44   O     O_R   0.189290 0.133150 0.000000 -0.637555
O45   O     O_R   0.335430 0.280650 0.146160 -0.637048
O46   O     O_R   0.189290 0.866850 0.000000 -0.635714
O47   O     O_R   0.689290 0.633150 0.500000 -0.637551
O48   O     O_R   0.689290 0.366850 0.500000 -0.635767
O49   O     O_3   0.119144 0.445596 0.986737 -0.521294
O50   O     O_3   0.242854 0.552387 0.860879 -0.499002
O51   O     O_3   0.127013 0.542337 0.954091 -0.480364
O52   O     O_3   0.210128 0.456413 0.871152 -0.484803
O53   O     O_3   0.619161 0.945566 0.486597 -0.521368
O54   O     O_3   0.743190 0.052393 0.360856 -0.499054
O55   O     O_3   0.627147 0.042276 0.453771 -0.480245
O56   O     O_R   0.335430 0.719350 0.853840 -0.658600
O57   O     O_3   0.710341 0.956433 0.371100 -0.484760
O58   O     O_R   0.335430 0.719350 0.146160 -0.634638
O59   O     O_R   0.335430 0.280650 0.853840 -0.658126
O60   O     O_R   0.835430 0.780650 0.646160 -0.637238
Zn1   Zn    Zn3+2 0.249990 0.293780 0.913250 0.952884
Zn2   Zn    Zn3+2 0.336760 0.793760 0.000000 0.961370
Zn3   Zn    Zn3+2 0.836760 0.706240 0.500000 0.963208
Zn4   Zn    Zn3+2 0.836760 0.293760 0.500000 0.961351
Zn5   Zn    Zn3+2 0.163250 0.206230 0.000000 0.964931
Zn6   Zn    Zn3+2 0.163250 0.793770 0.000000 0.966854
Zn7   Zn    Zn3+2 0.663250 0.706230 0.500000 0.964905
Zn8   Zn    Zn3+2 0.663250 0.293770 0.500000 0.966868
Zn9   Zn    Zn3+2 0.249990 0.706220 0.086750 0.957859
Zn10  Zn    Zn3+2 0.249990 0.706220 0.913250 0.957523
Zn11  Zn    Zn3+2 0.249990 0.293780 0.086750 0.968410
Zn12  Zn    Zn3+2 0.749990 0.793780 0.413250 0.952940
Zn13  Zn    Zn3+2 0.749990 0.206220 0.586750 0.957862
Zn14  Zn    Zn3+2 0.749990 0.206220 0.413250 0.957800
Zn15  Zn    Zn3+2 0.749990 0.793780 0.586750 0.968359
Zn16  Zn    Zn3+2 0.336760 0.206240 0.000000 0.963385

loop_
_geom_bond_atom_site_label_1
_geom_bond_atom_site_label_2
_ccdc_geom_bond_type
C174  N9    S    
C86   H102  S    
H27   N16   S    
C107  C120  A    
C75   C117  A    
C47   H57   S    
C74   C83   A    
C9    C143  A    
C155  C182  S    
C136  C162  A    
H29   N2    S    
C94   H8    S    
C182  O30   A    
C67   H77   S    
H133  N15   S    
C58   C60   S    
O21   Zn3   S    
O40   Zn15  S    
C29   C33   A    
C101  C128  S    
C118  C153  A    
C61   C63   S    
C171  N14   S    
C180  O7    A    
C62   C64   S    
C131  C140  A    
C175  C188  A    
C130  C167  S    
C184  O28   A    
C162  C171  A    
C51   O48   A    
C59   H60   S    
C77   H94   S    
C4    C12   A    
C147  C155  A    
C49   O46   A    
H37   N6    S    
O23   Zn12  S    
C98   O55   S    
C172  N15   S    
C84   H100  S    
C153  C180  S    
C100  C109  A    
O22   Zn5   S    
C53   O37   A    
C21   C22   A    
C98   H20   S    
C82   C124  A    
C80   C121  A    
C45   C47   A    
C150  C159  A    
C76   H92   S    
C134  O60   A    
C28   C32   A    
C127  C136  A    
O37   Zn10  S    
C123  C126  S    
C20   C28   A    
C33   C50   S    
C120  C155  A    
C76   C118  A    
C82   C91   A    
C142  C151  A    
O43   Zn12  S    
C78   C120  A    
C43   C44   A    
H119  N9    S    
C37   C38   A    
C146  C154  A    
C95   H9    S    
C49   O32   A    
C122  C158  A    
C164  C173  A    
C179  O25   A    
C163  C172  A    
C112  C125  S    
C46   C84   A    
O15   Zn2   S    
H26   N16   S    
C31   C48   S    
C52   O39   A    
C65   H76   S    
C97   H16   S    
C57   H114  S    
C53   C71   S    
C61   H82   S    
C15   C149  A    
C85   H101  S    
C93   H4    S    
O59   Zn1   S    
H42   N8    S    
C141  C168  A    
C94   H6    S    
C55   O41   A    
H41   N8    S    
C45   H58   S    
C69   H79   S    
C129  C156  S    
O23   Zn15  S    
C19   H62   S    
C96   H14   S    
C43   H56   S    
C33   C38   A    
C56   C59   S    
C106  C115  A    
O33   Zn3   S    
C133  C160  A    
C185  O13   A    
C156  O3    A    
O34   Zn4   S    
C4    H86   S    
C80   C88   A    
C123  O14   A    
C181  O8    A    
C101  O56   A    
C57   C85   A    
O58   Zn9   S    
C78   H95   S    
C3    C11   A    
C99   H25   S    
O44   Zn5   S    
C93   O50   S    
C165  H43   S    
C41   C45   A    
C31   C36   A    
O34   Zn13  S    
H30   N3    S    
C108  C126  A    
C7    H89   S    
C76   C85   A    
C110  C128  A    
C168  H45   S    
C16   H54   S    
C78   C87   A    
C100  N3    S    
C48   O44   A    
C62   H93   S    
O26   Zn5   S    
C99   H23   S    
C62   O54   S    
C35   H112  S    
C185  O27   A    
H124  N11   S    
C132  C145  S    
C52   O36   A    
H118  N1    S    
C89   H106  S    
C151  C177  S    
C65   C70   S    
H123  N11   S    
C2    C90   A    
C67   C72   S    
C139  C165  A    
C54   O40   A    
C42   H72   S    
H39   N7    S    
C139  C143  A    
O12   Zn10  S    
O39   Zn1   S    
O16   Zn2   S    
C184  O11   A    
C10   C188  A    
C5    C170  A    
C103  N5    S    
C62   C73   S    
C133  C147  A    
C97   H18   S    
C6    H88   S    
C149  C158  A    
C92   H135  S    
H117  N1    S    
C66   H75   S    
C188  H84   S    
C64   H115  S    
C135  C161  A    
C101  O16   A    
C109  C127  A    
O19   Zn4   S    
C115  C132  A    
C179  O6    A    
C98   H21   S    
C105  N7    S    
C113  C130  A    
C30   C34   A    
C34   C39   A    
C17   C27   A    
H33   N4    S    
C107  C125  A    
C137  C163  A    
C182  O9    A    
C8    C186  A    
C165  C174  A    
C75   C84   A    
C90   N2    S    
C174  C187  A    
C50   O33   A    
C3    C176  A    
C92   O49   S    
O12   Zn6   S    
C56   O49   S    
C112  O15   A    
C10   C144  A    
C32   C37   A    
C58   O50   S    
O6    Zn9   S    
O2    Zn14  S    
C170  N13   S    
C183  O10   A    
C113  C117  A    
C26   C30   A    
C1    O45   A    
C63   H104  S    
C137  C150  A    
C81   H97   S    
C2    H109  S    
C83   H99   S    
C112  O58   A    
C132  C141  A    
C168  C176  A    
C74   H90   S    
C166  H44   S    
C18   C22   A    
O9    Zn12  S    
C65   H73   S    
C161  H2    S    
O27   Zn7   S    
C163  H24   S    
C11   C146  A    
C10   H48   S    
O31   Zn16  S    
C159  C185  S    
C46   H113  S    
O23   Zn7   S    
C66   H74   S    
C14   H52   S    
C67   H80   S    
C186  H81   S    
C34   C36   A    
C148  C157  A    
C37   C41   A    
O1    Zn5   S    
C104  C113  A    
C55   C73   S    
C40   C44   A    
C167  O18   A    
C96   O53   S    
C16   C150  A    
C7    C172  A    
C116  C151  A    
O56   Zn10  S    
C8    H46   S    
C15   H53   S    
O11   Zn14  S    
C114  C131  A    
O47   Zn7   S    
C18   C26   A    
C108  C121  A    
C131  C134  S    
C61   O53   S    
C21   H64   S    
C136  C149  A    
C25   H67   S    
C11   H50   S    
O5    Zn1   S    
C156  O19   A    
C26   C27   A    
C48   O31   A    
C12   C147  A    
C28   C29   A    
C35   C103  A    
H40   N7    S    
C58   C71   S    
C9    H47   S    
C20   C25   A    
C17   H59   S    
C18   H61   S    
C106  N8    S    
C154  C181  S    
C1    O17   A    
C97   O54   S    
C103  C111  A    
O1    Zn11  S    
H28   N2    S    
C22   H65   S    
C175  N10   S    
C110  C124  A    
C111  C129  A    
C177  O26   A    
C87   H103  S    
C160  C169  A    
C69   C73   S    
C111  C116  A    
C58   H49   S    
C54   O43   A    
C160  H126  S    
C81   C89   A    
C169  N12   S    
C68   H116  S    
C187  H83   S    
H125  N12   S    
C23   H66   S    
C130  C139  A    
C176  N11   S    
C145  O20   A    
C3    H85   S    
C92   H134  S    
C93   H3    S    
C140  C166  A    
C50   O47   A    
H131  N14   S    
C94   H7    S    
C138  C142  A    
C123  O59   A    
C69   H78   S    
C24   H111  S    
C35   C83   A    
O41   Zn14  S    
C39   H68   S    
C63   C73   S    
C9    C187  A    
O35   Zn4   S    
C46   C104  A    
O36   Zn11  S    
O3    Zn13  S    
C115  C119  A    
C32   C51   S    
C66   C71   S    
C79   C107  A    
C5    C14   A    
C167  O4    A    
O24   Zn6   S    
C61   C72   S    
C143  C152  A    
O14   Zn16  S    
C126  C135  A    
C80   H96   S    
C119  C154  A    
C53   O38   A    
C27   C31   A    
C178  H108  S    
O48   Zn8   S    
O38   Zn9   S    
C98   H19   S    
O34   Zn14  S    
H120  N9    S    
C19   C29   A    
O13   Zn15  S    
C183  O29   A    
C59   O51   S    
C93   H5    S    
C140  C144  A    
C104  N6    S    
H127  N12   S    
C51   O35   A    
C40   H69   S    
C38   C42   A    
O12   Zn2   S    
C60   O52   S    
C81   C122  A    
H31   N3    S    
C152  C179  S    
H121  N10   S    
C96   H12   S    
C87   C178  A    
O32   Zn2   S    
C164  H35   S    
C95   H10   S    
C91   H107  S    
C13   H110  S    
C24   C102  A    
C82   H98   S    
C17   C21   A    
C90   C108  A    
C8    C142  A    
C157  C183  S    
C97   H17   S    
H32   N4    S    
C158  C184  S    
C92   H136  S    
C57   C105  A    
C68   C86   A    
O20   Zn4   S    
C19   C23   A    
C55   O42   A    
C94   O51   S    
H36   N5    S    
H34   N5    S    
O4    Zn12  S    
C60   H71   S    
C134  O21   A    
O1    Zn1   S    
C88   H105  S    
C109  C122  A    
C124  C159  A    
C14   C148  A    
C180  O24   A    
C144  C153  A    
C6    C15   A    
C63   O55   S    
C99   O57   S    
C12   H51   S    
C129  C138  A    
O17   Zn16  S    
O46   Zn6   S    
O28   Zn8   S    
C2    C88   A    
O1    Zn16  S    
C102  N4    S    
C117  C152  A    
C23   C25   A    
H130  N14   S    
C121  C157  A    
O29   Zn8   S    
C68   C106  A    
O30   Zn7   S    
C95   O52   S    
H38   N6    S    
C6    C171  A    
C173  C186  A    
C4    C169  A    
C162  H13   S    
C105  C114  A    
C36   C40   A    
C52   C70   S    
O7    Zn10  S    
O45   Zn11  S    
C20   H63   S    
C39   C43   A    
C181  O22   A    
C75   H91   S    
C67   C69   S    
C128  C137  A    
H132  N15   S    
C166  C175  A    
O18   Zn3   S    
O23   Zn3   S    
H128  N13   S    
O12   Zn9   S    
C60   C70   S    
C74   C116  A    
C79   C178  A    
O60   Zn15  S    
O34   Zn8   S    
C114  C118  A    
C5    H87   S    
C161  C170  A    
C141  C146  A    
C77   C86   A    
C135  C148  A    
C56   C70   S    
C79   N16   S    
C64   O57   S    
C173  N1    S    
C24   C91   A    
C96   H15   S    
O42   Zn13  S    
C125  C133  A    
C56   H1    S    
C7    C16   A    
C13   C89   A    
C30   C49   S    
C1    C127  S    
C77   C119  A    
O10   Zn13  S    
C13   C100  A    
O25   Zn6   S    
H129  N13   S    
O8    Zn11  S    
C42   C47   A    
C64   C72   S    
C41   H70   S    
C102  C110  A    
C54   C72   S    
C95   H11   S    
C65   C66   S    
C177  O5    A    
C138  C164  A    
C145  O2    A    
C44   H55   S    
C59   C71   S    
H122  N10   S    
C99   H22   S    
