data_mof_unit_12572.cif
_audit_creation_date              2012-12-10T17:15:52-0500
_audit_creation_method            fapswitch 2.2
_symmetry_space_group_name_H-M    P1
_symmetry_Int_Tables_number       1
_space_group_crystal_system       triclinic
_cell_length_a                    10.245299
_cell_length_b                    10.546783
_cell_length_c                    10.731424
_cell_angle_alpha                 92.31547
_cell_angle_beta                  96.006556
_cell_angle_gamma                 79.638258
_cell_volume                      1134.13428598

loop_
_atom_site_label
_atom_site_type_symbol
_atom_type_description
_atom_site_fract_x
_atom_site_fract_y
_atom_site_fract_z
_atom_type_partial_charge
C1    C     C_R   0.444029 0.502766 0.266989 0.987389
C2    C     C_R   0.629229 0.038942 0.500961 -0.113183
C3    C     C_R   0.524687 0.126276 0.550044 -0.150932
C4    C     C_R   0.418042 0.080525 0.593863 0.295946
C5    C     C_R   0.404965 0.954473 0.567168 -0.122816
C6    C     C_R   0.491215 0.878060 0.489720 -0.113915
C7    C     C_2   0.412871 0.488934 0.133473 -0.229992
C8    C     C_2   0.512653 0.442471 0.064692 -0.133092
C9    C     C_2   0.588389 0.463907 0.864824 -0.286227
C10   C     C_2   0.490306 0.446181 0.931117 -0.100964
C11   C     C_2   0.072194 0.487983 0.484224 0.426967
C12   C     C_R   0.508128 0.261192 0.520167 0.925923
C13   C     C_2   0.939289 0.475359 0.527412 -0.136375
C14   C     C_R   0.556256 0.487349 0.732772 0.913593
C15   C     C_R   0.495786 0.741226 0.491895 0.914118
C16   C     C_R   0.763694 0.057785 0.506934 0.241931
C17   C     C_R   0.850157 0.983685 0.425889 0.347752
C18   C     C_R   0.800037 0.895415 0.341616 -0.302918
C19   C     C_R   0.674050 0.865914 0.349802 0.271952
C20   C     C_R   0.595811 0.927057 0.443381 -0.011038
H1    H     H_    0.311336 0.518770 0.091205 0.206541
H2    H     H_    0.923378 0.486191 0.625756 0.207602
H3    H     H_    0.844728 0.476754 0.359058 0.256676
H4    H     H_    0.861333 0.845040 0.272444 0.227294
H5    H     H_    0.329911 0.915746 0.610043 0.243072
H6    H     H_    0.389072 0.446710 0.888401 0.226219
H7    H     H_    0.614654 0.413088 0.106305 0.212697
H8    H     H_    0.689284 0.463596 0.908088 0.192137
N1    N     N_2   0.157290 0.551390 0.551110 -0.047690
N2    N     N_2   0.842740 0.448550 0.448960 -0.183850
O1    O     O_R   0.568950 0.489660 0.307530 -0.614483
O2    O     O_R   0.348880 0.522640 0.340350 -0.543405
O3    O     O_R   0.610060 0.300270 0.483590 -0.601849
O4    O     O_R   0.389990 0.333260 0.516410 -0.549233
O5    O     O_R   0.651120 0.477360 0.659650 -0.595687
O6    O     O_R   0.431050 0.510340 0.692470 -0.587611
O7    O     O_R   0.610010 0.666740 0.483590 -0.602232
O8    O     O_R   0.389940 0.699730 0.516410 -0.588280
Zn1   Zn    Zn3+2 0.646940 0.477980 0.478090 1.024019
Zn2   Zn    Zn3+2 0.353060 0.522020 0.521910 1.116107
Br1   Br    Br    0.297829 0.181202 0.701415 -0.345950
S1    S     S_3+6 0.103545 0.419490 0.329610 0.072324
O9    O     O_2   0.101555 0.529271 0.244044 -0.286274
O10   O     O_2   0.233843 0.328991 0.328005 -0.242779
O11   O     O_3   0.990378 0.333023 0.263512 -0.525779
H9    H     H_    0.001740 0.255865 0.315374 0.408904
Br2   Br    Br    0.115614 0.628447 0.707317 -0.350030
Br3   Br    Br    0.831508 0.157400 0.646166 -0.330888
S2    S     S_3+6 0.021407 0.991435 0.426230 0.065055
O12   O     O_2   0.059779 0.106466 0.497911 -0.220499
O13   O     O_2   0.054798 0.996015 0.293524 -0.274905
O14   O     O_3   0.110375 0.856845 0.491578 -0.503909
H10   H     H_    0.105756 0.788453 0.426007 0.365778
Br4   Br    Br    0.605382 0.761064 0.217515 -0.453210

loop_
_geom_bond_atom_site_label_1
_geom_bond_atom_site_label_2
_ccdc_geom_bond_type
N2    Zn1   S    
O5    Zn1   S    
C9    C14   S    
C15   O8    A    
C6    C20   A    
C9    C10   D    
C19   C20   A    
C1    O1    A    
S2    O14   S    
C16   Br3   S    
C17   C18   A    
C6    C15   S    
C7    C8    D    
O7    Zn1   S    
C7    H1    S    
O11   H9    S    
O8    Zn2   S    
C11   C13   S    
C10   H6    S    
O3    Zn1   S    
S1    O10   D    
N1    Br2   S    
O4    Zn2   S    
N1    Zn2   S    
O1    Zn1   S    
C13   H2    S    
C2    C3    A    
O2    Zn2   S    
C14   O6    A    
C5    C6    A    
C18   H4    S    
C16   C17   A    
S1    O9    D    
C2    C20   A    
C3    C4    A    
H3    N2    S    
C13   N2    D    
O6    Zn2   S    
C2    C16   A    
O14   H10   S    
C11   N1    D    
C11   S1    S    
C8    C10   S    
C18   C19   A    
C4    Br1   S    
C17   S2    S    
C14   O5    A    
S2    O12   D    
C8    H7    S    
C15   O7    A    
C19   Br4   S    
C3    C12   S    
C12   O3    A    
C1    C7    S    
C12   O4    A    
S1    O11   S    
C1    O2    A    
C9    H8    S    
C4    C5    A    
S2    O13   D    
C5    H5    S    
