data_mof_unit_21778.cif
_audit_creation_date              2012-12-10T16:51:29-0500
_audit_creation_method            fapswitch 2.2
_symmetry_space_group_name_H-M    P1
_symmetry_Int_Tables_number       1
_space_group_crystal_system       triclinic
_cell_length_a                    7.82647
_cell_length_b                    8.56884
_cell_length_c                    12.10992
_cell_angle_alpha                 92.297833
_cell_angle_beta                  101.348573
_cell_angle_gamma                 94.168572
_cell_volume                      792.921855385

loop_
_atom_site_label
_atom_site_type_symbol
_atom_type_description
_atom_site_fract_x
_atom_site_fract_y
_atom_site_fract_z
_atom_type_partial_charge
C1    C     C_R   0.044794 0.794767 0.497626 0.976276
C2    C     C_R   0.392136 0.472214 0.990848 0.090144
C3    C     C_R   0.308100 0.427226 0.879934 0.084326
C4    C     C_R   0.564187 0.430828 0.027631 0.056528
C5    C     C_R   0.637924 0.319912 0.963503 0.131955
C6    C     C_R   0.536269 0.252561 0.860800 -0.029142
C7    C     C_R   0.375130 0.310134 0.819223 -0.296077
C8    C     C_R   0.667067 0.503539 0.125209 -0.241709
C9    C     C_R   0.903520 0.344955 0.108738 -0.213450
C10   C     C_R   0.159125 0.502003 0.832009 -0.111901
C11   C     C_2   0.068341 0.958564 0.496812 -0.392083
C12   C     C_R   0.106221 0.503830 0.710293 0.865124
C13   C     C_2   0.932756 0.041675 0.505555 -0.367677
C14   C     C_R   0.955591 0.205308 0.503205 0.955064
C15   C     C_R   0.891903 0.487458 0.289605 0.869326
C16   C     C_R   0.811638 0.283305 0.003828 -0.134721
C17   C     C_R   0.827781 0.452281 0.170223 -0.070250
C18   C     C_R   0.074116 0.592661 0.900177 -0.175867
C19   C     C_R   0.143171 0.617252 0.014575 -0.120432
C20   C     C_R   0.302158 0.559910 0.059876 -0.195714
H1    H     H_    0.030619 0.305523 0.142995 0.163374
H2    H     H_    0.805093 0.990152 0.513984 0.181871
H3    H     H_    0.469615 0.375147 0.416352 0.188609
H4    H     H_    0.530390 0.624805 0.583686 0.201999
H5    H     H_    0.877502 0.206010 0.956748 0.192600
H6    H     H_    0.622093 0.597872 0.170936 0.150732
H7    H     H_    0.957157 0.648040 0.864485 0.177369
H8    H     H_    0.349683 0.582556 0.149395 0.140279
H9    H     H_    0.076382 0.685258 0.067646 0.153426
H10   H     H_    0.298718 0.258339 0.740135 0.162608
H11   H     H_    0.196119 0.010134 0.488651 0.174890
N1    N     N_2   0.434800 0.456690 0.470850 -0.180180
N2    N     N_2   0.565200 0.543310 0.529150 -0.172350
O1    O     O_R   0.893060 0.738880 0.507150 -0.605918
O2    O     O_R   0.172250 0.711130 0.488470 -0.623541
O3    O     O_R   0.944700 0.520730 0.667600 -0.611925
O4    O     O_R   0.223890 0.492980 0.648920 -0.614596
O5    O     O_R   0.827750 0.288870 0.511530 -0.627373
O6    O     O_R   0.106940 0.261120 0.492850 -0.620409
O7    O     O_R   0.776110 0.507020 0.351080 -0.619187
O8    O     O_R   0.055300 0.479270 0.332400 -0.618962
Zn1   Zn    Zn3+2 0.813580 0.518530 0.512470 0.943203
Zn2   Zn    Zn3+2 0.186420 0.481470 0.487530 0.930288
C21   C     C_2   0.590102 0.123992 0.792485 0.376758
H12   H     H_    0.542745 0.114456 0.701747 0.069225
O9    O     O_2   0.677658 0.022430 0.836327 -0.592509

loop_
_geom_bond_atom_site_label_1
_geom_bond_atom_site_label_2
_ccdc_geom_bond_type
O4    Zn2   S    
C2    C4    A    
C6    C7    A    
H4    N2    S    
C14   O5    A    
C8    H6    S    
O3    Zn1   S    
C8    C17   A    
O1    Zn1   S    
C4    C8    A    
C1    O1    A    
H3    N1    S    
O7    Zn1   S    
C2    C3    A    
C11   H11   S    
C3    C10   A    
C6    C21   S    
C13   C14   S    
N1    N2    D    
O8    Zn2   S    
C9    H1    S    
C10   C12   S    
C10   C18   A    
N2    Zn1   S    
C9    C17   A    
C9    C16   A    
C21   O9    D    
C13   H2    S    
O5    Zn1   S    
C3    C7    A    
C5    C6    A    
C15   O7    A    
C12   O3    A    
C15   O8    A    
C2    C20   A    
C19   H9    S    
C11   C13   D    
O2    Zn2   S    
C21   H12   S    
C1    O2    A    
C15   C17   S    
C18   C19   A    
C12   O4    A    
C16   H5    S    
C7    H10   S    
C5    C16   A    
O6    Zn2   S    
C20   H8    S    
C14   O6    A    
N1    Zn2   S    
C18   H7    S    
C19   C20   A    
C4    C5    A    
C1    C11   S    
