data_mof_unit_32989.cif
_audit_creation_date              2012-12-10T19:10:03-0500
_audit_creation_method            fapswitch 2.2
_symmetry_space_group_name_H-M    P1
_symmetry_Int_Tables_number       1
_space_group_crystal_system       triclinic
_cell_length_a                    10.90349
_cell_length_b                    10.827721
_cell_length_c                    9.586141
_cell_angle_alpha                 89.7786
_cell_angle_beta                  90.808115
_cell_angle_gamma                 91.532038
_cell_volume                      1131.21533279

loop_
_atom_site_label
_atom_site_type_symbol
_atom_type_description
_atom_site_fract_x
_atom_site_fract_y
_atom_site_fract_z
_atom_type_partial_charge
C1    C     C_R   0.498460 0.262522 0.499862 0.799856
C2    C     C_R   0.203468 0.532938 0.967836 -0.174966
C3    C     C_R   0.932152 0.536776 0.384165 -0.239910
C4    C     C_R   0.870891 0.497201 0.503780 -0.089841
C5    C     C_R   0.938375 0.455439 0.620762 -0.001057
C6    C     C_R   0.065841 0.463458 0.617875 -0.219132
C7    C     C_R   0.127494 0.501028 0.497284 -0.088931
C8    C     C_R   0.058807 0.533352 0.377385 0.007364
C9    C     C_R   0.888595 0.439119 0.874691 -0.148118
C10   C     C_R   0.835170 0.375400 0.986667 -0.105360
C11   C     C_R   0.776372 0.260707 0.965081 -0.090177
C12   C     C_R   0.262046 0.500166 0.498864 0.797926
C13   C     C_R   0.770758 0.209623 0.831429 -0.120818
C14   C     C_R   0.821503 0.274271 0.718742 -0.078669
C15   C     C_R   0.880473 0.389797 0.739655 0.145188
C16   C     C_R   0.427995 0.061281 0.597713 0.135992
C17   C     C_R   0.490834 0.129162 0.496091 -0.095066
C18   C     C_R   0.537111 0.066072 0.381039 -0.218083
C19   C     C_R   0.536836 0.937293 0.380781 -0.210185
C20   C     C_R   0.490570 0.870532 0.495501 -0.096014
C21   C     C_R   0.428188 0.934191 0.597671 0.121408
C22   C     C_3   0.432082 0.927157 0.753002 -0.465975
C23   C     C_R   0.498617 0.737469 0.499479 0.797183
C24   C     C_3   0.430995 0.067358 0.752947 -0.477303
C25   C     C_R   0.533376 0.604246 0.073639 0.278681
C26   C     C_R   0.462775 0.398650 0.073939 -0.052376
C27   C     C_R   0.463771 0.398411 0.925760 -0.063569
C28   C     C_R   0.532808 0.604488 0.926195 0.252663
C29   C     C_3   0.655145 0.669182 0.922333 -0.498993
C30   C     C_3   0.655965 0.668455 0.080111 -0.511398
C31   C     C_R   0.737350 0.498006 0.501244 0.787943
C32   C     C_R   0.200193 0.644561 0.040676 -0.175668
C33   C     C_R   0.153308 0.646778 0.175634 -0.117244
C34   C     C_R   0.110955 0.536549 0.237424 0.093224
C35   C     C_R   0.114720 0.425299 0.164361 -0.140297
C36   C     C_R   0.160448 0.422976 0.030001 0.166420
Cu1   Cu    Cu3+1 0.499990 0.499980 0.640670 0.945430
Cu2   Cu    Cu3+1 0.500010 0.500020 0.359330 0.950051
H1    H     H_    0.240697 0.532470 0.864424 0.175342
H2    H     H_    0.736225 0.210936 0.052075 0.115017
H3    H     H_    0.728289 0.119345 0.815250 0.115783
H4    H     H_    0.579488 0.115803 0.295187 0.154178
H5    H     H_    0.579030 0.890833 0.294995 0.150920
H6    H     H_    0.347470 0.883244 0.796392 0.200931
H7    H     H_    0.519391 0.891304 0.793906 0.194724
H8    H     H_    0.344981 0.103386 0.794487 0.234166
H9    H     H_    0.516445 0.111325 0.795585 0.193834
H10   H     H_    0.432275 0.316084 0.128344 0.158693
H11   H     H_    0.234061 0.729134 0.992524 0.138433
H12   H     H_    0.434811 0.315767 0.870902 0.164419
H13   H     H_    0.726254 0.611867 0.876138 0.223470
H14   H     H_    0.652287 0.763399 0.877939 0.183167
H15   H     H_    0.728178 0.609924 0.125894 0.205491
H16   H     H_    0.651829 0.762428 0.124970 0.186226
H17   H     H_    0.150395 0.733253 0.231703 0.129514
H18   H     H_    0.881092 0.563925 0.291874 0.146223
H19   H     H_    0.117141 0.430802 0.706571 0.184354
H20   H     H_    0.935096 0.527340 0.892868 0.135366
H21   H     H_    0.840574 0.414168 0.090435 0.127467
N1    N     N_R   0.500790 0.500930 0.147930 -0.189107
N2    N     N_R   0.500790 0.500890 0.852020 -0.192214
O1    O     O_R   0.500000 0.319640 0.618810 -0.581934
O2    O     O_R   0.500010 0.319680 0.381230 -0.594849
O3    O     O_R   0.319640 0.499990 0.618790 -0.593418
O4    O     O_R   0.319650 0.500030 0.381210 -0.562817
O5    O     O_R   0.499990 0.680320 0.618770 -0.582274
O6    O     O_R   0.500000 0.680360 0.381190 -0.582717
O7    O     O_R   0.680350 0.499970 0.618790 -0.573812
O8    O     O_R   0.680360 0.500010 0.381210 -0.591643
H22   H     H_    0.816358 0.233737 0.615613 0.102532
H23   H     H_    0.081060 0.340256 0.212006 0.149788
I1    I     I_    0.159776 0.251031 0.927299 -0.525428

loop_
_geom_bond_atom_site_label_1
_geom_bond_atom_site_label_2
_ccdc_geom_bond_type
C33   H17   S    
Cu1   N2    S    
Cu2   O4    S    
C16   C21   A    
C25   N1    A    
C16   C17   A    
C19   H5    S    
C11   C13   A    
C12   O4    A    
C1    C17   S    
C19   C20   A    
C20   C23   S    
C26   H10   S    
C24   H8    S    
Cu1   O5    S    
Cu1   O3    S    
C13   H3    S    
C10   H21   S    
C9    C15   A    
Cu2   O8    S    
C35   H23   S    
C7    C8    A    
C16   C24   S    
C8    C34   S    
C13   C14   A    
C32   C33   A    
C25   C28   A    
C30   H16   S    
C6    H19   S    
C26   C27   A    
C29   C30   S    
C1    O1    A    
Cu2   N1    S    
C5    C6    A    
C1    O2    A    
C23   O5    A    
C2    C32   A    
C28   C29   S    
Cu1   Cu2   S    
C33   C34   A    
Cu1   O1    S    
C6    C7    A    
C18   H4    S    
C3    C8    A    
C29   H13   S    
C31   O7    A    
C12   O3    A    
C30   H15   S    
C22   C24   S    
C7    C12   S    
C5    C15   S    
C4    C31   S    
C32   H11   S    
C10   C11   A    
C28   N2    A    
C2    C36   A    
C11   H2    S    
Cu1   O7    S    
C36   I1    S    
C31   O8    A    
C22   H7    S    
C18   C19   A    
Cu2   O6    S    
C27   H12   S    
C17   C18   A    
C34   C35   A    
C3    H18   S    
C23   O6    A    
C25   C30   S    
Cu2   O2    S    
C14   C15   A    
C9    H20   S    
C27   N2    A    
C20   C21   A    
C21   C22   S    
C24   H9    S    
C26   N1    A    
C2    H1    S    
C29   H14   S    
C22   H6    S    
C3    C4    A    
C14   H22   S    
C9    C10   A    
C4    C5    A    
C35   C36   A    
