data_mof_unit_64599.cif
_audit_creation_date              2012-10-26T18:23:20-0400
_audit_creation_method            fapswitch 2.2
_symmetry_space_group_name_H-M    P1
_symmetry_Int_Tables_number       1
_space_group_crystal_system       triclinic
_cell_length_a                    41.608275
_cell_length_b                    35.650906
_cell_length_c                    35.638517
_cell_angle_alpha                 90.030967
_cell_angle_beta                  148.538646
_cell_angle_gamma                 90.188169
_cell_volume                      27590.86904

loop_
_atom_site_label
_atom_site_type_symbol
_atom_type_description
_atom_site_fract_x
_atom_site_fract_y
_atom_site_fract_z
_atom_type_partial_charge
C1    C     C_R   0.000201 0.000023 0.072579 0.543511
C2    C     C_R   0.718200 0.021047 0.740604 -0.150343
C3    C     C_R   0.464578 0.673354 0.439155 -0.114872
C4    C     C_R   0.037453 0.134119 0.563477 0.022476
C5    C     C_R   0.964338 0.133991 0.438104 0.022682
C6    C     C_R   0.537453 0.634119 0.563477 0.022476
C7    C     C_R   0.464338 0.633991 0.438104 0.022682
C8    C     C_R   0.000675 0.113847 0.500600 -0.028859
C9    C     C_R   0.500675 0.613847 0.500600 -0.028859
C10   C     C_R   0.001496 0.192928 0.501319 -0.016715
C11   C     C_R   0.501496 0.692928 0.501319 -0.016715
C12   C     C_1   0.001753 0.233250 0.501582 -0.014848
C13   C     C_R   0.781801 0.478963 0.259402 -0.149948
C14   C     C_1   0.501753 0.733250 0.501582 -0.014848
C15   C     C_1   0.501823 0.767028 0.501660 -0.019064
C16   C     C_1   0.001823 0.267028 0.501660 -0.019064
C17   C     C_R   0.499760 0.826944 0.533618 -0.109741
C18   C     C_R   0.503339 0.827000 0.469255 -0.111595
C19   C     C_R   0.999760 0.326943 0.533617 -0.109741
C20   C     C_R   0.003339 0.327000 0.469255 -0.111595
C21   C     C_R   0.218404 0.073091 0.295786 -0.120672
C22   C     C_R   0.781598 0.926959 0.704184 -0.119749
C23   C     C_R   0.718404 0.573091 0.295785 -0.120673
C24   C     C_R   0.218200 0.521047 0.740604 -0.150343
C25   C     C_R   0.281598 0.426958 0.704185 -0.119749
C26   C     C_R   0.499308 0.866135 0.533245 -0.125646
C27   C     C_R   0.502877 0.866194 0.468791 -0.133902
C28   C     C_R   0.999308 0.366135 0.533245 -0.125646
C29   C     C_R   0.002877 0.366194 0.468791 -0.133902
C30   C     C_R   0.500764 0.886184 0.500709 0.010989
C31   C     C_R   0.000764 0.386184 0.500709 0.010989
C32   C     C_R   0.501723 0.807331 0.501591 0.038404
C33   C     C_R   0.001723 0.307331 0.501591 0.038404
C34   C     C_R   0.943019 0.826967 0.443118 -0.113115
C35   C     C_R   0.314257 0.003611 0.315051 0.003023
C36   C     C_R   0.054514 0.827052 0.554680 -0.112959
C37   C     C_R   0.443018 0.326967 0.443119 -0.113115
C38   C     C_R   0.554514 0.327052 0.554679 -0.112960
C39   C     C_R   0.943336 0.866189 0.443382 -0.129063
C40   C     C_R   0.054970 0.866266 0.555082 -0.128854
C41   C     C_R   0.443336 0.366189 0.443382 -0.129063
C42   C     C_R   0.554970 0.366266 0.555081 -0.128854
C43   C     C_R   0.999354 0.886290 0.499405 0.013764
C44   C     C_R   0.499354 0.386290 0.499405 0.013764
C45   C     C_R   0.998577 0.807334 0.498738 0.037302
C46   C     C_R   0.685744 0.996406 0.684947 0.003226
C47   C     C_R   0.498577 0.307334 0.498738 0.037303
C48   C     C_1   0.998245 0.766977 0.498434 -0.029505
C49   C     C_1   0.498245 0.266977 0.498434 -0.029505
C50   C     C_1   0.498143 0.233166 0.498332 -0.029688
C51   C     C_1   0.998143 0.733166 0.498332 -0.029688
C52   C     C_R   0.496507 0.173101 0.530597 -0.113634
C53   C     C_R   0.500317 0.173172 0.466486 -0.111865
C54   C     C_R   0.996502 0.673101 0.530592 -0.113633
C55   C     C_R   0.000323 0.673172 0.466491 -0.111865
C56   C     C_R   0.281730 0.077411 0.354785 -0.120635
C57   C     C_R   0.814257 0.503611 0.315051 0.003023
C58   C     C_R   0.718273 0.922634 0.645187 -0.119731
C59   C     C_R   0.781729 0.577411 0.354785 -0.120635
C60   C     C_R   0.218273 0.422634 0.645187 -0.119730
C61   C     C_R   0.496984 0.133887 0.531070 -0.134815
C62   C     C_R   0.500778 0.133960 0.466860 -0.126749
C63   C     C_R   0.996979 0.633887 0.531064 -0.134815
C64   C     C_R   0.000783 0.633960 0.466865 -0.126748
C65   C     C_R   0.499217 0.113878 0.499278 0.010654
C66   C     C_R   0.999217 0.613878 0.499278 0.010654
C67   C     C_R   0.498233 0.192810 0.498385 0.037572
C68   C     C_R   0.185744 0.496406 0.684947 0.003226
C69   C     C_R   0.998233 0.692810 0.498384 0.037572
C70   C     C_R   0.313719 0.055195 0.361145 -0.099686
C71   C     C_R   0.686284 0.944838 0.638836 -0.099336
C72   C     C_R   0.813719 0.555195 0.361145 -0.099686
C73   C     C_R   0.186284 0.444838 0.638837 -0.099336
C74   C     C_R   0.282534 0.028022 0.308066 0.026879
C75   C     C_R   0.717467 0.972005 0.691923 0.026957
C76   C     C_R   0.782534 0.528022 0.308066 0.026879
C77   C     C_R   0.217467 0.472005 0.691923 0.026957
C78   C     C_R   0.217521 0.025565 0.245515 0.026928
C79   C     C_R   0.945478 0.999237 0.272447 -0.110944
C80   C     C_R   0.782480 0.974466 0.754472 0.026952
C81   C     C_R   0.717521 0.525565 0.245515 0.026928
C82   C     C_R   0.282480 0.474465 0.754472 0.026952
C83   C     C_R   0.185761 0.000825 0.189349 0.003101
C84   C     C_R   0.814240 0.999195 0.810648 0.003212
C85   C     C_R   0.685761 0.500825 0.189349 0.003101
C86   C     C_R   0.314240 0.499195 0.810648 0.003211
C87   C     C_2   0.073509 0.115413 0.629339 0.580362
C88   C     C_2   0.927871 0.115149 0.371886 0.580152
C89   C     C_2   0.573509 0.615413 0.629339 0.580362
C90   C     C_R   0.054508 0.999135 0.727535 -0.110977
C91   C     C_2   0.427871 0.615149 0.371886 0.580152
C92   C     C_R   0.445478 0.499237 0.272447 -0.110944
C93   C     C_R   0.999800 0.999994 0.927421 0.543372
C94   C     C_R   0.554508 0.499135 0.727535 -0.110977
C95   C     C_R   0.945036 0.999117 0.311217 -0.132545
C96   C     C_R   0.054949 0.999122 0.688764 -0.132751
C97   C     C_R   0.445036 0.499117 0.311217 -0.132545
C98   C     C_R   0.554949 0.499122 0.688764 -0.132751
C99   C     C_R   0.000655 0.999950 0.386862 0.024949
C100  C     C_R   0.999342 0.999866 0.613134 0.024591
C101  C     C_R   0.500655 0.499950 0.386862 0.024949
C102  C     C_R   0.499342 0.499866 0.613134 0.024590
C103  C     C_R   0.056664 0.000871 0.422793 -0.120518
C104  C     C_R   0.500201 0.500022 0.072579 0.543511
C105  C     C_R   0.943347 0.000592 0.577220 -0.120525
C106  C     C_R   0.556664 0.500871 0.422793 -0.120519
C107  C     C_R   0.443347 0.500593 0.577220 -0.120525
C108  C     C_R   0.056971 0.000974 0.383878 -0.110529
C109  C     C_R   0.943041 0.000588 0.616137 -0.110552
C110  C     C_R   0.556971 0.500974 0.383878 -0.110529
C111  C     C_R   0.443041 0.500588 0.616137 -0.110553
C112  C     C_R   0.001408 0.000160 0.308683 0.038166
C113  C     C_R   0.998591 0.999858 0.691316 0.038137
C114  C     C_R   0.501409 0.500160 0.308683 0.038166
C115  C     C_R   0.499800 0.499994 0.927421 0.543372
C116  C     C_R   0.498591 0.499858 0.691316 0.038138
C117  C     C_1   0.001736 0.000218 0.268671 -0.027281
C118  C     C_1   0.998265 0.999853 0.731331 -0.027342
C119  C     C_1   0.501736 0.500218 0.268671 -0.027281
C120  C     C_1   0.498265 0.499853 0.731331 -0.027342
C121  C     C_R   0.118910 0.000172 0.120466 0.545181
C122  C     C_R   0.881090 0.999842 0.879534 0.545178
C123  C     C_R   0.618910 0.500172 0.120466 0.545181
C124  C     C_R   0.381090 0.499842 0.879534 0.545177
C125  C     C_1   0.001841 0.000228 0.234970 -0.028040
C126  C     C_R   0.218180 0.977634 0.197114 -0.149846
C127  C     C_1   0.998161 0.999858 0.765031 -0.028100
C128  C     C_1   0.501841 0.500228 0.234970 -0.028040
C129  C     C_1   0.498161 0.499858 0.765031 -0.028100
C130  C     C_R   0.999655 0.966205 0.172824 -0.111714
C131  C     C_R   0.996483 0.965951 0.823381 -0.113586
C132  C     C_R   0.499654 0.466205 0.172823 -0.111714
C133  C     C_R   0.496483 0.465951 0.823381 -0.113586
C134  C     C_R   0.999202 0.966110 0.133157 -0.126209
C135  C     C_R   0.996954 0.965945 0.863068 -0.134470
C136  C     C_R   0.499200 0.466110 0.133155 -0.126210
C137  C     C_R   0.781821 0.022378 0.802892 -0.150330
C138  C     C_R   0.496954 0.465945 0.863068 -0.134470
C139  C     C_R   0.000786 0.000077 0.114662 0.010817
C140  C     C_R   0.999214 0.999958 0.885339 0.010771
C141  C     C_R   0.500786 0.500077 0.114662 0.010817
C142  C     C_R   0.499215 0.499957 0.885339 0.010771
C143  C     C_R   0.003039 0.034099 0.136909 -0.134773
C144  C     C_R   0.000808 0.033934 0.866868 -0.126728
C145  C     C_R   0.503040 0.534099 0.136910 -0.134773
C146  C     C_R   0.500808 0.533934 0.866868 -0.126728
C147  C     C_R   0.003510 0.034112 0.176596 -0.112810
C148  C     C_R   0.718180 0.477634 0.197114 -0.149846
C149  C     C_R   0.000354 0.033857 0.827200 -0.111059
C150  C     C_R   0.503512 0.534112 0.176598 -0.112809
C151  C     C_R   0.500355 0.533857 0.827200 -0.111059
C152  C     C_R   0.001758 0.000185 0.194548 0.037683
C153  C     C_R   0.998243 0.999887 0.805453 0.037671
C154  C     C_R   0.501758 0.500185 0.194548 0.037683
C155  C     C_R   0.498243 0.499887 0.805453 0.037671
C156  C     C_R   0.500189 0.927647 0.500176 0.544022
C157  C     C_R   0.000189 0.427647 0.500176 0.544022
C158  C     C_R   0.381103 0.001562 0.381261 0.545450
C159  C     C_R   0.281821 0.522378 0.802891 -0.150331
C160  C     C_R   0.618897 0.998452 0.618738 0.545336
C161  C     C_R   0.881103 0.501562 0.381261 0.545450
C162  C     C_R   0.118897 0.498452 0.618738 0.545336
C163  C     C_R   0.499805 0.072369 0.499820 0.543250
C164  C     C_R   0.999805 0.572369 0.499820 0.543250
C165  C     C_R   0.186376 0.047463 0.241547 -0.099686
C166  C     C_R   0.813625 0.952579 0.758431 -0.099368
C167  C     C_R   0.686376 0.547463 0.241546 -0.099686
C168  C     C_R   0.313625 0.452579 0.758432 -0.099368
C169  C     C_R   0.999803 0.927827 0.499812 0.537831
C170  C     C_R   0.281801 0.978963 0.259402 -0.149948
C171  C     C_R   0.499803 0.427827 0.499812 0.537831
C172  C     C_R   0.000210 0.999953 0.427941 0.576047
C173  C     C_R   0.999786 0.999939 0.572055 0.575984
C174  C     C_R   0.500210 0.499953 0.427941 0.576047
C175  C     C_R   0.499786 0.499939 0.572055 0.575984
C176  C     C_R   0.000199 0.072274 0.500184 0.630332
C177  C     C_R   0.500199 0.572274 0.500184 0.630332
C178  C     C_R   0.038028 0.173485 0.563143 -0.114616
C179  C     C_R   0.964578 0.173354 0.439155 -0.114872
C180  C     C_R   0.538028 0.673484 0.563143 -0.114616
Cu1   Cu    Cu3+1 1.000000 0.037260 0.000000 0.923050
Cu2   Cu    Cu3+1 0.938190 0.000100 0.438180 0.973417
Cu3   Cu    Cu3+1 0.561810 0.500100 0.561820 0.973122
Cu4   Cu    Cu3+1 0.438190 0.500100 0.438180 0.973418
Cu5   Cu    Cu3+1 0.500000 0.537260 0.000000 0.923050
Cu6   Cu    Cu3+1 1.000000 0.962750 0.000000 0.928173
Cu7   Cu    Cu3+1 0.500000 0.462750 0.000000 0.928173
Cu8   Cu    Cu3+1 0.500010 0.000000 0.462750 0.924401
Cu9   Cu    Cu3+1 0.499990 0.000000 0.537250 0.924898
Cu10  Cu    Cu3+1 0.000010 0.500000 0.462750 0.924401
Cu11  Cu    Cu3+1 0.999990 0.500000 0.537250 0.924898
Cu12  Cu    Cu3+1 0.061810 0.000100 0.561820 0.973122
H1    H     H_    0.194015 0.958713 0.154223 0.132484
H2    H     H_    0.002522 0.060581 0.883146 0.132010
H3    H     H_    0.504454 0.560712 0.123702 0.126281
H4    H     H_    0.502522 0.560581 0.883147 0.132010
H5    H     H_    0.498502 0.811947 0.558793 0.116604
H6    H     H_    0.504889 0.812048 0.444342 0.114627
H7    H     H_    0.998502 0.311947 0.558793 0.116604
H8    H     H_    0.004889 0.312048 0.444343 0.114627
H9    H     H_    0.497712 0.880694 0.558308 0.132565
H10   H     H_    0.504184 0.880802 0.443469 0.126737
H11   H     H_    0.997712 0.380694 0.558308 0.132565
H12   H     H_    0.805987 0.041291 0.845790 0.131787
H13   H     H_    0.004184 0.380802 0.443469 0.126737
H14   H     H_    0.899451 0.811965 0.399542 0.113221
H15   H     H_    0.097793 0.812118 0.598001 0.113531
H16   H     H_    0.399451 0.311965 0.399542 0.113221
H17   H     H_    0.597793 0.312118 0.598001 0.113531
H18   H     H_    0.899731 0.880727 0.399732 0.129890
H19   H     H_    0.098870 0.880858 0.598990 0.130266
H20   H     H_    0.399731 0.380727 0.399732 0.129890
H21   H     H_    0.598870 0.380858 0.598989 0.130266
H22   H     H_    0.494862 0.188040 0.555421 0.112384
H23   H     H_    0.694015 0.458713 0.154224 0.132484
H24   H     H_    0.501668 0.188165 0.441403 0.114340
H25   H     H_    0.994852 0.688040 0.555411 0.112384
H26   H     H_    0.001678 0.688165 0.441413 0.114340
H27   H     H_    0.495591 0.119276 0.556302 0.126221
H28   H     H_    0.502469 0.119408 0.441891 0.131928
H29   H     H_    0.995582 0.619276 0.556292 0.126220
H30   H     H_    0.002478 0.619408 0.441900 0.131928
H31   H     H_    0.193890 0.089863 0.291740 0.112416
H32   H     H_    0.806112 0.910195 0.708223 0.113235
H33   H     H_    0.693890 0.589863 0.291740 0.112416
H34   H     H_    0.305987 0.541292 0.845790 0.131787
H35   H     H_    0.306112 0.410195 0.708223 0.113235
H36   H     H_    0.306274 0.097877 0.396098 0.112368
H37   H     H_    0.693730 0.902173 0.603868 0.113376
H38   H     H_    0.806274 0.597878 0.396098 0.112368
H39   H     H_    0.193730 0.402172 0.603868 0.113376
H40   H     H_    0.362736 0.059998 0.407444 0.135565
H41   H     H_    0.637268 0.940031 0.592539 0.135760
H42   H     H_    0.862736 0.559999 0.407443 0.135565
H43   H     H_    0.137268 0.440031 0.592540 0.135759
H44   H     H_    0.305938 0.960236 0.264618 0.132396
H45   H     H_    0.998285 0.939786 0.186463 0.114748
H46   H     H_    0.694063 0.039766 0.735395 0.131764
H47   H     H_    0.805938 0.460236 0.264618 0.132396
H48   H     H_    0.194063 0.539767 0.735395 0.131763
H49   H     H_    0.902204 0.998601 0.214223 0.116532
H50   H     H_    0.097772 0.998577 0.785748 0.116497
H51   H     H_    0.402205 0.498601 0.214223 0.116533
H52   H     H_    0.597772 0.498576 0.785748 0.116497
H53   H     H_    0.901148 0.998407 0.281921 0.130035
H54   H     H_    0.098826 0.998565 0.718047 0.130109
H55   H     H_    0.401148 0.498407 0.281921 0.130035
H56   H     H_    0.994817 0.939497 0.806760 0.112722
H57   H     H_    0.598826 0.498565 0.718047 0.130109
H58   H     H_    0.100264 0.001549 0.480947 0.131291
H59   H     H_    0.899758 0.001194 0.519080 0.131331
H60   H     H_    0.600264 0.501549 0.480947 0.131292
H61   H     H_    0.399758 0.501194 0.519080 0.131330
H62   H     H_    0.100525 0.001691 0.412429 0.114159
H63   H     H_    0.899498 0.001160 0.587600 0.114163
H64   H     H_    0.600525 0.501691 0.412429 0.114159
H65   H     H_    0.399498 0.501160 0.587600 0.114163
H66   H     H_    0.997494 0.939456 0.116897 0.132779
H67   H     H_    0.498282 0.439786 0.186460 0.114748
H68   H     H_    0.995534 0.939326 0.876259 0.126944
H69   H     H_    0.497491 0.439456 0.116894 0.132779
H70   H     H_    0.495534 0.439325 0.876259 0.126944
H71   H     H_    0.005170 0.060572 0.193199 0.114166
H72   H     H_    0.001732 0.060283 0.813581 0.116135
H73   H     H_    0.505172 0.560572 0.193202 0.114166
H74   H     H_    0.501732 0.560284 0.813581 0.116135
H75   H     H_    0.065797 0.189164 0.610753 0.152050
H76   H     H_    0.937090 0.188932 0.391805 0.151564
H77   H     H_    0.565797 0.689164 0.610753 0.152050
H78   H     H_    0.494817 0.439497 0.806760 0.112721
H79   H     H_    0.437090 0.688932 0.391805 0.151565
H80   H     H_    0.078506 0.073967 0.672632 0.336717
H81   H     H_    0.922017 0.073600 0.327806 0.336555
H82   H     H_    0.578506 0.573967 0.672632 0.336717
H83   H     H_    0.422017 0.573600 0.327806 0.336555
H84   H     H_    0.137361 0.044749 0.197341 0.135593
H85   H     H_    0.862639 0.955297 0.802636 0.135591
H86   H     H_    0.637361 0.544749 0.197341 0.135592
H87   H     H_    0.362639 0.455297 0.802636 0.135591
H88   H     H_    0.004451 0.060712 0.123699 0.126281
O1    O     O_R   0.000000 0.031470 0.054370 -0.520692
O2    O     O_R   0.052180 0.000130 0.606560 -0.500112
O3    O     O_R   0.447820 0.500130 0.393440 -0.499833
O4    O     O_R   0.552180 0.500130 0.606560 -0.500112
O5    O     O_R   0.052220 0.054460 0.552220 -0.474987
O6    O     O_R   0.947780 0.054460 0.447780 -0.474785
O7    O     O_R   0.552220 0.554460 0.552220 -0.474987
O8    O     O_R   0.447780 0.554460 0.447780 -0.474785
O9    O     O_R   0.000010 0.968540 0.054390 -0.506125
O10   O     O_R   0.999990 0.968540 0.945610 -0.520157
O11   O     O_R   0.500010 0.468540 0.054390 -0.506125
O12   O     O_R   0.000000 0.031470 0.945630 -0.506817
O13   O     O_R   0.499990 0.468540 0.945610 -0.520157
O14   O     O_R   0.090180 0.031470 0.090180 -0.511940
O15   O     O_R   0.909820 0.031470 0.909820 -0.506210
O16   O     O_R   0.590180 0.531470 0.090180 -0.511940
O17   O     O_R   0.409820 0.531470 0.909820 -0.506210
O18   O     O_R   0.090190 0.968540 0.090200 -0.505241
O19   O     O_R   0.909810 0.968540 0.909800 -0.511055
O20   O     O_R   0.590190 0.468540 0.090200 -0.505241
O21   O     O_R   0.409810 0.468540 0.909800 -0.511055
O22   O     O_R   0.500020 0.945640 0.468560 -0.520460
O23   O     O_R   0.500000 0.531470 0.054370 -0.520692
O24   O     O_R   0.499980 0.945640 0.531440 -0.506413
O25   O     O_R   0.000020 0.445640 0.468560 -0.520460
O26   O     O_R   0.999980 0.445640 0.531440 -0.506413
O27   O     O_R   0.409830 0.000000 0.378360 -0.505783
O28   O     O_R   0.590170 0.000000 0.621640 -0.505629
O29   O     O_R   0.909830 0.500000 0.378360 -0.505783
O30   O     O_R   0.090170 0.500000 0.621640 -0.505629
O31   O     O_R   0.409830 0.000010 0.441300 -0.511464
O32   O     O_R   0.590170 0.000010 0.558700 -0.511820
O33   O     O_R   0.909830 0.500010 0.441300 -0.511464
O34   O     O_R   0.500000 0.531470 0.945630 -0.506817
O35   O     O_R   0.090170 0.500010 0.558700 -0.511821
O36   O     O_R   0.500000 0.054360 0.468520 -0.506541
O37   O     O_R   0.500000 0.054360 0.531480 -0.520461
O38   O     O_R   0.000000 0.554360 0.468520 -0.506541
O39   O     O_R   0.000000 0.554360 0.531480 -0.520461
O40   O     O_R   0.052170 0.945740 0.552190 -0.519670
O41   O     O_R   0.947830 0.945740 0.447810 -0.519753
O42   O     O_R   0.552170 0.445740 0.552190 -0.519670
O43   O     O_R   0.447830 0.445740 0.447810 -0.519753
O44   O     O_2   0.123052 0.128655 0.688543 -0.518103
O45   O     O_R   0.052200 0.000100 0.497840 -0.513235
O46   O     O_R   0.049950 0.083638 0.623940 -0.690662
O47   O     O_2   0.878568 0.128287 0.312928 -0.518487
O48   O     O_R   0.950790 0.083364 0.376685 -0.691037
O49   O     O_2   0.623052 0.628655 0.688543 -0.518103
O50   O     O_R   0.549950 0.583638 0.623940 -0.690662
O51   O     O_2   0.378568 0.628287 0.312928 -0.518486
O52   O     O_R   0.450790 0.583364 0.376685 -0.691037
O53   O     O_R   0.947800 0.000100 0.502160 -0.513052
O54   O     O_R   0.552200 0.500100 0.497840 -0.513236
O55   O     O_R   0.447800 0.500100 0.502160 -0.513052
O56   O     O_R   0.947820 0.000130 0.393440 -0.499833

loop_
_geom_bond_atom_site_label_1
_geom_bond_atom_site_label_2
_ccdc_geom_bond_type
C99   C103  A    
Cu4   O43   S    
C142  C146  A    
C85   C148  A    
C15   C32   S    
Cu10  O38   S    
C4    C87   S    
C174  O3    A    
C135  H68   S    
C57   C76   A    
H83   O52   S    
Cu6   O18   S    
C52   C61   A    
C95   C99   A    
C54   C63   A    
C27   H10   S    
C106  H60   S    
C149  C153  A    
C5    C179  A    
C87   O46   S    
C5    C88   S    
C40   C43   A    
C12   C16   T    
C110  H64   S    
C70   C74   A    
C17   H5    S    
C25   C60   A    
C151  C155  A    
C180  H77   S    
C24   H48   S    
C141  C145  A    
C119  C128  T    
C30   C156  S    
C157  O25   A    
C156  O22   A    
C130  C134  A    
Cu4   O55   S    
C42   C44   A    
C88   O47   D    
C80   C166  A    
C23   H33   S    
C55   H26   S    
C56   H36   S    
C160  O28   A    
C98   C102  A    
C34   C39   A    
C64   C66   A    
Cu3   Cu4   S    
C97   H55   S    
C136  C141  A    
C98   H57   S    
C36   C40   A    
C134  H66   S    
Cu2   O53   S    
C46   C160  S    
C121  O18   A    
C81   C167  A    
C1    O9    A    
Cu5   O16   S    
C150  H73   S    
C31   C157  S    
C23   C167  A    
C20   C33   A    
C53   H24   S    
C130  C152  A    
C37   H16   S    
C83   C126  A    
C147  H71   S    
C9    C177  S    
C68   C77   A    
Cu3   O54   S    
C78   C165  A    
C21   H31   S    
C136  H69   S    
Cu5   O23   S    
C91   O51   D    
C61   H27   S    
Cu7   O21   S    
C22   C58   A    
C5    C8    A    
C137  H12   S    
C163  O37   A    
Cu10  O29   S    
C1    O1    A    
C126  H1    S    
Cu9   O24   S    
C77   C82   A    
C85   C123  S    
C79   H49   S    
C35   C158  S    
C3    C11   A    
C131  H56   S    
C22   C166  A    
C61   C65   A    
C57   C161  S    
C35   C170  A    
C73   C77   A    
C104  C141  S    
C156  O24   A    
C175  O55   A    
C51   C69   S    
Cu10  Cu11  S    
C60   H39   S    
C6    C9    A    
C13   H47   S    
C23   C59   A    
C40   H19   S    
C93   O10   A    
C171  O42   A    
C10   C179  A    
Cu5   Cu7   S    
C144  H2    S    
C29   H13   S    
C122  O19   A    
C20   H8    S    
C173  O53   A    
C124  O21   A    
C139  C143  A    
C132  C154  A    
Cu1   O12   S    
C162  O30   A    
C37   C47   A    
C86   C159  A    
C110  C114  A    
C145  C150  A    
C179  H76   S    
H82   O50   S    
C46   C75   A    
C92   C97   A    
Cu12  O5    S    
C25   C168  A    
C145  H3    S    
C64   H30   S    
C120  C129  T    
C138  H70   S    
C26   H9    S    
Cu9   O28   S    
C19   C33   A    
C134  C139  A    
C177  O7    A    
C99   C172  S    
C102  C175  S    
C22   H32   S    
C25   H35   S    
C116  C120  S    
C50   C67   S    
C126  C170  A    
C151  H74   S    
C132  C136  A    
C65   C163  S    
C52   H22   S    
C66   C164  S    
C102  C107  A    
C19   C28   A    
C55   C69   A    
C52   C67   A    
C84   C137  A    
C26   C30   A    
Cu2   O56   S    
C90   H50   S    
C86   C124  S    
C175  O4    A    
Cu6   O10   S    
C172  O56   A    
C101  C106  A    
C174  O54   A    
C105  C109  A    
C93   O12   A    
C6    C180  A    
C28   H11   S    
C107  C111  A    
Cu1   O15   S    
C4    C178  A    
Cu7   O13   S    
Cu1   Cu6   S    
C8    C176  S    
C90   C96   A    
C128  C154  S    
C19   H7    S    
Cu6   O19   S    
C172  O45   A    
C42   H21   S    
Cu12  O45   S    
C95   H53   S    
C133  H78   S    
C96   C100  A    
C143  H88   S    
C71   H41   S    
C37   C41   A    
C53   C67   A    
Cu9   O31   S    
C146  C151  A    
Cu3   O42   S    
H81   O48   S    
C49   C50   T    
C118  C127  T    
C14   C15   T    
C117  C125  T    
C81   C85   A    
C35   C74   A    
C115  O13   A    
C158  O31   A    
C63   H29   S    
C80   C84   A    
C88   O48   S    
Cu10  O25   S    
C43   C169  S    
C24   C159  A    
C82   C168  A    
Cu5   O34   S    
Cu11  O26   S    
Cu2   Cu12  S    
C79   C112  A    
C3    C7    A    
C112  C117  S    
C92   H51   S    
C58   C71   A    
C94   C98   A    
C60   C73   A    
C21   C165  A    
C107  H61   S    
C171  O43   A    
C159  H34   S    
C115  O34   A    
C41   H20   S    
C78   C83   A    
C91   O52   S    
Cu11  O33   S    
C18   H6    S    
C89   O49   D    
C111  C116  A    
C176  O5    A    
C166  H85   S    
C1    C139  S    
C72   C76   A    
C59   C72   A    
C108  H62   S    
C104  O11   A    
Cu3   O7    S    
C115  C142  S    
C133  C138  A    
C96   H54   S    
C87   O44   D    
C135  C140  A    
C138  C142  A    
C129  C155  S    
C94   C116  A    
C82   C86   A    
C170  H44   S    
C2    C46   A    
C108  C112  A    
C39   H18   S    
C62   H28   S    
Cu8   O32   S    
C79   C95   A    
C164  O39   A    
Cu8   O22   S    
C7    C91   S    
C104  O23   A    
C157  O26   A    
C17   C32   A    
C41   C44   A    
C18   C32   A    
Cu12  O2    S    
C54   H25   S    
C45   C48   S    
C2    C137  A    
C28   C31   A    
C140  C144  A    
C21   C56   A    
C44   C171  S    
Cu8   O36   S    
C93   C140  S    
Cu9   O37   S    
C54   C69   A    
Cu4   O3    S    
Cu11  O39   S    
Cu5   O17   S    
C165  H84   S    
C162  O35   A    
C70   H40   S    
C73   H43   S    
Cu7   O11   S    
C24   C68   A    
C13   C57   A    
C74   C78   A    
C11   C180  A    
C111  H65   S    
C168  H87   S    
Cu10  O35   S    
C123  O20   A    
C4    C8    A    
C127  C153  S    
C3    H79   S    
C47   C49   S    
C34   H14   S    
C143  C147  A    
C100  C105  A    
C17   C26   A    
C38   C42   A    
C131  C135  A    
C11   C14   S    
C84   C122  S    
C90   C113  A    
C94   H52   S    
C169  O40   A    
C160  O32   A    
C48   C51   T    
C158  O27   A    
C103  C108  A    
C75   C80   A    
C149  H72   S    
C109  C113  A    
Cu4   O8    S    
Cu2   O41   S    
C63   C66   A    
C27   C30   A    
C121  O14   A    
C101  C174  S    
C123  O16   A    
C89   O50   S    
C132  H67   S    
C20   C29   A    
Cu3   O4    S    
C10   C178  A    
Cu1   O14   S    
C131  C153  A    
H80   O46   S    
C105  H59   S    
C178  H75   S    
C2    H46   S    
C39   C43   A    
C173  O2    A    
C109  H63   S    
Cu8   Cu9   S    
C36   H15   S    
Cu1   O1    S    
C144  C149  A    
C125  C152  S    
C16   C33   S    
Cu2   O6    S    
C53   C62   A    
C55   C64   A    
C36   C45   A    
C34   C45   A    
C83   C121  S    
Cu8   O27   S    
C167  H86   S    
C38   C47   A    
C10   C12   S    
C164  O38   A    
C56   C70   A    
C161  O29   A    
C146  H4    S    
Cu7   O20   S    
C148  H23   S    
C130  H45   S    
C106  C110  A    
C7    C9    A    
C169  O41   A    
C62   C65   A    
C133  C155  A    
C103  H58   S    
C18   C27   A    
C114  C119  S    
C163  O36   A    
C76   C81   A    
C177  O8    A    
C68   C162  S    
C6    C89   S    
C147  C152  A    
C29   C31   A    
C58   H37   S    
C71   C75   A    
Cu6   O9    S    
C176  O6    A    
Cu12  O40   S    
C72   H42   S    
C38   H17   S    
C113  C118  S    
C150  C154  A    
C100  C173  S    
Cu11  O30   S    
C161  O33   A    
C122  O15   A    
C13   C148  A    
C59   H38   S    
C92   C114  A    
C97   C101  A    
C124  O17   A    
