data_mof_unit_8724.cif
_audit_creation_date              2012-12-10T16:55:03-0500
_audit_creation_method            fapswitch 2.2
_symmetry_space_group_name_H-M    P1
_symmetry_Int_Tables_number       1
_space_group_crystal_system       triclinic
_cell_length_a                    9.77613
_cell_length_b                    11.015688
_cell_length_c                    15.823031
_cell_angle_alpha                 91.531193
_cell_angle_beta                  71.985061
_cell_angle_gamma                 91.626889
_cell_volume                      1619.5163205

loop_
_atom_site_label
_atom_site_type_symbol
_atom_type_description
_atom_site_fract_x
_atom_site_fract_y
_atom_site_fract_z
_atom_type_partial_charge
C1    C     C_R   0.998719 0.266718 0.499132 0.847162
C2    C     C_R   0.663914 0.442825 0.900682 0.044038
C3    C     C_R   0.750546 0.376956 0.939693 0.073615
C4    C     C_R   0.519355 0.469906 0.950090 -0.007793
C5    C     C_R   0.467809 0.443988 0.042518 0.025488
C6    C     C_R   0.560613 0.384627 0.080447 -0.196239
C7    C     C_R   0.696619 0.348136 0.029437 -0.227807
C8    C     C_R   0.426619 0.525238 0.909738 0.432835
C9    C     C_R   0.306304 0.585059 0.964058 -0.283506
C10   C     C_R   0.256197 0.565173 0.054504 0.043937
C11   C     C_R   0.328366 0.484421 0.093853 -0.015371
C12   C     C_R   0.915285 0.490049 0.670593 0.805755
C13   C     C_R   0.128426 0.620371 0.104562 -0.163734
C14   C     C_R   0.070380 0.597105 0.194125 -0.267277
C15   C     C_R   0.256915 0.450081 0.182713 0.383147
C16   C     C_2   0.893351 0.933677 0.496390 0.383105
C17   C     C_2   0.013437 0.868604 0.488857 0.222139
C18   C     C_2   0.903505 0.065574 0.479641 -0.227791
C19   C     C_2   0.993566 0.137764 0.507056 -0.337272
C20   C     C_2   0.407994 0.413030 0.530372 -0.039239
C21   C     C_2   0.568094 0.404025 0.512826 -0.105153
C22   C     C_R   0.002895 0.735132 0.498389 0.771937
C23   C     C_R   0.084719 0.501092 0.329151 0.840602
C24   C     C_R   0.865148 0.455834 0.764309 -0.129638
C25   C     C_R   0.135242 0.513603 0.233355 -0.134666
C26   C     C_R   0.892080 0.345641 0.889266 0.428710
C27   C     C_R   0.946534 0.382338 0.800471 -0.301195
C28   C     C_R   0.728629 0.489421 0.815674 -0.199483
Cu1   Cu    Cu3+1 0.138640 0.500020 0.499980 0.915896
Cu2   Cu    Cu3+1 0.861360 0.499980 0.500020 0.943323
H1    H     H_    0.762035 0.301490 0.061962 0.182259
H2    H     H_    0.074322 0.683033 0.074521 0.145788
H3    H     H_    0.827170 0.104312 0.451032 0.156435
H4    H     H_    0.065404 0.104494 0.539380 0.179742
H5    H     H_    0.340830 0.339801 0.566887 0.127204
H6    H     H_    0.612753 0.314633 0.510540 0.152973
H7    H     H_    0.603553 0.577136 0.529885 0.215064
H8    H     H_    0.975724 0.645235 0.233053 0.173296
H9    H     H_    0.244886 0.641802 0.936191 0.156615
H10   H     H_    0.054163 0.358041 0.760917 0.159084
H11   H     H_    0.677012 0.556751 0.788947 0.167384
H12   H     H_    0.534963 0.369404 0.150404 0.209624
N1    N     N_2   0.346430 0.498660 0.500980 -0.191882
N2    N     N_2   0.652550 0.498630 0.501000 -0.286159
O1    O     O_R   0.117050 0.321960 0.499980 -0.587044
O2    O     O_R   0.882890 0.321920 0.500020 -0.582330
O3    O     O_R   0.052910 0.500040 0.629810 -0.591020
O4    O     O_R   0.818750 0.499990 0.629840 -0.576481
O5    O     O_R   0.117110 0.678080 0.499980 -0.613974
O6    O     O_R   0.882950 0.678040 0.500020 -0.543500
O7    O     O_R   0.181250 0.500010 0.370160 -0.564819
O8    O     O_R   0.947090 0.499960 0.370190 -0.580975
O9    O     O_3   0.759864 0.875419 0.512315 -0.619564
C29   C     C_3   0.658657 0.923589 0.589727 0.044910
H13   H     H_    0.550418 0.892511 0.588412 0.153125
H14   H     H_    0.656910 0.024623 0.591327 0.141209
C30   C     C_3   0.682707 0.875941 0.674213 -0.369255
H15   H     H_    0.677753 0.775099 0.672854 0.215730
H16   H     H_    0.790744 0.905345 0.677078 0.197298
C31   C     C_3   0.569941 0.923500 0.757627 -0.942147
H17   H     H_    0.577724 0.024152 0.761876 0.269815
H18   H     H_    0.588105 0.885258 0.817402 0.253576
H19   H     H_    0.460274 0.896139 0.756796 0.249327
O10   O     O_3   0.148447 0.926579 0.458161 -0.639936
C32   C     C_3   0.237065 0.912792 0.513660 0.079754
H20   H     H_    0.330148 0.976646 0.488914 0.135324
H21   H     H_    0.288924 0.823332 0.503038 0.170817
C33   C     C_3   0.165442 0.945466 0.613393 -0.432963
H22   H     H_    0.209521 0.034093 0.629784 0.194632
H23   H     H_    0.047260 0.954060 0.631068 0.204132
C34   C     C_3   0.191515 0.849896 0.673086 -0.922539
H24   H     H_    0.145166 0.762101 0.657983 0.283665
H25   H     H_    0.137049 0.875963 0.743370 0.256623
H26   H     H_    0.308209 0.841177 0.662664 0.245569
C35   C     C_3   0.430012 0.578679 0.429456 -0.098005
C36   C     C_3   0.513467 0.510239 0.343228 -0.342769
C37   C     C_3   0.563340 0.596833 0.265242 -0.876899
H27   H     H_    0.469289 0.631108 0.248462 0.260303
H28   H     H_    0.625368 0.674836 0.282022 0.255301
H29   H     H_    0.634372 0.548722 0.206145 0.251880
H30   H     H_    0.610426 0.467493 0.350112 0.226199
H31   H     H_    0.444705 0.436938 0.327348 0.265025
H32   H     H_    0.353868 0.637111 0.411651 0.213635
H33   H     H_    0.497385 0.646919 0.451097 0.109928
O11   O     O_3   0.299092 0.351755 0.220430 -0.642398
C38   C     C_3   0.221893 0.247315 0.205557 0.024755
H34   H     H_    0.248773 0.226772 0.132923 0.152214
H35   H     H_    0.103615 0.260091 0.234351 0.137121
C39   C     C_3   0.263388 0.139428 0.250564 -0.306462
H36   H     H_    0.380660 0.123916 0.221365 0.212940
H37   H     H_    0.240193 0.160106 0.322752 0.243024
C40   C     C_3   0.180264 0.024091 0.238841 -0.879055
H38   H     H_    0.062915 0.036276 0.270449 0.254768
H39   H     H_    0.214663 0.947151 0.270871 0.280027
H40   H     H_    0.201775 0.001491 0.167104 0.242484
O12   O     O_3   0.981491 0.293821 0.930692 -0.618331
C41   C     C_3   0.023095 0.177448 0.893770 0.050327
H41   H     H_    0.099985 0.184874 0.825476 0.145022
H42   H     H_    0.927636 0.120798 0.891767 0.134082
C42   C     C_3   0.098077 0.114923 0.951990 -0.294625
H43   H     H_    0.191424 0.172024 0.956354 0.230407
H44   H     H_    0.021797 0.105104 0.020200 0.209783
C43   C     C_3   0.151151 0.989725 0.914663 -0.970707
H45   H     H_    0.059552 0.930446 0.910459 0.253036
H46   H     H_    0.203737 0.946775 0.958949 0.257731
H47   H     H_    0.230950 0.998172 0.847590 0.264730
O13   O     O_3   0.437228 0.494561 0.821952 -0.589136
C44   C     C_3   0.421328 0.594495 0.771466 0.031823
H48   H     H_    0.518244 0.598290 0.712051 0.131833
H49   H     H_    0.418296 0.684827 0.805220 0.123488
C45   C     C_3   0.292489 0.572991 0.736888 -0.277547
H50   H     H_    0.313332 0.622082 0.673726 0.177781
H51   H     H_    0.281702 0.474957 0.721311 0.231080
C46   C     C_3   0.151928 0.616840 0.802661 -0.835124
H52   H     H_    0.165493 0.709636 0.828253 0.230070
H53   H     H_    0.113198 0.553026 0.858514 0.280596
H54   H     H_    0.068156 0.621619 0.769598 0.247752

loop_
_geom_bond_atom_site_label_1
_geom_bond_atom_site_label_2
_ccdc_geom_bond_type
C13   H2    S    
C45   H50   S    
C24   C27   A    
C12   O4    A    
C1    O1    A    
C20   N1    D    
C46   H52   S    
C30   H15   S    
C21   H6    S    
Cu1   O5    S    
C37   H27   S    
C26   C27   A    
Cu1   O3    S    
C31   H19   S    
Cu2   O4    S    
C5    C11   A    
C3    C7    A    
C17   O10   S    
O11   C38   S    
C5    C6    A    
C38   H35   S    
C1    O2    A    
C30   H16   S    
C28   H11   S    
C9    H9    S    
C44   H48   S    
C31   H18   S    
C18   C19   D    
C16   O9    S    
C42   H43   S    
C33   H22   S    
C20   H5    S    
C11   C15   A    
C8    C9    A    
C32   H21   S    
O13   C44   S    
C10   C13   A    
C39   H37   S    
C9    C10   A    
C4    C8    A    
C15   O11   S    
C23   C25   S    
Cu2   O6    S    
C13   C14   A    
Cu1   N1    S    
C26   O12   S    
Cu2   N2    S    
C45   C46   S    
C12   O3    A    
C42   H44   S    
C41   H42   S    
C41   H41   S    
C37   H28   S    
N1    C35   S    
C29   H14   S    
C1    C19   S    
C7    H1    S    
C36   C37   S    
C43   H46   S    
C36   H31   S    
C34   H25   S    
C38   H34   S    
C16   C17   D    
C30   C31   S    
O9    C29   S    
C19   H4    S    
C40   H40   S    
Cu1   O1    S    
C31   H17   S    
C2    C4    A    
C35   C36   S    
Cu1   Cu2   S    
C14   H8    S    
C21   N2    D    
C23   O7    A    
C27   H10   S    
C32   C33   S    
O12   C41   S    
C40   H39   S    
C45   H51   S    
C39   C40   S    
C22   O5    A    
C16   C18   S    
C8    O13   S    
C41   C42   S    
Cu1   O7    S    
C37   H29   S    
Cu2   O8    S    
C29   H13   S    
Cu2   O2    S    
C3    C26   A    
C24   C28   A    
C4    C5    A    
C38   C39   S    
C36   H30   S    
C34   H26   S    
C46   H53   S    
C6    C7    A    
C12   C24   S    
C17   C22   S    
C44   C45   S    
C22   O6    A    
O10   C32   S    
H7    N2    S    
C2    C3    A    
C34   H24   S    
C35   H32   S    
C23   O8    A    
C33   C34   S    
C40   H38   S    
C44   H49   S    
C43   H47   S    
C42   C43   S    
C14   C25   A    
C35   H33   S    
C18   H3    S    
C46   H54   S    
C15   C25   A    
C10   C11   A    
C20   C21   S    
C33   H23   S    
C32   H20   S    
C6    H12   S    
C43   H45   S    
C2    C28   A    
C39   H36   S    
C29   C30   S    
