data_mof_unit_54596.cif
_audit_creation_date              2012-12-10T16:37:22-0500
_audit_creation_method            fapswitch 2.2
_symmetry_space_group_name_H-M    P1
_symmetry_Int_Tables_number       1
_space_group_crystal_system       triclinic
_cell_length_a                    17.14851
_cell_length_b                    16.763482
_cell_length_c                    16.850435
_cell_angle_alpha                 66.500945
_cell_angle_beta                  66.956082
_cell_angle_gamma                 66.897094
_cell_volume                      3924.24442026

loop_
_atom_site_label
_atom_site_type_symbol
_atom_type_description
_atom_site_fract_x
_atom_site_fract_y
_atom_site_fract_z
_atom_type_partial_charge
C1    C     C_R   0.434596 0.973102 0.685048 -0.223236
C2    C     C_R   0.404539 0.646193 0.088933 -0.210654
C3    C     C_R   0.955190 0.596533 0.336065 -0.219449
C4    C     C_R   0.038927 0.405082 0.665773 -0.248365
C5    C     C_R   0.961547 0.179521 0.438167 0.938393
C6    C     C_R   0.038707 0.820434 0.561749 0.909246
C7    C     C_R   0.168390 0.426571 0.996923 0.956060
C8    C     C_R   0.822175 0.564574 0.029032 0.922905
C9    C     C_R   0.435040 0.969123 0.178217 0.904579
C10   C     C_R   0.571092 0.011563 0.827526 0.919373
C11   C     C_R   0.564493 0.821248 0.031995 0.905432
C12   C     C_R   0.594294 0.920178 0.347401 -0.233123
C13   C     C_R   0.434342 0.178646 0.969120 0.916897
C14   C     C_R   0.037334 0.562168 0.820511 0.929072
C15   C     C_R   0.960013 0.438764 0.179551 0.920543
C16   C     C_R   0.827952 0.011056 0.570878 0.950812
C17   C     C_R   0.177612 0.970363 0.435340 0.924481
C18   C     C_R   0.488849 0.958944 0.734856 0.193303
C19   C     C_R   0.545829 0.906438 0.306263 0.196979
C20   C     C_R   0.070870 0.702438 0.445324 0.205522
C21   C     C_R   0.927682 0.296836 0.554652 0.195286
C22   C     C_R   0.713046 0.453896 0.027817 0.200821
C23   C     C_R   0.043060 0.663912 0.405023 -0.217385
C24   C     C_R   0.260939 0.490351 0.075361 0.170530
C25   C     C_R   0.286215 0.963773 0.545322 0.199304
C26   C     C_R   0.738094 0.959209 0.480963 0.195662
C27   C     C_R   0.531770 0.321254 0.908593 0.188443
C28   C     C_R   0.453975 0.689683 0.098366 0.202529
C29   C     C_R   0.927502 0.556567 0.296998 0.204915
C30   C     C_R   0.066974 0.445279 0.704174 0.189236
C31   C     C_R   0.556692 0.986181 0.550482 0.028955
C32   C     C_R   0.460054 0.969604 0.457902 0.030285
C33   C     C_R   0.022511 0.541913 0.542203 0.027774
C34   C     C_R   0.954876 0.335462 0.595225 -0.246752
C35   C     C_R   0.972157 0.459438 0.459039 0.034034
C36   C     C_R   0.538710 0.542819 0.025877 0.038114
C37   C     C_R   0.443086 0.455706 0.998801 0.032903
C38   C     C_R   0.598854 0.973671 0.463650 0.042823
C39   C     C_R   0.417065 0.988267 0.541641 0.044451
C40   C     C_R   0.011347 0.454118 0.586981 0.039795
C41   C     C_R   0.983118 0.547251 0.414519 0.043603
C42   C     C_R   0.445534 0.574096 0.049401 0.038598
C43   C     C_R   0.536062 0.429172 0.970259 0.032428
C44   C     C_R   0.551822 0.958199 0.420188 0.033650
C45   C     C_R   0.671372 0.423342 0.993594 -0.246387
C46   C     C_R   0.466943 0.988365 0.591267 0.039771
C47   C     C_R   0.397371 0.526597 0.040544 0.041323
C48   C     C_R   0.583335 0.467086 0.991947 0.042205
C49   C     C_R   0.982589 0.414387 0.546830 0.038623
C50   C     C_R   0.013037 0.586429 0.454144 0.041493
C51   C     C_R   0.567842 0.984455 0.692220 0.025186
C52   C     C_R   0.453147 0.939555 0.330251 0.011868
C53   C     C_R   0.058214 0.671643 0.539957 0.045900
C54   C     C_R   0.939054 0.328860 0.460352 0.019439
C55   C     C_R   0.678292 0.543705 0.035474 0.025712
C56   C     C_R   0.305725 0.541720 0.079064 -0.210627
C57   C     C_R   0.303193 0.430025 0.022560 0.033990
C58   C     C_R   0.322012 0.958520 0.455586 0.017571
C59   C     C_R   0.696373 0.983016 0.562694 0.024983
C60   C     C_R   0.440806 0.333320 0.953457 0.007385
C61   C     C_R   0.546315 0.667499 0.061852 0.023247
C62   C     C_R   0.938030 0.461699 0.328622 0.040354
C63   C     C_R   0.055683 0.540024 0.672598 0.033050
C64   C     C_R   0.614800 0.993786 0.740195 -0.190961
C65   C     C_R   0.399799 0.956996 0.274969 -0.168835
C66   C     C_R   0.063681 0.720401 0.589959 -0.159538
C67   C     C_R   0.326963 0.994749 0.578808 -0.244683
C68   C     C_R   0.934950 0.279713 0.410263 -0.179126
C69   C     C_R   0.728087 0.596697 0.034399 -0.164931
C70   C     C_R   0.257503 0.384888 0.007765 -0.162603
C71   C     C_R   0.271740 0.963213 0.402190 -0.166541
C72   C     C_R   0.742124 0.992517 0.612466 -0.165378
C73   C     C_R   0.392563 0.273620 0.966658 -0.173930
C74   C     C_R   0.599578 0.723632 0.043937 -0.158689
C75   C     C_R   0.933824 0.410963 0.279516 -0.176619
C76   C     C_R   0.061544 0.590005 0.720964 -0.155099
C77   C     C_R   0.704480 0.987428 0.703207 -0.100925
C78   C     C_R   0.689228 0.966398 0.428080 -0.224578
C79   C     C_R   0.308262 0.980153 0.309762 -0.117603
C80   C     C_R   0.075984 0.674890 0.675745 -0.231777
C81   C     C_R   0.921141 0.324806 0.325093 -0.106137
C82   C     C_R   0.691027 0.689209 0.019245 -0.109077
C83   C     C_R   0.299684 0.300003 0.996229 -0.122409
C84   C     C_R   0.606155 0.988350 0.600518 0.026978
C85   C     C_R   0.411296 0.958068 0.413735 0.022412
C86   C     C_R   0.044519 0.584998 0.585334 0.020923
C87   C     C_R   0.950275 0.416431 0.415665 0.028739
C88   C     C_R   0.588091 0.585475 0.039180 0.023270
C89   C     C_R   0.578789 0.365983 0.920132 -0.233094
C90   C     C_R   0.395736 0.407286 0.990360 0.026772
C91   C     C_2   0.763655 0.963948 0.760013 0.993545
C92   C     C_2   0.250241 0.045304 0.251230 0.992751
C93   C     C_2   0.116596 0.709071 0.714307 1.032251
C94   C     C_2   0.886069 0.283506 0.287971 0.990738
C95   C     C_2   0.747965 0.748266 0.952812 0.972575
C96   C     C_2   0.242370 0.239813 0.022270 1.011240
H1    H     H_    0.374647 0.953066 0.722903 0.174158
H2    H     H_    0.334086 0.669255 0.115586 0.167146
H3    H     H_    0.947106 0.668709 0.308774 0.172243
H4    H     H_    0.048273 0.332713 0.692655 0.167796
H5    H     H_    0.813638 0.007123 0.820923 0.330686
H6    H     H_    0.174565 0.064110 0.175087 0.358092
H7    H     H_    0.999864 0.783077 0.776670 0.343567
H8    H     H_    0.913156 0.198718 0.216702 0.343807
H9    H     H_    0.824587 0.825102 0.930980 0.347217
H10   H     H_    0.191997 0.176627 0.981981 0.331638
H11   H     H_    0.664989 0.892695 0.326679 0.173487
H12   H     H_    0.052750 0.690599 0.332969 0.170521
H13   H     H_    0.945499 0.308171 0.667203 0.166733
H14   H     H_    0.702361 0.356356 0.984598 0.169652
H15   H     H_    0.268546 0.585479 0.121810 0.165625
H16   H     H_    0.290041 0.011017 0.641598 0.164394
H17   H     H_    0.725694 0.954374 0.363380 0.165024
H18   H     H_    0.648571 0.354121 0.885632 0.173261
I1    I     I_    0.479563 0.843597 0.848929 -0.314646
I2    I     I_    0.389252 0.759486 0.197826 -0.231159
I3    I     I_    0.843055 0.651117 0.215414 -0.245488
I4    I     I_    0.161305 0.352916 0.775822 -0.247288
I5    I     I_    0.612406 0.803833 0.239975 -0.232598
I6    I     I_    0.159153 0.780609 0.352690 -0.245659
I7    I     I_    0.837213 0.220718 0.646334 -0.241868
I8    I     I_    0.783504 0.341697 0.113856 -0.290820
I9    I     I_    0.151792 0.471269 0.187883 -0.340831
I10   I     I_    0.218778 0.874077 0.654919 -0.202964
I11   I     I_    0.854992 0.851998 0.464779 -0.334400
I12   I     I_    0.597467 0.258668 0.803094 -0.214681
O1    O     O_R   0.982940 0.138950 0.510160 -0.615957
O2    O     O_R   0.982940 0.510160 0.138950 -0.612820
O3    O     O_R   0.861050 0.017060 0.489840 -0.623311
O4    O     O_R   0.138950 0.982940 0.510160 -0.624219
O5    O     O_R   0.867700 0.025880 0.612340 -0.592923
O6    O     O_R   0.132300 0.974120 0.387660 -0.585869
O7    O     O_R   0.025880 0.612340 0.867700 -0.610879
O8    O     O_R   0.974120 0.387660 0.132300 -0.578738
O9    O     O_R   0.612340 0.867700 0.025880 -0.591873
O10   O     O_R   0.387660 0.132300 0.974120 -0.602635
O11   O     O_R   0.387660 0.974120 0.132300 -0.584083
O12   O     O_R   0.017060 0.861050 0.489840 -0.599201
O13   O     O_R   0.612340 0.025880 0.867700 -0.584818
O14   O     O_R   0.132300 0.387660 0.974120 -0.595324
O15   O     O_R   0.867700 0.612340 0.025880 -0.588938
O16   O     O_R   0.974120 0.132300 0.387660 -0.590057
O17   O     O_R   0.025880 0.867700 0.612340 -0.611942
O18   O     O_2   0.820077 0.891137 0.767880 -0.625529
O19   O     O_R   0.766934 0.030410 0.788142 -0.724567
O20   O     O_2   0.223685 0.124798 0.249840 -0.588580
O21   O     O_R   0.218861 0.014318 0.206899 -0.726269
O22   O     O_2   0.195994 0.679238 0.704904 -0.542068
O23   O     O_R   0.138950 0.510160 0.982940 -0.609367
O24   O     O_R   0.065539 0.768235 0.767320 -0.725694
O25   O     O_2   0.807170 0.289885 0.314322 -0.595516
O26   O     O_R   0.943762 0.231100 0.229687 -0.731251
O27   O     O_2   0.771820 0.749930 0.873905 -0.604410
O28   O     O_R   0.781063 0.793029 0.981610 -0.729729
O29   O     O_2   0.191959 0.225109 0.097929 -0.595480
O30   O     O_R   0.236112 0.213004 0.956673 -0.733993
O31   O     O_R   0.861050 0.489840 0.017060 -0.625636
O32   O     O_R   0.510160 0.982940 0.138950 -0.619331
O33   O     O_R   0.489840 0.017060 0.861050 -0.606748
O34   O     O_R   0.489840 0.861050 0.017060 -0.603248
O35   O     O_R   0.510160 0.138950 0.982940 -0.608435
O36   O     O_R   0.017060 0.489840 0.861050 -0.613063
Zn1   Zn    Zn3+2 0.004880 0.004880 0.583590 1.073002
Zn2   Zn    Zn3+2 0.995120 0.995120 0.416410 1.081748
Zn3   Zn    Zn3+2 0.004880 0.583590 0.004880 1.088663
Zn4   Zn    Zn3+2 0.995120 0.416410 0.995120 1.079317
Zn5   Zn    Zn3+2 0.583590 0.004880 0.004880 1.067146
Zn6   Zn    Zn3+2 0.416410 0.995120 0.995120 1.076453

loop_
_geom_bond_atom_site_label_1
_geom_bond_atom_site_label_2
_ccdc_geom_bond_type
O4    Zn1   S    
C15   C75   S    
C37   C43   A    
C65   C79   A    
C64   C77   A    
C36   C42   A    
C16   C72   S    
C91   O19   S    
C7    C70   S    
C71   C79   A    
C15   O8    A    
C96   O30   S    
C36   C88   A    
H5    O19   S    
C1    C18   A    
C43   C89   A    
C37   C90   A    
C68   C81   A    
C52   C85   A    
C11   O9    A    
C27   C60   A    
O16   Zn2   S    
C54   C87   A    
C27   I12   S    
C58   C71   A    
C96   O29   D    
C54   C68   A    
C63   C76   A    
C83   C96   S    
C94   O26   S    
C40   C49   A    
C60   C73   A    
O33   Zn6   S    
O35   Zn5   S    
C93   O22   D    
C32   C39   A    
C55   C88   A    
C3    C29   A    
C16   O5    A    
C69   C82   A    
C28   I2    S    
H7    O24   S    
O36   Zn4   S    
C9    O11   A    
C19   C52   A    
C3    C41   A    
C4    C40   A    
C24   C57   A    
C31   C46   A    
C25   C67   A    
C35   C49   A    
O8    Zn4   S    
C36   C48   A    
C53   C86   A    
C57   C70   A    
C37   C47   A    
C43   C48   A    
C56   H15   S    
C59   C72   A    
C28   C61   A    
H9    O28   S    
C19   I5    S    
C7    O23   A    
C30   C63   A    
C17   O6    A    
C93   O24   S    
C35   C87   A    
C74   C82   A    
C5    C68   S    
C35   C41   A    
C8    O31   A    
O17   Zn1   S    
O32   Zn5   S    
C22   I8    S    
O14   Zn4   S    
C33   C40   A    
C57   C90   A    
C18   I1    S    
C92   O20   D    
O23   Zn3   S    
C59   C84   A    
C23   H12   S    
C1    H1    S    
C45   H14   S    
C75   C81   A    
C23   C50   A    
C21   C34   A    
C30   I4    S    
C33   C50   A    
C29   I3    S    
C6    O17   A    
C24   I9    S    
C31   C84   A    
O3    Zn2   S    
C95   O27   D    
C26   I11   S    
C14   C76   S    
C14   O36   A    
C33   C86   A    
O6    Zn2   S    
C38   C44   A    
C72   C77   A    
C70   C83   A    
C61   C88   A    
O7    Zn3   S    
H6    O21   S    
C20   C23   A    
O5    Zn1   S    
C5    O1    A    
C8    C69   S    
C26   C78   A    
O13   Zn5   S    
C16   O3    A    
C6    O12   A    
C2    H2    S    
C79   C92   S    
C8    O15   A    
C39   C46   A    
C13   C73   S    
C17   C71   S    
H10   O30   S    
C15   O2    A    
C4    H4    S    
C63   C86   A    
O2    Zn3   S    
C61   C74   A    
C13   O10   A    
C62   C75   A    
C78   H17   S    
C10   O13   A    
C58   C85   A    
C41   C50   A    
C20   I6    S    
C66   C80   A    
C91   O18   D    
C26   C59   A    
C45   C48   A    
C29   C62   A    
C77   C91   S    
C34   C49   A    
O1    Zn1   S    
C82   C95   S    
C17   O4    A    
C39   C67   A    
C10   C64   S    
C51   C64   A    
C76   C80   A    
C20   C53   A    
C11   C74   S    
O31   Zn4   S    
C12   H11   S    
O12   Zn2   S    
C13   O35   A    
C22   C55   A    
C14   O7    A    
C60   C90   A    
C18   C51   A    
C24   C56   A    
O10   Zn6   S    
C62   C87   A    
C38   C78   A    
C31   C38   A    
C21   C54   A    
C95   O28   S    
O15   Zn3   S    
C55   C69   A    
C94   O25   D    
C12   C44   A    
C53   C66   A    
C89   H18   S    
C81   C94   S    
H8    O26   S    
C5    O16   A    
C7    O14   A    
C9    O32   A    
C2    C42   A    
C32   C85   A    
C51   C84   A    
C12   C19   A    
C27   C89   A    
C42   C47   A    
O34   Zn6   S    
C21   I7    S    
C1    C46   A    
C25   I10   S    
C9    C65   S    
C11   O34   A    
C3    H3    S    
C67   H16   S    
C6    C66   S    
C22   C45   A    
C32   C44   A    
C25   C58   A    
C34   H13   S    
O9    Zn5   S    
C2    C28   A    
C80   C93   S    
C10   O33   A    
C73   C83   A    
O11   Zn6   S    
C4    C30   A    
C52   C65   A    
C47   C56   A    
C92   O21   S    
