data_mof_unit_54647.cif
_audit_creation_date              2012-12-11T15:10:45-0500
_audit_creation_method            fapswitch 2.2
_symmetry_space_group_name_H-M    P1
_symmetry_Int_Tables_number       1
_space_group_crystal_system       triclinic
_cell_length_a                    21.16449
_cell_length_b                    7.232336
_cell_length_c                    18.395829
_cell_angle_alpha                 90.000403
_cell_angle_beta                  92.945276
_cell_angle_gamma                 90.000148
_cell_volume                      2812.10616488

loop_
_atom_site_label
_atom_site_type_symbol
_atom_type_description
_atom_site_fract_x
_atom_site_fract_y
_atom_site_fract_z
_atom_type_partial_charge
O1    O     O_R   0.448880 0.506250 0.415280 -0.537106
O2    O     O_R   0.551120 0.006250 0.584720 -0.537106
O3    O     O_R   0.434830 0.174000 0.557310 -0.504691
O4    O     O_R   0.565170 0.674000 0.442690 -0.504689
C1    C     C_R   0.417627 0.344577 0.580507 0.738517
C2    C     C_R   0.582373 0.844577 0.419494 0.738512
O5    O     O_R   0.441680 0.176440 0.414130 -0.515603
O6    O     O_R   0.558320 0.676440 0.585870 -0.515601
O7    O     O_R   0.558020 0.007570 0.440520 -0.526893
O8    O     O_R   0.441980 0.507570 0.559480 -0.526892
C3    C     C_R   0.425745 0.345405 0.390360 0.733870
C4    C     C_R   0.574255 0.845406 0.609640 0.733867
O9    O     O_3   0.538160 0.339670 0.508820 -0.358326
O10   O     O_3   0.461840 0.839670 0.491180 -0.358330
V1    V     V_3+5 0.492920 0.064260 0.498360 1.509260
V2    V     V_3+5 0.507080 0.564260 0.501640 1.509263
C5    C     C_R   0.884422 0.876999 0.691304 -0.135926
C6    C     C_R   0.115579 0.377049 0.308697 -0.135924
H1    H     H_    0.970630 0.909647 0.755880 0.108007
H2    H     H_    0.029371 0.409693 0.244121 0.108006
H3    H     H_    0.811593 0.782504 0.578779 0.162477
H4    H     H_    0.188407 0.282574 0.421226 0.162476
H5    H     H_    0.909455 0.852137 0.642285 0.119209
H6    H     H_    0.090546 0.352208 0.357718 0.119209
C7    C     C_R   0.888972 0.936710 0.820438 -0.034732
C8    C     C_R   0.111029 0.436717 0.179562 -0.034732
C9    C     C_R   0.583352 0.897477 0.740336 -0.169450
C10   C     C_R   0.416649 0.397427 0.259660 -0.169454
C11   C     C_R   0.616031 0.935979 0.805769 -0.117091
C12   C     C_R   0.383970 0.435906 0.194225 -0.117089
C13   C     C_R   0.681706 0.938619 0.810367 -0.135361
C14   C     C_R   0.318295 0.438568 0.189628 -0.135362
C15   C     C_R   0.717209 0.897076 0.749441 0.047372
C16   C     C_R   0.282792 0.397066 0.250557 0.047371
C17   C     C_R   0.683525 0.849536 0.681732 0.016934
C18   C     C_R   0.316475 0.349544 0.318268 0.016937
C19   C     C_R   0.785259 0.902257 0.754022 0.074222
C20   C     C_R   0.214742 0.402263 0.245978 0.074222
C21   C     C_R   0.818145 0.869080 0.690160 0.084416
C22   C     C_R   0.181856 0.369116 0.309842 0.084417
C23   C     C_R   0.785375 0.818189 0.625963 -0.191065
C24   C     C_R   0.214625 0.318240 0.374040 -0.191062
C25   C     C_R   0.719982 0.798830 0.622027 0.200582
C26   C     C_R   0.280017 0.298866 0.377976 0.200579
C27   C     C_R   0.822378 0.935323 0.819744 -0.199577
C28   C     C_R   0.177623 0.435317 0.180255 -0.199577
C29   C     C_R   0.919423 0.910032 0.755873 -0.157814
C30   C     C_R   0.080578 0.410067 0.244127 -0.157816
C31   C     C_R   0.615341 0.856419 0.677616 -0.063128
C32   C     C_R   0.384659 0.356410 0.322383 -0.063126
H7    H     H_    0.801471 0.953366 0.871450 0.090237
H8    H     H_    0.198530 0.453343 0.128548 0.090236
H9    H     H_    0.532099 0.903719 0.738234 0.099908
H10   H     H_    0.467902 0.403651 0.261761 0.099907
H11   H     H_    0.703297 0.976278 0.862532 0.106065
H12   H     H_    0.296706 0.476205 0.137461 0.106064
H13   H     H_    0.590043 0.968863 0.853283 0.117119
H14   H     H_    0.409959 0.468755 0.146708 0.117119
C33   C     C_1   0.864415 0.938989 0.131955 -0.206640
C34   C     C_1   0.135585 0.438988 0.868045 -0.206641
C35   C     C_1   0.821454 0.924963 0.175570 0.000509
C36   C     C_1   0.178546 0.424963 0.824430 0.000509
C37   C     C_1   0.770741 0.905867 0.227483 0.002906
C38   C     C_1   0.229260 0.405867 0.772518 0.002906
C39   C     C_1   0.728036 0.889249 0.271294 0.005600
C40   C     C_1   0.271965 0.389250 0.728707 0.005600
C41   C     C_1   0.677345 0.870147 0.323227 0.019963
C42   C     C_1   0.322656 0.370148 0.676774 0.019966
C43   C     C_1   0.634460 0.856088 0.366929 -0.148205
C44   C     C_1   0.365540 0.356089 0.633071 -0.148202
O11   O     O_R   0.058070 0.289240 0.940580 -0.519711
O12   O     O_R   0.941930 0.789240 0.059420 -0.519710
O13   O     O_R   0.058330 0.616740 0.085880 -0.533880
O14   O     O_R   0.941670 0.116740 0.914120 -0.533880
C45   C     C_R   0.072070 0.448323 0.111124 0.682737
C46   C     C_R   0.927930 0.948322 0.888876 0.682738
O15   O     O_R   0.065180 0.619040 0.942700 -0.523515
O16   O     O_R   0.934820 0.119040 0.057300 -0.523515
O17   O     O_R   0.948870 0.787780 0.915270 -0.530361
O18   O     O_R   0.051130 0.287780 0.084730 -0.530360
C47   C     C_R   0.083229 0.450335 0.920235 0.705436
C48   C     C_R   0.916771 0.950335 0.079765 0.705437
O19   O     O_3   0.961870 0.453310 0.991210 -0.366223
O20   O     O_3   0.038130 0.953310 0.008790 -0.366223
V3    V     V_3+5 0.007070 0.728770 0.001630 1.420826
V4    V     V_3+5 0.992930 0.228770 0.998370 1.420825
Br1   Br    Br    0.689654 0.669826 0.536670 -0.570872
Br2   Br    Br    0.310342 0.169863 0.463334 -0.570880

loop_
_geom_bond_atom_site_label_1
_geom_bond_atom_site_label_2
_ccdc_geom_bond_type
C2    C43   S    
C40   C42   S    
C37   C39   T    
C9    C11   A    
C23   C25   A    
O1    C3    A    
C46   O17   A    
O2    C4    A    
C2    O7    A    
O12   V3    S    
O3    V1    S    
C21   C23   A    
O5    C3    A    
C5    H5    S    
O14   C46   A    
C6    H6    S    
H1    C29   S    
C27   H7    S    
C28   H8    S    
C34   C36   T    
C5    C21   A    
C35   C37   S    
C6    C22   A    
C36   C38   S    
C10   C32   A    
C39   C41   S    
C17   C31   A    
O18   V4    S    
C33   C48   S    
C12   C14   A    
C17   C25   A    
C45   O18   A    
C7    C29   A    
C8    C30   A    
O16   V4    S    
O5    V1    S    
O15   V3    S    
O6    V2    S    
O13   C45   A    
C24   C26   A    
C4    C31   S    
C33   C35   T    
O20   V3    S    
O4    C2    A    
C10   H10   S    
C15   C19   A    
C41   C43   T    
C14   C16   A    
O4    V2    S    
C1    C44   S    
O11   V4    S    
C34   C47   S    
O16   C48   A    
O15   C47   A    
O6    C4    A    
C13   C15   A    
C8    C45   S    
O1    V2    S    
O14   V4    S    
O2    V1    S    
O13   V3    S    
H2    C30   S    
H3    C23   S    
C42   C44   T    
C11   H13   S    
C18   C26   A    
C19   C27   A    
C7    C27   A    
O17   V3    S    
C18   C32   A    
C16   C20   A    
C5    C29   A    
O3    C1    A    
C6    C30   A    
C9    H9    S    
C7    C46   S    
C25   Br1   S    
C10   C12   A    
O7    V1    S    
C1    O8    A    
C19   C21   A    
C3    C32   S    
O8    V2    S    
C20   C22   A    
H4    C24   S    
C12   H14   S    
C22   C24   A    
C15   C17   A    
C16   C18   A    
C20   C28   A    
C8    C28   A    
O19   V4    S    
C11   C13   A    
O9    V2    S    
O10   V1    S    
C13   H11   S    
C26   Br2   S    
C14   H12   S    
O12   C48   A    
C9    C31   A    
C38   C40   T    
O11   C47   A    
