data_mof_unit_44369.cif
_audit_creation_date              2012-12-11T15:53:41-0500
_audit_creation_method            fapswitch 2.2
_symmetry_space_group_name_H-M    P1
_symmetry_Int_Tables_number       1
_space_group_crystal_system       triclinic
_cell_length_a                    10.678539
_cell_length_b                    10.712955
_cell_length_c                    16.998954
_cell_angle_alpha                 80.448306
_cell_angle_beta                  99.57037
_cell_angle_gamma                 118.511739
_cell_volume                      1676.5939845

loop_
_atom_site_label
_atom_site_type_symbol
_atom_type_description
_atom_site_fract_x
_atom_site_fract_y
_atom_site_fract_z
_atom_type_partial_charge
C1    C     C_R   0.356833 0.219753 0.625229 0.553592
C2    C     C_1   0.290661 0.105954 0.771066 -0.032259
C3    C     C_1   0.335600 0.663918 0.277795 -0.026320
C4    C     C_R   0.370767 0.654304 0.586877 0.563412
C5    C     C_1   0.323330 0.673161 0.206943 -0.030962
C6    C     C_R   0.859575 0.678426 0.165257 0.019952
C7    C     C_R   0.918929 0.608085 0.224045 0.014589
C8    C     C_R   0.903891 0.600945 0.303308 0.019024
C9    C     C_R   0.799010 0.761717 0.268928 -0.166069
C10   C     C_R   0.806885 0.762246 0.188097 -0.177784
C11   C     C_3   0.894134 0.456927 0.231033 -0.222108
C12   C     C_R   0.397474 0.829072 0.676349 -0.158778
C13   C     C_3   0.869288 0.446347 0.317445 0.003408
C14   C     C_R   0.836970 0.671007 0.326422 0.001445
C15   C     C_R   0.303299 0.126323 0.169922 0.046207
C16   C     C_R   0.782851 0.621730 0.625738 0.538741
C17   C     C_R   0.182565 0.093948 0.206813 0.062008
C18   C     C_R   0.190811 0.104201 0.286313 -0.027203
C19   C     C_R   0.436581 0.148719 0.301192 -0.155033
C20   C     C_R   0.427787 0.139705 0.219182 -0.168593
C21   C     C_3   0.062139 0.130943 0.185133 0.153383
C22   C     C_3   0.074510 0.148622 0.273431 -0.229873
C23   C     C_R   0.378838 0.851782 0.751312 -0.169537
C24   C     C_R   0.322082 0.147662 0.332927 0.018574
C25   C     C_R   0.948732 0.725454 0.851736 0.528631
C26   C     C_R   0.281076 0.751477 0.882979 0.541328
C27   C     C_R   0.251558 0.057194 0.851317 0.516346
C28   C     C_R   0.350318 0.223080 0.401503 0.552881
C29   C     C_R   0.889803 0.691908 0.084664 0.558471
C30   C     C_R   0.313138 0.700668 0.123729 0.579267
C31   C     C_R   0.282760 0.102689 0.087018 0.569317
C32   C     C_R   0.365103 0.654285 0.360916 0.554133
C33   C     C_R   0.773065 0.623607 0.400509 0.546432
C34   C     C_3   0.114158 0.463070 0.793481 -0.230801
C35   C     C_R   0.276424 0.740458 0.797868 -0.018549
C36   C     C_R   0.175652 0.617677 0.761089 -0.035339
C37   C     C_R   0.202221 0.591706 0.689810 0.012197
C38   C     C_3   0.928556 0.273305 0.403584 -0.298850
C39   C     C_3   0.974828 0.269831 0.099667 0.000194
C40   C     C_3   0.928139 0.211657 0.017471 -0.256424
C41   C     C_3   0.794845 0.223524 0.977176 -0.476175
C42   C     C_3   0.379338 0.459672 0.791275 0.018253
C43   C     C_3   0.524160 0.486254 0.769256 -0.252083
C44   C     C_3   0.599790 0.423683 0.835346 -0.449072
C45   C     C_3   0.156577 0.437644 0.718278 0.160917
C46   C     C_R   0.318302 0.692547 0.648728 0.018199
C47   C     C_1   0.855042 0.671380 0.701803 -0.058104
C48   C     C_1   0.902021 0.706086 0.768632 -0.058271
C49   C     C_1   0.326725 0.151359 0.704427 -0.018277
Cr1   Cr    Cr6+3 0.608440 0.389080 0.519680 0.997574
Cr2   Cr    Cr6+3 0.288640 0.400090 0.490760 1.012355
Cr3   Cr    Cr6+3 0.602940 0.710800 0.489510 1.007451
Cr4   Cr    Cr6+3 0.052530 0.947560 0.964210 0.997761
Cr5   Cr    Cr6+3 0.059970 0.626800 0.992920 0.969659
Cr6   Cr    Cr6+3 0.373320 0.938440 0.995370 0.979805
H1    H     H_    0.484697 0.913470 0.644850 0.143101
H2    H     H_    0.996073 0.414873 0.793879 0.110375
H3    H     H_    0.167692 0.440520 0.851644 0.147515
H4    H     H_    0.062786 0.366025 0.679788 0.133684
H5    H     H_    0.748233 0.819415 0.284845 0.143731
H6    H     H_    0.767288 0.823294 0.143519 0.121230
H7    H     H_    0.992781 0.451225 0.223711 0.165115
H8    H     H_    0.016190 0.487014 0.420096 0.268846
H9    H     H_    0.019854 0.260907 0.438755 0.180456
H10   H     H_    0.888565 0.206368 0.352819 0.130523
H11   H     H_    0.841657 0.235944 0.443081 0.122682
H12   H     H_    0.796359 0.387650 0.193835 0.100343
H13   H     H_    0.999653 0.383521 0.090730 0.195413
H14   H     H_    0.884713 0.215633 0.138457 0.089256
H15   H     H_    0.016674 0.272971 0.978463 0.179568
H16   H     H_    0.904113 0.097689 0.024270 0.173250
H17   H     H_    0.703397 0.158382 0.013759 0.152156
H18   H     H_    0.765574 0.183826 0.917080 0.142217
H19   H     H_    0.815466 0.336441 0.969718 0.177113
H20   H     H_    0.348710 0.383459 0.846073 0.169000
H21   H     H_    0.394722 0.563608 0.805523 0.135238
H22   H     H_    0.511085 0.440747 0.712840 0.206760
H23   H     H_    0.756471 0.373777 0.329649 0.155734
H24   H     H_    0.593787 0.603090 0.758220 0.147579
H25   H     H_    0.632842 0.482888 0.889092 0.179473
H26   H     H_    0.694561 0.429301 0.813372 0.170838
H27   H     H_    0.529026 0.310009 0.852517 0.174580
H28   H     H_    0.537040 0.171092 0.337304 0.124808
H29   H     H_    0.519202 0.148989 0.194231 0.123736
H30   H     H_    0.962775 0.038689 0.163680 0.108617
H31   H     H_    0.112772 0.261259 0.284451 0.192788
H32   H     H_    0.978228 0.068647 0.303078 0.084288
H33   H     H_    0.452825 0.951809 0.775584 0.136577
N1    N     N_2   0.974505 0.421633 0.374215 -0.495394
O1    O     O_R   0.754020 0.497590 0.609930 -0.517190
O2    O     O_R   0.406180 0.826930 0.920660 -0.510819
O3    O     O_R   0.358620 0.062870 0.901950 -0.530555
O4    O     O_R   0.481420 0.271390 0.600630 -0.512335
O5    O     O_R   0.163910 0.085460 0.050210 -0.496543
O6    O     O_R   0.935200 0.815170 0.045770 -0.505255
O7    O     O_R   0.916120 0.596690 0.069430 -0.539503
O8    O     O_R   0.192310 0.631200 0.086170 -0.497910
O9    O     O_R   0.406770 0.819480 0.096420 -0.515153
O10   O     O_R   0.359170 0.055960 0.064880 -0.510951
O11   O     O_3   0.161940 0.837600 0.984160 -0.297591
O12   O     O_R   0.295080 0.533620 0.397890 -0.491400
O13   O     O_R   0.263810 0.254550 0.589590 -0.484085
O14   O     O_R   0.300820 0.531200 0.560890 -0.478271
O15   O     O_R   0.491480 0.744020 0.564270 -0.528789
O16   O     O_R   0.726290 0.693800 0.583010 -0.493640
O17   O     O_R   0.747830 0.500190 0.434090 -0.526923
O18   O     O_R   0.475680 0.273800 0.437630 -0.509255
O19   O     O_R   0.257620 0.257160 0.413750 -0.536471
O20   O     O_3   0.100410 0.261075 0.135645 -0.551290
O21   O     O_3   0.271033 0.401050 0.727492 -0.537346
O22   O     O_R   0.485280 0.746620 0.388440 -0.523607
O23   O     O_R   0.720550 0.696220 0.420010 -0.508085
O24   O     O_3   0.500010 0.499990 0.499980 -0.244599
O25   O     O_R   0.163320 0.092900 0.874450 -0.499147
O26   O     O_R   0.934650 0.822080 0.882840 -0.493136
O27   O     O_R   0.915520 0.604140 0.893670 -0.539037
O28   O     O_R   0.191760 0.638110 0.923230 -0.511351

loop_
_geom_bond_atom_site_label_1
_geom_bond_atom_site_label_2
_ccdc_geom_bond_type
C16   O1    A    
C8    C13   S    
C32   O22   A    
Cr4   O6    S    
C39   H13   S    
C19   C20   A    
C26   O28   A    
C43   C44   S    
C11   H7    S    
C14   C33   S    
C7    C8    A    
C4    C46   S    
Cr3   O24   S    
Cr2   O13   S    
C7    C11   S    
C12   C23   A    
C42   H20   S    
Cr2   O24   S    
C40   H15   S    
C18   C24   A    
C36   C37   A    
C40   H16   S    
C44   H27   S    
C25   O26   A    
Cr3   O23   S    
C28   O18   A    
C43   H24   S    
C4    O14   A    
Cr6   O2    S    
C41   H19   S    
Cr1   O1    S    
C45   H4    S    
C38   H11   S    
Cr2   O19   S    
Cr5   O27   S    
Cr6   O11   S    
C34   H2    S    
Cr5   O8    S    
C2    C27   S    
C31   O10   A    
C9    C10   A    
Cr5   O7    S    
C21   C22   S    
Cr5   O11   S    
C19   H28   S    
C16   C47   S    
C11   H12   S    
C38   H9    S    
Cr4   O11   S    
C15   C20   A    
C21   H30   S    
C44   H25   S    
C12   C46   A    
C44   H26   S    
C25   O27   A    
C39   C40   S    
C34   C45   S    
C45   O21   S    
Cr3   O22   S    
C26   O2    A    
C17   C21   S    
C35   C36   A    
C9    C14   A    
Cr6   O3    S    
C2    C49   T    
C47   C48   T    
C30   O8    A    
C38   H10   S    
H8    N1    S    
C17   C18   A    
C39   H14   S    
C27   O3    A    
C33   O23   A    
C22   H32   S    
C34   H3    S    
C25   C48   S    
C12   H1    S    
C16   O16   A    
C41   H17   S    
C40   C41   S    
Cr3   O16   S    
C23   C35   A    
C23   H33   S    
C20   H29   S    
Cr1   O18   S    
C10   H6    S    
Cr2   O12   S    
C42   C43   S    
C37   C45   S    
Cr4   O25   S    
C29   O6    A    
C5    C30   S    
C15   C17   A    
C13   H23   S    
Cr3   O15   S    
C8    C14   A    
C13   N1    S    
Cr4   O5    S    
C18   C22   S    
C33   O17   A    
C24   C28   S    
C3    C5    T    
C6    C10   A    
C29   O7    A    
C21   O20   S    
Cr1   O4    S    
C15   C31   S    
C6    C7    A    
C43   H22   S    
C31   O5    A    
C30   O9    A    
C42   H21   S    
C9    H5    S    
C38   N1    S    
Cr1   O24   S    
C19   C24   A    
C42   O21   S    
C11   C13   S    
C1    C49   S    
C28   O19   A    
C4    O15   A    
Cr6   O9    S    
C34   C36   S    
C22   H31   S    
C3    C32   S    
C41   H18   S    
C27   O25   A    
C26   C35   S    
C39   O20   S    
C6    C29   S    
C1    O4    A    
Cr5   O28   S    
Cr6   O10   S    
Cr1   O17   S    
C32   O12   A    
C37   C46   A    
Cr2   O14   S    
C1    O13   A    
Cr4   O26   S    
