data_mof_unit_42466.cif
_audit_creation_date              2012-10-26T18:40:17-0400
_audit_creation_method            fapswitch 2.2
_symmetry_space_group_name_H-M    P1
_symmetry_Int_Tables_number       1
_space_group_crystal_system       triclinic
_cell_length_a                    8.71911
_cell_length_b                    15.12164
_cell_length_c                    13.857976
_cell_angle_alpha                 89.930895
_cell_angle_beta                  97.859828
_cell_angle_gamma                 90.434845
_cell_volume                      1809.91889973

loop_
_atom_site_label
_atom_site_type_symbol
_atom_type_description
_atom_site_fract_x
_atom_site_fract_y
_atom_site_fract_z
_atom_type_partial_charge
C1    C     C_R   0.501504 0.330335 0.500260 0.549288
C2    C     C_R   0.566442 0.570283 0.897766 -0.146877
C3    C     C_R   0.499412 0.500507 0.054669 0.022275
C4    C     C_R   0.499515 0.500321 0.945350 0.023006
C5    C     C_R   0.203677 0.500081 0.475110 0.539790
C6    C     C_R   0.796315 0.500275 0.524865 0.560507
C7    C     C_2   0.037909 0.500298 0.461283 -0.167072
C8    C     C_2   0.962075 0.500933 0.538577 -0.148392
C9    C     C_R   0.622065 0.095368 0.553173 -0.122327
C10   C     C_R   0.441306 0.906769 0.412296 -0.122817
C11   C     C_R   0.624599 0.187636 0.555531 -0.026594
C12   C     C_R   0.495069 0.670217 0.499312 0.541169
C13   C     C_R   0.433791 0.814512 0.411262 -0.022726
C14   C     C_R   0.503195 0.234479 0.500912 0.016295
C15   C     C_R   0.487258 0.767154 0.497683 0.005842
C16   C     C_R   0.381079 0.189245 0.445878 -0.149355
C17   C     C_R   0.538571 0.813591 0.583747 -0.145093
C18   C     C_R   0.377401 0.097496 0.445862 -0.124743
C19   C     C_R   0.541084 0.905360 0.584312 -0.126828
C20   C     C_R   0.498063 0.049816 0.499114 0.020112
C21   C     C_R   0.494215 0.952600 0.498475 0.020902
C22   C     C_R   0.757034 0.233624 0.612653 0.030114
C23   C     C_R   0.616983 0.543689 0.117911 -0.145862
C24   C     C_R   0.896572 0.244831 0.574012 -0.099544
C25   C     C_R   0.020940 0.289724 0.627561 -0.116336
C26   C     C_R   0.006261 0.323750 0.719619 -0.107902
C27   C     C_R   0.867738 0.312448 0.758549 -0.096902
C28   C     C_R   0.743606 0.267077 0.705539 -0.059233
C29   C     C_R   0.364448 0.770250 0.320050 0.047640
C30   C     C_R   0.436162 0.776900 0.235512 -0.096635
C31   C     C_R   0.373601 0.732371 0.150586 -0.109326
C32   C     C_R   0.238865 0.681449 0.149351 -0.095844
C33   C     C_R   0.165878 0.675311 0.232876 -0.096441
C34   C     C_R   0.433140 0.430061 0.886590 -0.151047
C35   C     C_R   0.227878 0.719807 0.317902 -0.054915
C36   C     C_R   0.614498 0.543144 0.219198 0.052967
C37   C     C_R   0.433963 0.431422 0.785136 0.032761
C38   C     C_R   0.384849 0.457490 0.199558 0.049745
C39   C     C_R   0.566454 0.568493 0.796268 0.045330
C40   C     C_R   0.381845 0.457383 0.097799 -0.147263
Cu1   Cu    Cu3+1 0.500000 0.499990 0.596430 0.931371
Cu2   Cu    Cu3+1 0.500000 0.500010 0.403570 0.941845
H1    H     H_    0.978083 0.499786 0.387092 0.117009
H2    H     H_    0.382469 0.373438 0.918441 0.085692
H3    H     H_    0.705092 0.577299 0.266247 0.114106
H4    H     H_    0.381974 0.376991 0.741562 0.113363
H5    H     H_    0.293976 0.423631 0.231118 0.117375
H6    H     H_    0.619658 0.622554 0.761594 0.116315
H7    H     H_    0.286418 0.424567 0.053527 0.083902
H8    H     H_    0.616996 0.626994 0.938080 0.081474
H9    H     H_    0.908498 0.219374 0.502417 0.105074
H10   H     H_    0.128219 0.298734 0.597434 0.115728
H11   H     H_    0.101893 0.359084 0.760746 0.096921
H12   H     H_    0.021963 0.501602 0.612737 0.133286
H13   H     H_    0.856459 0.338944 0.829741 0.103827
H14   H     H_    0.636711 0.258711 0.736316 0.102916
H15   H     H_    0.541628 0.815287 0.235939 0.097288
H16   H     H_    0.430231 0.736766 0.085920 0.102399
H17   H     H_    0.191294 0.646559 0.083750 0.105507
H18   H     H_    0.061680 0.635743 0.231901 0.089126
H19   H     H_    0.170920 0.714059 0.382395 0.094613
H20   H     H_    0.717417 0.059272 0.593028 0.108023
H21   H     H_    0.404472 0.942816 0.345600 0.104113
H22   H     H_    0.286999 0.225144 0.404403 0.104678
H23   H     H_    0.578740 0.778897 0.650788 0.118077
H24   H     H_    0.279142 0.063918 0.405118 0.107297
H25   H     H_    0.579224 0.939383 0.652174 0.105598
H26   H     H_    0.712020 0.576911 0.089982 0.080734
N1    N     N_R   0.500000 0.500020 0.258690 -0.213986
N2    N     N_R   0.500000 0.499980 0.741310 -0.218226
O1    O     O_R   0.500010 0.371450 0.581430 -0.511735
O2    O     O_R   0.499990 0.628550 0.418570 -0.487205
O3    O     O_R   0.500010 0.371460 0.418560 -0.499236
O4    O     O_R   0.499990 0.628540 0.581440 -0.516303
O5    O     O_R   0.274840 0.499990 0.562640 -0.500132
O6    O     O_R   0.725160 0.500010 0.437360 -0.510024
O7    O     O_R   0.274840 0.500000 0.399770 -0.509485
O8    O     O_R   0.725160 0.500000 0.600230 -0.488995

loop_
_geom_bond_atom_site_label_1
_geom_bond_atom_site_label_2
_ccdc_geom_bond_type
C12   O4    A    
C34   C37   A    
Cu1   Cu2   S    
C3    C23   A    
C10   H21   S    
C28   H14   S    
C7    C8    D    
C26   C27   A    
C1    O1    A    
C31   H16   S    
C13   C29   S    
C19   C21   A    
C30   C31   A    
C11   C14   A    
C27   H13   S    
C6    O8    A    
C40   H7    S    
C30   H15   S    
C22   C24   A    
C2    H8    S    
C33   C35   A    
Cu1   O4    S    
C2    C39   A    
C19   H25   S    
C7    H1    S    
Cu1   O1    S    
C24   H9    S    
C12   O2    A    
C38   N1    A    
C22   C28   A    
C37   N2    A    
C10   C21   A    
C4    C34   A    
C9    H20   S    
C34   H2    S    
C24   C25   A    
C8    H12   S    
Cu1   O8    S    
C5    C7    S    
C6    C8    S    
C25   C26   A    
Cu2   N1    S    
C23   H26   S    
C5    O5    A    
C2    C4    A    
C29   C30   A    
Cu1   O5    S    
C9    C20   A    
C31   C32   A    
C12   C15   S    
Cu2   O2    S    
C36   H3    S    
C35   H19   S    
C9    C11   A    
C38   H5    S    
C3    C40   A    
C33   H18   S    
C13   C15   A    
C14   C16   A    
C5    O7    A    
C3    C4    S    
C26   H11   S    
C36   N1    A    
C15   C17   A    
Cu2   O3    S    
Cu2   O6    S    
C10   C13   A    
C6    O6    A    
C18   H24   S    
C29   C35   A    
C11   C22   S    
C17   H23   S    
C1    O3    A    
C32   C33   A    
C25   H10   S    
C38   C40   A    
C17   C19   A    
C39   N2    A    
C18   C20   A    
C20   C21   S    
Cu2   O7    S    
C16   C18   A    
C23   C36   A    
C27   C28   A    
Cu1   N2    S    
C1    C14   S    
C16   H22   S    
C32   H17   S    
C37   H4    S    
C39   H6    S    
