data_mof_unit_14924.cif
_audit_creation_date              2012-12-10T17:02:57-0500
_audit_creation_method            fapswitch 2.2
_symmetry_space_group_name_H-M    P1
_symmetry_Int_Tables_number       1
_space_group_crystal_system       triclinic
_cell_length_a                    9.822289
_cell_length_b                    10.89455
_cell_length_c                    13.439969
_cell_angle_alpha                 92.829716
_cell_angle_beta                  82.616309
_cell_angle_gamma                 110.227694
_cell_volume                      1338.29434976

loop_
_atom_site_label
_atom_site_type_symbol
_atom_type_description
_atom_site_fract_x
_atom_site_fract_y
_atom_site_fract_z
_atom_type_partial_charge
C1    C     C_R   0.557137 0.746159 0.500651 0.896218
C2    C     C_R   0.435818 0.481583 0.969584 0.039076
C3    C     C_R   0.469297 0.450655 0.867390 0.067180
C4    C     C_R   0.546732 0.504346 0.033953 0.093963
C5    C     C_R   0.693218 0.528808 0.992515 0.066838
C6    C     C_R   0.718169 0.481509 0.895548 -0.300706
C7    C     C_R   0.602376 0.426603 0.838660 0.013000
C8    C     C_R   0.515021 0.492196 0.137587 -0.155279
C9    C     C_R   0.772959 0.591417 0.158293 -0.050735
C10   C     C_R   0.371490 0.449941 0.797714 -0.063035
C11   C     C_2   0.587283 0.886709 0.489247 -0.258338
C12   C     C_R   0.421054 0.475957 0.689597 0.844287
C13   C     C_2   0.515255 0.934063 0.429840 -0.011202
C14   C     C_2   0.428582 0.115727 0.472761 -0.402930
C15   C     C_2   0.538932 0.074672 0.431961 -0.079960
C16   C     C_2   0.925183 0.496487 0.488247 -0.103912
C17   C     C_2   0.081679 0.518135 0.500278 -0.047468
C18   C     C_R   0.447806 0.254646 0.487608 0.872963
C19   C     C_R   0.578213 0.516795 0.309632 0.838406
C20   C     C_R   0.808410 0.587290 0.052240 -0.064124
C21   C     C_R   0.625067 0.533339 0.200589 -0.099017
C22   C     C_R   0.228154 0.440943 0.833574 -0.187295
C23   C     C_R   0.189380 0.457161 0.934779 -0.181942
C24   C     C_R   0.295043 0.491720 0.001187 -0.018163
Cu1   Cu    Cu3+1 0.362000 0.479240 0.482530 0.979667
Cu2   Cu    Cu3+1 0.638000 0.520760 0.517470 1.021108
N1    N     N_2   0.845330 0.551960 0.543750 -0.233631
N2    N     N_2   0.154690 0.448120 0.456210 -0.240608
O1    O     O_R   0.426290 0.668220 0.490680 -0.571846
O2    O     O_R   0.659360 0.703290 0.520190 -0.510582
O3    O     O_R   0.326580 0.473880 0.629020 -0.604036
O4    O     O_R   0.559660 0.508940 0.658530 -0.555109
O5    O     O_R   0.340640 0.296710 0.479810 -0.605750
O6    O     O_R   0.573710 0.331780 0.509320 -0.586375
O7    O     O_R   0.440340 0.491060 0.341470 -0.561680
O8    O     O_R   0.673420 0.526120 0.370980 -0.593775
C25   C     C_2   0.888114 0.655977 0.223917 0.515636
H1    H     H_    0.984019 0.627487 0.220253 0.098621
O9    O     O_2   0.877352 0.743346 0.281465 -0.497602
C26   C     C_2   0.421576 0.855449 0.354657 0.458071
H2    H     H_    0.334508 0.884988 0.333463 0.074776
O10   O     O_2   0.446839 0.763518 0.310791 -0.465689
H3    H     H_    0.322817 0.044537 0.499146 0.163603
H4    H     H_    0.666804 0.953908 0.533551 0.163778
H5    H     H_    0.137862 0.593907 0.550672 0.138591
H6    H     H_    0.874990 0.434306 0.428518 0.194099
C27   C     C_2   0.100294 0.355794 0.379311 0.606430
H7    H     H_    0.114113 0.261224 0.378589 0.082739
O11   O     O_2   0.050364 0.385389 0.309142 -0.614359
C28   C     C_2   0.892141 0.620205 0.633550 0.599422
H8    H     H_    0.973613 0.601936 0.672131 -0.055818
O12   O     O_2   0.836114 0.698139 0.670991 -0.519782
H9    H     H_    0.823040 0.472258 0.868848 0.106990
C29   C     C_2   0.959290 0.655070 0.000716 0.322452
H10   H     H_    0.979941 0.656891 0.919549 0.099790
O13   O     O_2   0.061937 0.714605 0.046670 -0.536941
H11   H     H_    0.403208 0.444598 0.169662 0.157624
H12   H     H_    0.148144 0.431513 0.782572 0.153477
C30   C     C_2   0.257410 0.555709 0.095067 0.436130
H13   H     H_    0.147405 0.519174 0.133805 0.099716
O14   O     O_2   0.345349 0.655110 0.125696 -0.459385
H14   H     H_    0.080227 0.458101 0.958936 0.130164
C31   C     C_2   0.618367 0.330538 0.759726 0.431908
H15   H     H_    0.726314 0.330588 0.729376 0.041497
O15   O     O_2   0.511282 0.247303 0.730737 -0.550302
C32   C     C_2   0.677780 0.163231 0.378334 0.437480
H16   H     H_    0.687798 0.260431 0.355915 0.059753
O16   O     O_2   0.781468 0.125955 0.355214 -0.518077

loop_
_geom_bond_atom_site_label_1
_geom_bond_atom_site_label_2
_ccdc_geom_bond_type
C22   H12   S    
C28   O12   D    
C23   C24   A    
C31   O15   D    
N2    C27   S    
Cu1   O3    S    
C6    C7    A    
C8    H11   S    
C27   O11   D    
C18   O6    A    
C14   C18   S    
C9    C20   A    
C32   O16   D    
C27   H7    S    
C1    C11   S    
N1    C28   S    
C4    C8    A    
C9    C21   A    
C14   H3    S    
C16   N1    D    
C26   O10   D    
C28   H8    S    
C30   H13   S    
C25   O9    D    
C3    C10   A    
C19   O7    A    
C12   O4    A    
Cu1   N2    S    
Cu2   O4    S    
C11   C13   D    
C7    C31   S    
Cu2   N1    S    
C25   H1    S    
C10   C12   S    
Cu1   O7    S    
C24   C30   S    
C2    C4    A    
C1    O1    A    
C1    O2    A    
C19   C21   S    
C17   H5    S    
C2    C3    A    
C3    C7    A    
C19   O8    A    
C13   C15   S    
C12   O3    A    
C2    C24   A    
C5    C6    A    
C18   O5    A    
C29   O13   D    
C30   O14   D    
C16   C17   S    
C6    H9    S    
C31   H15   S    
C11   H4    S    
C32   H16   S    
C15   C32   S    
Cu1   O1    S    
C20   C29   S    
C9    C25   S    
C16   H6    S    
C5    C20   A    
C14   C15   D    
C26   H2    S    
C13   C26   S    
Cu1   Cu2   S    
C29   H10   S    
C17   N2    D    
Cu2   O6    S    
C23   H14   S    
C10   C22   A    
C22   C23   A    
Cu2   O8    S    
Cu1   O5    S    
C4    C5    A    
Cu2   O2    S    
C8    C21   A    
