data_mof_unit_39065.cif
_audit_creation_date              2012-12-11T16:17:40-0500
_audit_creation_method            fapswitch 2.2
_symmetry_space_group_name_H-M    P1
_symmetry_Int_Tables_number       1
_space_group_crystal_system       triclinic
_cell_length_a                    6.930399
_cell_length_b                    28.754961
_cell_length_c                    32.075165
_cell_angle_alpha                 101.167382
_cell_angle_beta                  89.617551
_cell_angle_gamma                 90.33062
_cell_volume                      6270.81166829

loop_
_atom_site_label
_atom_site_type_symbol
_atom_type_description
_atom_site_fract_x
_atom_site_fract_y
_atom_site_fract_z
_atom_type_partial_charge
O1    O     O_R   0.494350 0.453160 0.452490 -0.535147
O2    O     O_R   0.820990 0.455850 0.538220 -0.516844
O3    O     O_R   0.994300 0.546840 0.547510 -0.537515
C1    C     C_R   0.652046 0.446514 0.552377 0.767304
O4    O     O_R   0.823860 0.447580 0.452250 -0.518372
O5    O     O_R   0.997190 0.538510 0.460920 -0.536800
C2    C     C_R   0.655787 0.435305 0.435892 0.735279
O6    O     O_R   0.491450 0.461490 0.539080 -0.536235
O7    O     O_3   0.661790 0.529840 0.502950 -0.383644
V1    V     V_3+5 0.935470 0.494460 0.499450 1.530947
O8    O     O_R   0.327090 0.544150 0.461780 -0.544253
C3    C     C_R   0.158875 0.554266 0.448253 0.753582
O9    O     O_R   0.324210 0.552420 0.547750 -0.546634
C4    C     C_R   0.155024 0.565386 0.563585 0.719805
V2    V     V_3+5 0.435840 0.505540 0.500550 1.477262
O10   O     O_3   0.159650 0.470160 0.497050 -0.349643
C5    C     C_R   0.963903 0.619135 0.620258 -0.127213
H1    H     H_    0.831256 0.603043 0.606631 0.121782
C6    C     C_R   0.952269 0.655096 0.656525 -0.118311
H2    H     H_    0.811147 0.665557 0.669600 0.134962
C7    C     C_R   0.120088 0.677095 0.675654 0.016900
C8    C     C_R   0.300039 0.662100 0.657371 -0.114773
H3    H     H_    0.432481 0.678144 0.671140 0.139629
C9    C     C_R   0.311719 0.626096 0.621044 -0.141514
H4    H     H_    0.452736 0.615483 0.607981 0.118073
C10   C     C_R   0.143738 0.604079 0.601963 -0.045079
N1    N     N_R   0.268917 0.736414 0.733202 -0.269265
N2    N     N_R   0.257177 0.770491 0.767854 -0.275081
C11   C     C_R   0.083185 0.785053 0.785347 0.520748
N3    N     N_R   0.921438 0.763929 0.766540 -0.269115
N4    N     N_R   0.933179 0.729849 0.731889 -0.273253
C12   C     C_R   0.107172 0.715284 0.714398 0.524051
C13   C     C_R   0.890297 0.838385 0.842269 -0.121533
H5    H     H_    0.757789 0.822558 0.828340 0.140097
C14   C     C_R   0.878667 0.874303 0.878661 -0.146053
H6    H     H_    0.737621 0.885082 0.891606 0.120281
C15   C     C_R   0.046745 0.896022 0.897958 -0.053792
C16   C     C_R   0.226611 0.880805 0.879781 -0.153478
H7    H     H_    0.359330 0.896679 0.893569 0.121572
C17   C     C_R   0.238195 0.844940 0.843442 -0.122043
H8    H     H_    0.379352 0.834329 0.830476 0.133731
C18   C     C_R   0.070291 0.823199 0.824124 0.019299
C19   C     C_R   0.223307 0.663548 0.287435 0.654571
N5    N     N_R   0.128538 0.676643 0.325544 -0.552290
C20   C     C_R   0.025598 0.717982 0.334423 0.655771
C21   C     C_R   0.009978 0.747136 0.303959 -0.029512
C22   C     C_R   0.107293 0.734272 0.264693 -0.016026
C23   C     C_R   0.216314 0.692404 0.256533 -0.090021
C24   C     C_R   0.900153 0.788825 0.311932 -0.119772
C25   C     C_R   0.887205 0.817365 0.281472 -0.138787
C26   C     C_R   0.984814 0.805175 0.242316 -0.003984
C27   C     C_R   0.096115 0.763449 0.233735 -0.047352
C28   C     C_R   0.196336 0.751030 0.194531 -0.105878
C29   C     C_R   0.309018 0.708916 0.187194 0.307675
C30   C     C_R   0.316266 0.680309 0.217864 -0.149574
C31   C     C_R   0.974737 0.834125 0.211722 0.575314
N6    N     N_R   0.070828 0.821991 0.173723 -0.563941
C32   C     C_R   0.178966 0.781346 0.164587 0.642477
O11   O     O_2   0.324064 0.622750 0.279437 -0.498290
O12   O     O_2   0.940416 0.731152 0.372778 -0.478436
H9    H     H_    0.823268 0.799516 0.341729 0.183739
H10   H     H_    0.800753 0.849192 0.288834 0.172974
O13   O     O_2   0.871302 0.874510 0.220174 -0.524883
O14   O     O_2   0.266576 0.770311 0.126387 -0.472002
H11   H     H_    0.402607 0.648408 0.211310 0.202019
C33   C     C_R   0.227868 0.874387 0.130573 -0.083788
H12   H     H_    0.365928 0.868166 0.144082 0.129512
C34   C     C_R   0.218573 0.904215 0.100917 -0.189685
H13   H     H_    0.350856 0.920247 0.092211 0.130800
C35   C     C_R   0.041000 0.913474 0.083040 -0.060200
C36   C     C_R   0.873070 0.891887 0.095653 -0.195900
H14   H     H_    0.733930 0.898066 0.082616 0.133407
C37   C     C_R   0.882808 0.861843 0.125211 -0.062333
H15   H     H_    0.752000 0.845411 0.134204 0.141876
C38   C     C_R   0.060295 0.852849 0.143000 0.365783
C39   C     C_R   0.301468 0.645766 0.382018 0.315767
C40   C     C_R   0.308836 0.615560 0.411483 -0.224609
H16   H     H_    0.437278 0.615572 0.430538 0.158308
C41   C     C_R   0.150861 0.586284 0.416938 -0.104900
C42   C     C_R   0.985398 0.587764 0.392004 -0.149772
H17   H     H_    0.861458 0.565588 0.395225 0.154698
C43   C     C_R   0.979322 0.617259 0.362007 -0.095249
H18   H     H_    0.851899 0.617289 0.342677 0.175183
C44   C     C_R   0.136881 0.646454 0.356700 0.314459
C45   C     C_R   0.593451 0.223084 0.837374 0.683129
N7    N     N_R   0.561259 0.175336 0.824403 -0.542243
C46   C     C_R   0.539305 0.155906 0.782095 0.601350
C47   C     C_R   0.549188 0.184646 0.751157 -0.059494
C48   C     C_R   0.575117 0.233813 0.764143 -0.015508
C49   C     C_R   0.595707 0.253362 0.807705 -0.040510
C50   C     C_R   0.531390 0.165314 0.707715 -0.204650
C51   C     C_R   0.539631 0.194127 0.677029 0.276313
C52   C     C_R   0.568631 0.243818 0.689766 -0.080026
C53   C     C_R   0.581440 0.263501 0.733609 -0.063089
C54   C     C_R   0.601534 0.312925 0.747135 -0.025833
C55   C     C_R   0.618913 0.332063 0.790741 -0.117128
C56   C     C_R   0.618168 0.302612 0.820601 -0.109049
C57   C     C_R   0.588021 0.274633 0.660355 0.682203
N8    N     N_R   0.597799 0.322866 0.674163 -0.546214
C58   C     C_R   0.603762 0.342182 0.716723 0.609789
O15   O     O_2   0.624249 0.241242 0.878839 -0.475308
O16   O     O_2   0.506801 0.108937 0.769944 -0.525363
H19   H     H_    0.508506 0.127556 0.697247 0.171118
O17   O     O_2   0.601048 0.256692 0.618360 -0.468934
O18   O     O_2   0.612038 0.389683 0.729659 -0.500590
H20   H     H_    0.635123 0.369894 0.801960 0.181056
H21   H     H_    0.633567 0.318650 0.853868 0.184679
C59   C     C_R   0.774109 0.382318 0.642510 -0.095201
H22   H     H_    0.889350 0.381080 0.664897 0.197614
C60   C     C_R   0.790583 0.412936 0.613605 0.252338
C61   C     C_R   0.641041 0.414979 0.584110 -0.173505
C62   C     C_R   0.475412 0.386747 0.585587 -0.221744
H23   H     H_    0.357872 0.387997 0.563744 0.190152
C63   C     C_R   0.458601 0.356648 0.614978 0.343394
C64   C     C_R   0.609975 0.353778 0.643497 0.254507
C65   C     C_R   0.693625 0.109315 0.854107 -0.159285
H24   H     H_    0.803003 0.104556 0.829376 0.159811
C66   C     C_R   0.690780 0.079107 0.883738 0.239904
C67   C     C_R   0.549350 0.085317 0.916306 -0.132614
C68   C     C_R   0.410415 0.120978 0.917497 -0.308428
H25   H     H_    0.299333 0.125906 0.941838 0.172987
C69   C     C_R   0.409759 0.149902 0.887040 0.321012
C70   C     C_R   0.554933 0.144980 0.855531 0.281814
C71   C     C_R   0.480774 0.368308 0.389528 -0.146757
H26   H     H_    0.361593 0.373397 0.411942 0.160072
C72   C     C_R   0.466199 0.332321 0.353321 -0.097755
H27   H     H_    0.336032 0.310972 0.348812 0.154086
C73   C     C_R   0.618015 0.323770 0.323595 -0.041614
C74   C     C_R   0.783789 0.352551 0.330845 -0.132530
H28   H     H_    0.901717 0.347320 0.308121 0.177518
C75   C     C_R   0.798708 0.389114 0.366695 0.253981
C76   C     C_R   0.646732 0.397135 0.397037 -0.109311
N9    N     N_R   0.760827 0.272726 0.259800 -0.266834
N10   N     N_R   0.749021 0.238577 0.225242 -0.272434
C77   C     C_R   0.579537 0.215615 0.214138 0.519900
N11   N     N_R   0.422358 0.228343 0.239307 -0.271674
N12   N     N_R   0.434337 0.262415 0.273985 -0.270066
C78   C     C_R   0.603909 0.285436 0.285008 0.542758
C79   C     C_R   0.388107 0.157747 0.160566 -0.118789
H29   H     H_    0.255715 0.170163 0.177021 0.138976
C80   C     C_R   0.377364 0.121839 0.124149 -0.149323
H30   H     H_    0.237081 0.107508 0.113768 0.118356
C81   C     C_R   0.545548 0.104367 0.101751 -0.050302
C82   C     C_R   0.724478 0.124057 0.116647 -0.147904
H31   H     H_    0.857139 0.111651 0.100293 0.122745
C83   C     C_R   0.735048 0.160150 0.152828 -0.120778
H32   H     H_    0.875549 0.174293 0.163237 0.135279
C84   C     C_R   0.567167 0.177423 0.175412 0.020112
O19   O     O_R   0.699050 0.038480 0.960880 -0.515960
O20   O     O_R   0.366680 0.052470 0.047720 -0.541781
O21   O     O_R   0.193410 0.961530 0.039110 -0.538294
C85   C     C_R   0.535383 0.065520 0.063495 0.691835
O22   O     O_R   0.369510 0.044100 0.961740 -0.554391
O23   O     O_R   0.196260 0.953110 0.952520 -0.541749
C86   C     C_R   0.538865 0.053757 0.947915 0.763972
O24   O     O_R   0.696210 0.046900 0.047470 -0.540085
O25   O     O_3   0.528780 0.970170 0.997070 -0.368849
V3    V     V_3+5 0.255080 0.005530 0.000540 1.400603
O26   O     O_R   0.866350 0.947520 0.952280 -0.535286
C87   C     C_R   0.035520 0.934602 0.936416 0.705109
O27   O     O_R   0.863520 0.955880 0.038260 -0.541718
C88   C     C_R   0.031857 0.945671 0.051766 0.709844
V4    V     V_3+5 0.754720 0.994440 0.999470 1.432011
O28   O     O_3   0.030880 0.029830 0.002930 -0.368711
Br1   Br    Br    0.462683 0.687061 0.137072 -0.382844
Br2   Br    Br    0.515550 0.686890 0.377936 -0.489152
N13   N     N_2   0.511680 0.172663 0.633641 -0.473022
H33   H     H_    0.571940 0.139401 0.625318 0.254010
C89   C     C_3   0.313368 0.173142 0.619901 -0.393014
H34   H     H_    0.221906 0.150954 0.637001 0.163600
H35   H     H_    0.305233 0.158645 0.585261 0.207021
H36   H     H_    0.256681 0.209916 0.625919 0.239241
Br3   Br    Br    0.015058 0.453219 0.618712 -0.508461
Br4   Br    Br    0.223316 0.321465 0.616097 -0.521896
N14   N     N_2   0.820349 0.040236 0.878528 -0.529450
H37   H     H_    0.818523 0.020093 0.848191 0.257888
C90   C     C_3   0.014588 0.052945 0.892504 -0.441265
H38   H     H_    0.082504 0.075412 0.871884 0.194601
H39   H     H_    0.101744 0.020305 0.890505 0.176442
H40   H     H_    0.013702 0.072308 0.926012 0.215864
Br5   Br    Br    0.200091 0.193364 0.887876 -0.476879
Br6   Br    Br    0.025052 0.428630 0.370041 -0.552262

loop_
_geom_bond_atom_site_label_1
_geom_bond_atom_site_label_2
_ccdc_geom_bond_type
C23   C30   A    
C33   C34   A    
C46   C47   A    
C20   O12   S    
C72   H27   S    
C65   C70   A    
C11   C18   S    
C54   C55   A    
C37   C38   A    
C89   H34   S    
C61   C62   A    
C1    O6    A    
C73   C74   A    
C39   C44   A    
C62   C63   A    
O27   C88   A    
C77   N11   A    
N13   C89   S    
C40   H16   S    
C59   H22   S    
C21   C24   A    
C58   O18   S    
O25   V3    S    
C5    C10   A    
C59   C64   A    
N2    C11   A    
C6    C7    A    
C9    C10   A    
C83   H32   S    
C80   C81   A    
O5    C3    A    
N3    N4    A    
C75   Br6   S    
C82   C83   A    
V2    O10   S    
C57   N8    A    
C3    C41   S    
O22   V3    S    
C65   H24   S    
C71   C76   A    
C26   C31   A    
C37   H15   S    
C48   C53   A    
C73   C78   S    
C66   C67   A    
C30   H11   S    
C60   C61   A    
O8    V2    S    
C69   Br5   S    
O26   C87   A    
O24   V4    S    
C65   C66   A    
C34   H13   S    
C90   H39   S    
C67   C86   S    
C39   Br2   S    
C35   C36   A    
O19   V4    S    
O22   C86   A    
C11   N3    A    
C19   C23   A    
O25   V4    S    
C49   C56   A    
V3    O28   S    
O21   C88   A    
C8    C9    A    
C17   C18   A    
C33   H12   S    
N9    C78   A    
C16   C17   A    
O1    C2    A    
O9    C4    A    
C89   H35   S    
C35   C88   S    
O4    V1    S    
C62   H23   S    
O27   V4    S    
C68   C69   A    
C63   C64   A    
C83   C84   A    
C40   C41   A    
C32   O14   S    
C79   H29   S    
C79   C84   A    
C24   H9    S    
C26   C27   A    
C22   C23   A    
C85   O24   A    
C13   H5    S    
C39   C40   A    
N14   C90   S    
N13   H33   S    
C36   C37   A    
C54   C58   A    
C82   H31   S    
C25   C26   A    
C20   C21   A    
C4    C10   S    
C14   H6    S    
O2    C1    A    
C19   N5    A    
O21   V3    S    
O23   C87   A    
C15   C16   A    
C46   O16   S    
O4    C2    A    
N14   H37   S    
C47   C50   A    
C45   C49   A    
C90   H40   S    
C55   C56   A    
C5    H1    S    
C31   O13   S    
C52   C53   A    
C21   C22   A    
C27   C28   A    
C9    H4    S    
C67   C68   A    
C2    C76   S    
C22   C27   A    
O3    C4    A    
C90   H38   S    
O1    V2    S    
C42   C43   A    
C17   H8    S    
N7    C70   S    
C1    C61   S    
C66   N14   S    
C43   H18   S    
O6    V2    S    
C43   C44   A    
O9    V2    S    
N9    N10   A    
C25   H10   S    
C89   H36   S    
O20   C85   A    
C31   N6    A    
C13   C18   A    
C29   Br1   S    
C5    C6    A    
C75   C76   A    
O2    V1    S    
C50   C51   A    
C45   O15   S    
C68   H25   S    
C15   C87   S    
C71   C72   A    
C74   H28   S    
O7    V1    S    
C60   Br3   S    
C55   H20   S    
C29   C30   A    
C81   C85   S    
C72   C73   A    
O20   V3    S    
C14   C15   A    
N1    C12   A    
N7    C46   A    
N4    C12   A    
N5    C20   A    
C50   H19   S    
C42   H17   S    
N5    C44   S    
C45   N7    A    
O5    V1    S    
C28   C32   A    
C28   C29   A    
N10   C77   A    
C19   O11   S    
N12   C78   A    
N8    C58   A    
N6    C38   S    
C6    H2    S    
O7    V2    S    
C36   H14   S    
O3    V1    S    
V1    O10   S    
C80   H30   S    
N8    C64   S    
C79   C80   A    
C51   N13   S    
N6    C32   A    
C16   H7    S    
C57   O17   S    
C33   C38   A    
C51   C52   A    
C13   C14   A    
C59   C60   A    
O26   V4    S    
C77   C84   S    
O19   C86   A    
C53   C54   A    
V4    O28   S    
C41   C42   A    
C56   H21   S    
C7    C12   S    
C63   Br4   S    
C47   C48   A    
C34   C35   A    
C24   C25   A    
N1    N2    A    
C69   C70   A    
O23   V3    S    
C8    H3    S    
N11   N12   A    
C48   C49   A    
C7    C8    A    
C52   C57   A    
C81   C82   A    
O8    C3    A    
C71   H26   S    
C74   C75   A    
