data_mof_unit_5984.cif
_audit_creation_date              2012-12-11T14:52:41-0500
_audit_creation_method            fapswitch 2.2
_symmetry_space_group_name_H-M    P1
_symmetry_Int_Tables_number       1
_space_group_crystal_system       triclinic
_cell_length_a                    20.626082
_cell_length_b                    7.266169
_cell_length_c                    20.377018
_cell_angle_alpha                 90.298753
_cell_angle_beta                  101.509312
_cell_angle_gamma                 90.365045
_cell_volume                      2992.4222601

loop_
_atom_site_label
_atom_site_type_symbol
_atom_type_description
_atom_site_fract_x
_atom_site_fract_y
_atom_site_fract_z
_atom_type_partial_charge
O1    O     O_R   0.673670 0.377510 0.185950 -0.536487
O2    O     O_R   0.326330 0.622490 0.814050 -0.525374
O3    O     O_R   0.826330 0.877510 0.314050 -0.536104
O4    O     O_R   0.173670 0.122490 0.685950 -0.538259
O5    O     O_R   0.806260 0.705340 0.185590 -0.529898
O6    O     O_R   0.193740 0.294660 0.814410 -0.531994
O7    O     O_R   0.693740 0.205340 0.314410 -0.531530
O8    O     O_R   0.306260 0.794660 0.685590 -0.523692
C1    C     C_R   0.825552 0.539073 0.170925 0.699426
C2    C     C_R   0.174448 0.460926 0.829075 0.687878
C3    C     C_R   0.674458 0.038970 0.329102 0.698567
C4    C     C_R   0.325541 0.961029 0.670897 0.709655
O9    O     O_R   0.672940 0.707120 0.178050 -0.538464
O10   O     O_R   0.327060 0.292880 0.821950 -0.545239
O11   O     O_R   0.827060 0.207120 0.321950 -0.539592
O12   O     O_R   0.172940 0.792880 0.678050 -0.542451
O13   O     O_R   0.692060 0.879040 0.306460 -0.530228
O14   O     O_R   0.307940 0.120960 0.693540 -0.528466
O15   O     O_R   0.807940 0.379040 0.193540 -0.531413
O16   O     O_R   0.192060 0.620960 0.806460 -0.534297
C5    C     C_R   0.649131 0.537686 0.161288 0.698284
C6    C     C_R   0.350603 0.462358 0.839030 0.763687
C7    C     C_R   0.850804 0.039665 0.338945 0.698454
C8    C     C_R   0.149241 0.960355 0.660993 0.697062
O17   O     O_3   0.756430 0.544390 0.292140 -0.375246
O18   O     O_3   0.243570 0.455610 0.707860 -0.375957
O19   O     O_3   0.743570 0.044390 0.207860 -0.373307
O20   O     O_3   0.256430 0.955610 0.792140 -0.376476
V1    V     V_3+5 0.748810 0.818610 0.242180 1.445414
V2    V     V_3+5 0.251190 0.181390 0.757820 1.450144
V3    V     V_3+5 0.751190 0.318610 0.257820 1.443628
V4    V     V_3+5 0.248810 0.681390 0.742180 1.466733
C9    C     C_R   0.088021 0.965257 0.608032 -0.151983
C10   C     C_R   0.912315 0.034940 0.391501 -0.220111
C11   C     C_R   0.412019 0.477193 0.891407 -0.109006
C12   C     C_R   0.587279 0.523199 0.109466 -0.224306
C13   C     C_R   0.029669 0.110232 0.426866 0.247902
C14   C     C_R   0.970741 0.890563 0.571623 0.255046
C15   C     C_R   0.470837 0.433356 0.079600 0.246320
C16   C     C_R   0.527931 0.572064 0.922341 0.197571
C17   C     C_R   0.971344 0.108089 0.377798 0.157798
C18   C     C_R   0.028815 0.892200 0.621333 0.076467
C19   C     C_R   0.528836 0.461340 0.127873 0.152786
C20   C     C_R   0.469701 0.544250 0.873394 0.076582
C21   C     C_R   0.911610 0.962259 0.455485 0.156616
C22   C     C_R   0.089319 0.038044 0.544081 0.132287
C23   C     C_R   0.587563 0.560191 0.041608 0.158187
C24   C     C_R   0.411402 0.438052 0.959081 0.101373
C25   C     C_R   0.970507 0.962897 0.506596 0.005692
C26   C     C_R   0.030652 0.038031 0.492441 -0.063269
C27   C     C_R   0.528841 0.533812 0.991195 0.031528
C28   C     C_R   0.469585 0.467177 0.010081 -0.059593
C29   C     C_3   0.556103 0.074714 0.533091 0.056237
C30   C     C_3   0.443943 0.925229 0.466961 0.055703
C31   C     C_3   0.943997 0.572214 0.966990 0.056082
C32   C     C_3   0.056023 0.427786 0.033023 0.055774
C33   C     C_3   0.525869 0.892518 0.551033 0.080610
C34   C     C_3   0.474175 0.107425 0.449020 0.075334
C35   C     C_3   0.974023 0.390324 0.948992 0.078105
C36   C     C_3   0.025996 0.609677 0.051022 0.077040
C37   C     C_1   0.371040 0.967214 0.625231 -0.141232
C38   C     C_1   0.628972 0.032777 0.374782 -0.143685
C39   C     C_1   0.128936 0.466972 0.874740 -0.141815
C40   C     C_1   0.871071 0.533027 0.125266 -0.142317
C41   C     C_3   0.487482 0.166987 0.523578 0.435900
C42   C     C_3   0.512564 0.832955 0.476475 0.437420
C43   C     C_3   0.012717 0.666667 0.976476 0.437028
C44   C     C_3   0.987302 0.333333 0.023538 0.437970
C45   C     C_3   0.456924 0.982439 0.541639 -0.079549
C46   C     C_3   0.543121 0.017507 0.458411 -0.079719
C47   C     C_3   0.043066 0.482433 0.958353 -0.079506
C48   C     C_3   0.956952 0.517567 0.041660 -0.079739
C49   C     C_1   0.409579 0.971582 0.587397 0.136066
C50   C     C_1   0.590449 0.028388 0.412634 0.140014
C51   C     C_1   0.090394 0.471431 0.912576 0.136797
C52   C     C_1   0.909619 0.528568 0.087435 0.140152
N1    N     N_3   0.151026 0.107592 0.531720 -0.692235
H1    H     H_    0.186537 0.003882 0.541238 0.222838
H2    H     H_    0.166450 0.218948 0.563825 0.248481
N2    N     N_3   0.850319 0.891833 0.468831 -0.604027
H3    H     H_    0.814612 0.995074 0.459624 0.217980
H4    H     H_    0.834716 0.780338 0.436849 0.245287
N3    N     N_3   0.350814 0.372791 0.975498 -0.692073
H5    H     H_    0.337461 0.248023 0.950545 0.244845
H6    H     H_    0.313583 0.469047 0.959596 0.219301
N4    N     N_3   0.648367 0.619698 0.023946 -0.598149
H7    H     H_    0.663303 0.744126 0.048475 0.241546
H8    H     H_    0.684718 0.520884 0.039667 0.216867
N5    N     N_3   0.026082 0.820324 0.686307 -0.668060
H9    H     H_    0.057467 0.707105 0.695782 0.242844
H10   H     H_    0.042491 0.922051 0.722393 0.243989
N6    N     N_3   0.973667 0.179848 0.312708 -0.601715
H11   H     H_    0.942231 0.293000 0.303386 0.235205
H12   H     H_    0.957057 0.078042 0.276708 0.235247
N7    N     N_3   0.468516 0.583588 0.804102 -0.653932
H13   H     H_    0.503890 0.503048 0.787467 0.242351
H14   H     H_    0.479909 0.722610 0.799375 0.231640
N8    N     N_3   0.526941 0.426761 0.196853 -0.596186
H15   H     H_    0.542465 0.545616 0.224915 0.234138
H16   H     H_    0.559482 0.320063 0.214257 0.236457
N9    N     N_3   0.086833 0.188933 0.407238 -0.600023
H17   H     H_    0.123552 0.089360 0.409668 0.265991
H18   H     H_    0.103317 0.303670 0.437220 0.259572
N10   N     N_3   0.911822 0.813235 0.588098 -0.594019
H19   H     H_    0.920968 0.676336 0.602424 0.249038
H20   H     H_    0.900505 0.886590 0.628601 0.255314
N11   N     N_3   0.414227 0.369644 0.104238 -0.598696
H21   H     H_    0.399527 0.240094 0.083899 0.262391
H22   H     H_    0.376230 0.465955 0.093484 0.264356
N12   N     N_3   0.585958 0.641697 0.901637 -0.607338
H23   H     H_    0.599606 0.550335 0.867092 0.232771
H24   H     H_    0.575509 0.769936 0.879161 0.229117
N13   N     N_3   0.554515 0.775057 0.606839 -0.541830
H25   H     H_    0.602004 0.739911 0.600726 0.252981
H26   H     H_    0.560092 0.854551 0.650513 0.214492
N14   N     N_3   0.445520 0.224887 0.393221 -0.530878
H27   H     H_    0.398051 0.260134 0.399371 0.254308
H28   H     H_    0.439889 0.145348 0.349555 0.227262
N15   N     N_3   0.945198 0.270400 0.893193 -0.539971
H29   H     H_    0.897740 0.233812 0.899435 0.252679
H30   H     H_    0.939519 0.348578 0.849552 0.219988
N16   N     N_3   0.054822 0.729602 0.106820 -0.536221
H31   H     H_    0.102280 0.766187 0.100576 0.253582
H32   H     H_    0.060501 0.651425 0.150460 0.224739
N17   N     N_3   0.617393 0.157229 0.569485 -0.578508
H33   H     H_    0.612390 0.175223 0.619136 0.243477
H34   H     H_    0.654911 0.061070 0.569834 0.226321
N18   N     N_3   0.382650 0.842717 0.430570 -0.576702
H35   H     H_    0.387649 0.824725 0.380918 0.249749
H36   H     H_    0.345132 0.938876 0.430226 0.224778
N19   N     N_3   0.882782 0.651966 0.930639 -0.575763
H37   H     H_    0.887773 0.668618 0.880982 0.247064
H38   H     H_    0.845157 0.554778 0.930300 0.226072
N20   N     N_3   0.117240 0.348035 0.069370 -0.575498
H39   H     H_    0.112257 0.331417 0.119031 0.251551
H40   H     H_    0.154867 0.445208 0.069694 0.224652
Cl1   Cl    Cl    0.530329 0.616243 0.443072 -0.533367
Cl2   Cl    Cl    0.469723 0.383713 0.556973 -0.535487
Cl3   Cl    Cl    0.969371 0.116944 0.056832 -0.533890
Cl4   Cl    Cl    0.030649 0.883054 0.943181 -0.537711

loop_
_geom_bond_atom_site_label_1
_geom_bond_atom_site_label_2
_ccdc_geom_bond_type
O17   V3    S    
C13   N9    S    
O1    C5    A    
N9    H17   S    
C4    C37   S    
C31   C35   S    
O19   V1    S    
C1    C40   S    
O13   V1    S    
O3    C7    A    
N7    H13   S    
C19   N8    S    
C33   C42   S    
C48   C52   S    
C3    C38   S    
O15   V3    S    
N18   H35   S    
N10   H20   S    
C14   C25   A    
N1    H1    S    
C15   N11   S    
C6    C11   S    
C30   C45   S    
C9    C18   A    
O9    V1    S    
C14   C18   A    
C30   C34   S    
O4    C8    A    
N4    H8    S    
C36   C48   S    
O1    V3    S    
N14   H27   S    
C12   C23   A    
O2    V4    S    
O3    V1    S    
C46   C50   S    
C14   N10   S    
N12   H23   S    
C1    O15   A    
C23   C27   A    
C2    C39   S    
C36   C43   S    
C2    O16   A    
O2    C6    A    
N11   H21   S    
C45   C49   S    
O14   V2    S    
N5    H10   S    
C29   C41   S    
C16   C20   A    
C31   C48   S    
C16   N12   S    
C7    C10   S    
O11   C7    A    
C15   C28   A    
O12   C8    A    
C34   N14   S    
C9    C22   A    
N11   H22   S    
C10   C17   A    
O10   V2    S    
C29   C46   S    
N10   H19   S    
O5    V1    S    
N15   H30   S    
O7    V3    S    
C27   C28   A    
O8    V4    S    
C23   N4    S    
N2    H4    S    
C5    C12   S    
C29   C33   S    
O18   V4    S    
C34   C46   S    
C15   C19   A    
C37   C49   T    
C32   C44   S    
C30   N18   S    
C32   C36   S    
C44   C48   S    
C12   C19   A    
O7    C3    A    
O5    C1    A    
C11   C20   A    
C35   C44   S    
C34   C41   S    
C31   C43   S    
N3    H5    S    
C21   C25   A    
O8    C4    A    
C32   C47   S    
N6    H12   S    
C40   C52   T    
N1    H2    S    
O9    C5    A    
C10   C21   A    
C33   N13   S    
C36   N16   S    
C43   Cl4   S    
C29   N17   S    
N14   H28   S    
C41   Cl2   S    
O6    V2    S    
N8    H15   S    
C31   N19   S    
N17   H33   S    
N16   H32   S    
N19   H37   S    
N13   H25   S    
O16   V4    S    
C3    O13   A    
C35   N15   S    
N3    H6    S    
N4    H7    S    
N2    H3    S    
N19   H38   S    
N18   H36   S    
O6    C2    A    
C22   N1    S    
C32   N20   S    
N15   H29   S    
N7    H14   S    
O11   V3    S    
N20   H39   S    
C30   C42   S    
O12   V4    S    
C16   C27   A    
C22   C26   A    
N8    H16   S    
C8    C9    S    
C24   N3    S    
C18   N5    S    
O10   C6    A    
O20   V2    S    
N5    H9    S    
C20   N7    S    
C47   C51   S    
C13   C26   A    
C42   C46   S    
C42   Cl1   S    
C39   C51   T    
C41   C45   S    
N6    H11   S    
N20   H40   S    
C21   N2    S    
C43   C47   S    
C13   C17   A    
N12   H24   S    
C11   C24   A    
C24   C28   A    
C17   N6    S    
N9    H18   S    
C25   C26   A    
C4    O14   A    
N17   H34   S    
C38   C50   T    
C44   Cl3   S    
C33   C45   S    
N16   H31   S    
O4    V2    S    
C35   C47   S    
N13   H26   S    
