data_mof_unit_24194.cif
_audit_creation_date              2012-10-26T21:05:44-0400
_audit_creation_method            fapswitch 2.2
_symmetry_space_group_name_H-M    P1
_symmetry_Int_Tables_number       1
_space_group_crystal_system       monoclinic
_cell_length_a                    13.029782
_cell_length_b                    9.086657
_cell_length_c                    7.790059
_cell_angle_alpha                 90.0
_cell_angle_beta                  96.268602
_cell_angle_gamma                 90.0
_cell_volume                      916.806249066

loop_
_atom_site_label
_atom_site_type_symbol
_atom_type_description
_atom_site_fract_x
_atom_site_fract_y
_atom_site_fract_z
_atom_type_partial_charge
C1    C     C_R   0.500000 0.220066 0.500000 0.530481
C2    C     C_R   0.870108 0.476904 0.717026 0.263984
C3    C     C_R   0.135558 0.499293 0.595510 -0.184247
C4    C     C_R   0.864442 0.499293 0.404490 -0.184247
C5    C     C_R   0.028475 0.495026 0.582121 -0.014703
C6    C     C_R   0.971525 0.495026 0.417879 -0.014703
C7    C     C_1   0.500000 0.065424 0.500000 -0.066776
C8    C     C_1   0.500000 0.934645 0.500000 -0.061040
C9    C     C_3   0.835219 0.310561 0.924969 -0.006404
C10   C     C_3   0.748254 0.210884 0.843601 -0.243856
C11   C     C_3   0.759884 0.053989 0.912794 -0.474200
C12   C     C_R   0.500000 0.779957 0.500000 0.551441
C13   C     C_3   0.164781 0.310561 0.075031 -0.006404
C14   C     C_3   0.251747 0.210885 0.156397 -0.243854
C15   C     C_3   0.240117 0.053990 0.087204 -0.474199
C16   C     C_R   0.299934 0.497218 0.467543 0.547629
C17   C     C_R   0.700066 0.497218 0.532457 0.547629
C18   C     C_R   0.812928 0.492162 0.552977 0.007399
C19   C     C_R   0.187072 0.492163 0.447023 0.007399
C20   C     C_R   0.022357 0.488226 0.269408 -0.122510
C21   C     C_R   0.977643 0.488226 0.730592 -0.122510
C22   C     C_R   0.129892 0.476903 0.282974 0.263984
Cu1   Cu    Cu3+1 0.500010 0.500000 0.669080 1.016037
Cu2   Cu    Cu3+1 0.499990 0.500000 0.330920 1.016037
H1    H     H_    0.821270 0.506306 0.277696 0.155287
H2    H     H_    0.167912 0.311386 0.933251 0.140825
H3    H     H_    0.088087 0.263167 0.095690 0.100556
H4    H     H_    0.327204 0.255409 0.126631 0.207730
H5    H     H_    0.250975 0.208232 0.298825 0.152107
H6    H     H_    0.165776 0.005966 0.117465 0.152398
H7    H     H_    0.304287 0.985011 0.148652 0.167040
H8    H     H_    0.242815 0.052885 0.945163 0.153112
H9    H     H_    0.978759 0.486630 0.143214 0.130458
H10   H     H_    0.021240 0.486631 0.856786 0.130458
H11   H     H_    0.178730 0.506307 0.722303 0.155287
H12   H     H_    0.832087 0.311386 0.066749 0.140825
H13   H     H_    0.911914 0.263168 0.904312 0.100556
H14   H     H_    0.672796 0.255407 0.873366 0.207730
H15   H     H_    0.749027 0.208232 0.701174 0.152106
H16   H     H_    0.834226 0.005967 0.882534 0.152398
H17   H     H_    0.695715 0.985009 0.851343 0.167040
H18   H     H_    0.757185 0.052884 0.054834 0.153112
N1    N     N_1   0.499980 0.500000 0.076820 -0.081573
N2    N     N_1   0.500020 0.500000 0.923180 -0.081573
O1    O     O_R   0.500000 0.288400 0.642760 -0.516369
O2    O     O_3   0.178804 0.457399 0.135304 -0.557493
O3    O     O_R   0.500000 0.711600 0.357240 -0.494368
O4    O     O_R   0.500000 0.288400 0.357240 -0.516369
O5    O     O_R   0.500000 0.711600 0.642760 -0.494368
O6    O     O_R   0.349000 0.500000 0.619590 -0.518586
O7    O     O_R   0.651000 0.500000 0.380410 -0.518586
O8    O     O_R   0.348990 0.500000 0.334020 -0.457305
O9    O     O_R   0.651010 0.500000 0.665980 -0.457304
O10   O     O_3   0.821196 0.457399 0.864696 -0.557493

loop_
_geom_bond_atom_site_label_1
_geom_bond_atom_site_label_2
_ccdc_geom_bond_type
C10   H14   S    
Cu2   O8    S    
C9    H12   S    
N1    N2    T    
C1    O4    A    
C3    C19   A    
Cu1   O1    S    
C2    C18   A    
C6    C20   A    
C9    C10   S    
C3    H11   S    
C8    C12   S    
C4    C18   A    
C17   O7    A    
Cu2   O7    S    
C9    H13   S    
C4    H1    S    
C15   H8    S    
C13   C14   S    
C15   H7    S    
C1    O1    A    
C5    C6    A    
C2    C21   A    
C16   C19   S    
C20   H9    S    
Cu1   O9    S    
C4    C6    A    
C22   O2    S    
C16   O6    A    
C12   O5    A    
C12   O3    A    
C13   O2    S    
C13   H2    S    
Cu1   O5    S    
C10   C11   S    
Cu1   N2    S    
C14   H5    S    
C11   H16   S    
Cu2   O4    S    
C17   O9    A    
C7    C8    T    
C19   C22   A    
C5    C21   A    
C15   H6    S    
C17   C18   S    
C2    O10   S    
C11   H17   S    
Cu2   N1    S    
C14   C15   S    
C13   H3    S    
Cu1   O6    S    
C21   H10   S    
Cu1   Cu2   S    
C14   H4    S    
C1    C7    S    
Cu2   O3    S    
C9    O10   S    
C11   H18   S    
C16   O8    A    
C20   C22   A    
C10   H15   S    
C3    C5    A    
