data_mof_unit_23004.cif
_audit_creation_date              2012-12-10T17:03:45-0500
_audit_creation_method            fapswitch 2.2
_symmetry_space_group_name_H-M    P1
_symmetry_Int_Tables_number       1
_space_group_crystal_system       triclinic
_cell_length_a                    10.016167
_cell_length_b                    10.702635
_cell_length_c                    13.013409
_cell_angle_alpha                 90.098037
_cell_angle_beta                  70.545707
_cell_angle_gamma                 90.836151
_cell_volume                      1315.23622442

loop_
_atom_site_label
_atom_site_type_symbol
_atom_type_description
_atom_site_fract_x
_atom_site_fract_y
_atom_site_fract_z
_atom_type_partial_charge
C1    C     C_R   0.502990 0.737425 0.496206 0.972216
C2    C     C_R   0.372427 0.533759 0.821410 -0.079408
C3    C     C_2   0.626175 0.069524 0.453717 -0.175620
C4    C     C_R   0.422159 0.509157 0.704145 0.860725
C5    C     C_2   0.505983 0.132018 0.473675 -0.365082
C6    C     C_2   0.626672 0.935431 0.437141 0.002557
C7    C     C_2   0.508815 0.869966 0.493504 -0.385066
C8    C     C_2   0.045727 0.434238 0.565399 -0.039986
C9    C     C_2   0.894260 0.439441 0.568944 -0.114860
C10   C     C_R   0.500993 0.262528 0.495141 0.949584
C11   C     C_R   0.578276 0.501646 0.295159 0.899050
C12   C     C_R   0.427302 0.572850 0.986294 0.021656
C13   C     C_R   0.782057 0.628409 0.017156 -0.120449
C14   C     C_R   0.624487 0.525987 0.178264 -0.061617
C15   C     C_R   0.233906 0.498525 0.884043 -0.169217
C16   C     C_R   0.187205 0.513471 0.996366 -0.186104
C17   C     C_R   0.281519 0.552885 0.049259 -0.007692
C18   C     C_2   0.756880 0.880064 0.359143 0.968433
C19   C     C_2   0.220962 0.589548 0.165740 0.872846
C20   C     C_R   0.464626 0.584970 0.872931 0.007198
C21   C     C_R   0.539165 0.574602 0.029826 0.065090
C22   C     C_R   0.674396 0.625794 0.969297 0.024814
C23   C     C_R   0.697359 0.669920 0.862578 0.382848
C24   C     C_R   0.593306 0.646767 0.814977 -0.279203
C25   C     C_R   0.522652 0.514485 0.127943 -0.162513
C26   C     C_R   0.755889 0.581326 0.122140 -0.161666
H1    H     H_    0.836595 0.591005 0.160156 0.202069
H2    H     H_    0.160543 0.461805 0.845939 0.182541
H3    H     H_    0.076688 0.494887 0.041886 0.172950
H4    H     H_    0.612641 0.679139 0.732692 0.205862
H5    H     H_    0.724825 0.116915 0.448875 0.220992
H6    H     H_    0.969109 0.891575 0.288283 0.354340
H7    H     H_    0.868896 0.725006 0.614903 0.355833
H8    H     H_    0.233489 0.702878 0.286511 0.342598
H9    H     H_    0.410060 0.088150 0.468251 0.177123
H10   H     H_    0.415150 0.914113 0.548257 0.166258
H11   H     H_    0.069244 0.373900 0.623869 0.158953
H12   H     H_    0.125779 0.561330 0.447619 0.180401
H13   H     H_    0.815783 0.388553 0.633958 0.176185
H14   H     H_    0.926520 0.542909 0.434554 0.208581
H15   H     H_    0.885939 0.667754 0.975394 0.210889
H16   H     H_    0.427670 0.460112 0.167990 0.149559
N1    N     N_2   0.148270 0.498670 0.498870 -0.176971
N2    N     N_2   0.852610 0.498640 0.498840 -0.199730
O1    O     O_R   0.386950 0.680940 0.500020 -0.591615
O2    O     O_R   0.888764 0.936743 0.343989 -0.795167
O3    O     O_2   0.886769 0.854705 0.845592 -0.250739
O4    O     O_2   0.977479 0.655464 0.760606 -0.345417
O5    O     O_3   0.846445 0.797838 0.664459 -0.521334
O6    O     O_2   0.112582 0.538761 0.225091 -0.667284
O7    O     O_R   0.285371 0.685251 0.206690 -0.777296
O8    O     O_R   0.613110 0.680900 0.499980 -0.601160
O9    O     O_R   0.330780 0.500000 0.653640 -0.592842
O10   O     O_R   0.556930 0.499960 0.653610 -0.625170
O11   O     O_R   0.386890 0.319100 0.500020 -0.613473
O12   O     O_R   0.613050 0.319060 0.499980 -0.602804
O13   O     O_R   0.443070 0.500040 0.346390 -0.608726
O14   O     O_R   0.669220 0.500000 0.346360 -0.583707
O15   O     O_2   0.748702 0.788504 0.305137 -0.633911
S1    S     S_3+6 0.857233 0.745450 0.783297 0.017004
Zn1   Zn    Zn3+2 0.349000 0.500030 0.500020 1.001043
Zn2   Zn    Zn3+2 0.651000 0.499970 0.499980 0.985626

loop_
_geom_bond_atom_site_label_1
_geom_bond_atom_site_label_2
_ccdc_geom_bond_type
C25   H16   S    
O14   Zn2   S    
C2    C4    S    
C23   C24   A    
O13   Zn1   S    
C6    C7    D    
C2    C15   A    
C19   O7    S    
C4    O9    A    
C11   O14   A    
C10   O12   A    
C7    H10   S    
C8    N1    D    
H14   N2    S    
C3    C6    S    
C4    O10   A    
C12   C20   A    
C13   H15   S    
C26   H1    S    
C5    C10   S    
O8    Zn2   S    
C21   C22   A    
C14   C26   A    
C12   C17   A    
C3    H5    S    
C10   O11   A    
C19   O6    D    
C1    O1    A    
H8    O7    S    
O5    S1    S    
C11   O13   A    
C18   O2    S    
O1    Zn1   S    
C17   C19   S    
C13   C22   A    
O4    S1    D    
C24   H4    S    
C14   C25   A    
C23   S1    S    
C6    C18   S    
C1    O8    A    
O12   Zn2   S    
C13   C26   A    
C8    H11   S    
O11   Zn1   S    
C2    C20   A    
C15   C16   A    
C15   H2    S    
C5    H9    S    
C18   O15   D    
C9    H13   S    
N1    Zn1   S    
O9    Zn1   S    
H7    O5    S    
C11   C14   S    
C21   C25   A    
C22   C23   A    
C16   C17   A    
C9    N2    D    
O10   Zn2   S    
N2    Zn2   S    
C16   H3    S    
C1    C7    S    
H6    O2    S    
C12   C21   A    
H12   N1    S    
C20   C24   A    
O3    S1    D    
C8    C9    S    
C3    C5    D    
