data_mof_unit_22575.cif
_audit_creation_date              2012-10-26T20:37:56-0400
_audit_creation_method            fapswitch 2.2
_symmetry_space_group_name_H-M    P1
_symmetry_Int_Tables_number       1
_space_group_crystal_system       triclinic
_cell_length_a                    10.005601
_cell_length_b                    11.013641
_cell_length_c                    12.94918
_cell_angle_alpha                 88.261455
_cell_angle_beta                  75.679713
_cell_angle_gamma                 111.995513
_cell_volume                      1269.93136

loop_
_atom_site_label
_atom_site_type_symbol
_atom_type_description
_atom_site_fract_x
_atom_site_fract_y
_atom_site_fract_z
_atom_type_partial_charge
Br1   Br    Br    0.776135 0.778128 0.180175 -0.296954
Br2   Br    Br    0.235186 0.215395 0.815907 -0.276591
Br3   Br    Br    0.371772 0.853519 0.662877 -0.353246
Br4   Br    Br    0.629945 0.152181 0.330186 -0.261320
Br5   Br    Br    0.811153 0.995941 0.402728 -0.192902
Br6   Br    Br    0.187760 0.998781 0.575975 -0.273997
Br7   Br    Br    0.997192 0.735263 0.406369 -0.193415
Br8   Br    Br    0.026608 0.404716 0.694946 -0.199829
C1    C     C_R   0.437848 0.253442 0.506878 0.562395
C2    C     C_R   0.658023 0.655107 0.008619 0.078529
C3    C     C_R   0.356188 0.357605 0.879890 0.129132
C4    C     C_R   0.646669 0.639252 0.118505 0.126897
C5    C     C_R   0.539506 0.584078 0.862128 0.034572
C6    C     C_R   0.455633 0.415574 0.139153 0.018255
C7    C     C_R   0.549140 0.560313 0.967444 -0.041491
C8    C     C_R   0.447754 0.437942 0.032996 -0.059307
C9    C     C_2   0.398029 0.111035 0.517202 0.164556
C10   C     C_2   0.603113 0.889027 0.475894 0.209455
C11   C     C_2   0.502752 0.064638 0.472995 0.163750
C12   C     C_R   0.562367 0.746647 0.491642 0.589303
C13   C     C_2   0.500092 0.937859 0.519361 0.152994
C14   C     C_2   0.392214 0.279777 0.199053 0.598649
C15   C     C_2   0.595750 0.721536 0.806212 0.599945
C16   C     C_2   0.207857 0.231550 0.059599 0.658341
C17   C     C_2   0.794142 0.761301 0.936157 0.650789
C18   C     C_2   0.809113 0.344022 0.556508 0.636332
C19   C     C_2   0.176686 0.560838 0.370779 0.633485
C20   C     C_2   0.080666 0.498359 0.480109 0.192944
C21   C     C_2   0.916011 0.475909 0.499188 0.193018
C22   C     C_R   0.472372 0.492637 0.702095 0.582240
C23   C     C_R   0.527474 0.507004 0.297840 0.574203
C24   C     C_R   0.544022 0.520620 0.183153 -0.013905
C25   C     C_R   0.455241 0.478233 0.816654 -0.002024
C26   C     C_R   0.342149 0.341734 0.990105 0.066437
Cu1   Cu    Cu3+1 0.647370 0.522180 0.481340 1.214909
Cu2   Cu    Cu3+1 0.352630 0.477820 0.518660 1.218661
H1    H     H_    0.245346 0.149932 0.328210 0.377069
H2    H     H_    0.600641 0.905562 0.815828 0.384848
H3    H     H_    0.091381 0.034801 0.099939 0.395245
H4    H     H_    0.973399 0.807990 0.806452 0.400244
H5    H     H_    0.639301 0.235737 0.685891 0.353664
H6    H     H_    0.213466 0.552998 0.211274 0.359023
N1    N     N_2   0.131210 0.444490 0.546730 -0.128516
N2    N     N_2   0.868790 0.555510 0.453270 -0.133080
O1    O     O_R   0.578710 0.332530 0.490040 -0.507471
O2    O     O_R   0.279626 0.245502 0.296502 -0.611275
O3    O     O_2   0.678574 0.753161 0.714337 -0.441260
O4    O     O_R   0.554556 0.815321 0.860777 -0.618504
O5    O     O_2   0.116739 0.256060 0.128441 -0.398294
O6    O     O_R   0.186391 0.100483 0.047166 -0.573920
O7    O     O_2   0.825889 0.877067 0.949809 -0.382469
O8    O     O_R   0.884562 0.727870 0.850805 -0.618054
O9    O     O_2   0.820507 0.245476 0.521674 -0.442584
O10   O     O_R   0.703634 0.331409 0.654139 -0.637949
O11   O     O_2   0.282849 0.667165 0.357412 -0.453213
O12   O     O_R   0.421290 0.667470 0.509960 -0.475789
O13   O     O_R   0.140551 0.500898 0.282207 -0.614241
O14   O     O_R   0.329810 0.295070 0.521560 -0.440500
O15   O     O_R   0.670190 0.704930 0.478440 -0.430985
O16   O     O_R   0.604230 0.515670 0.637800 -0.444259
O17   O     O_R   0.395770 0.484330 0.362200 -0.478102
O18   O     O_R   0.355330 0.478200 0.669330 -0.451934
O19   O     O_R   0.644670 0.521800 0.330670 -0.459728
O20   O     O_2   0.437441 0.197313 0.161191 -0.412775

loop_
_geom_bond_atom_site_label_1
_geom_bond_atom_site_label_2
_ccdc_geom_bond_type
C10   C12   S    
C17   O7    D    
C5    C25   A    
C11   C13   S    
Cu2   O12   S    
C10   C13   D    
C23   O17   A    
C20   N1    D    
H2    O4    S    
Cu1   Cu2   S    
Br8   N1    S    
C12   O12   A    
C8    C26   A    
C6    C14   S    
C5    C7    A    
C17   O8    S    
C23   C24   S    
Br7   N2    S    
C4    C24   A    
C12   O15   A    
C1    O1    A    
Cu1   N2    S    
C5    C15   S    
Br1   C4    S    
C2    C4    A    
Cu2   O18   S    
Br2   C3    S    
C18   O10   S    
H6    O13   S    
C1    C9    S    
C20   C21   S    
C14   O2    S    
Cu2   O14   S    
C2    C7    A    
C22   O18   A    
C21   N2    D    
C16   O6    S    
C6    C8    A    
H5    O10   S    
Br3   C13   S    
C15   O3    D    
C19   O11   D    
C14   O20   D    
Cu2   O17   S    
Cu1   O1    S    
C18   O9    D    
C23   O19   A    
C15   O4    S    
C3    C25   A    
H3    O6    S    
C2    C17   S    
C18   C21   S    
Cu1   O15   S    
C1    O14   A    
C19   O13   S    
C16   O5    D    
Br6   C9    S    
Cu2   N1    S    
Cu1   O19   S    
Br5   C10   S    
C22   C25   S    
C9    C11   D    
H1    O2    S    
H4    O8    S    
Br4   C11   S    
C3    C26   A    
C16   C26   S    
C7    C8    A    
C6    C24   A    
Cu1   O16   S    
C19   C20   S    
C22   O16   A    
