data_mof_unit_21965.cif
_audit_creation_date              2013-03-05T16:12:10-0500
_audit_creation_method            fapswitch 2.2
_symmetry_space_group_name_H-M    P1
_symmetry_Int_Tables_number       1
_space_group_crystal_system       triclinic
_cell_length_a                    10.90764
_cell_length_b                    9.813405
_cell_length_c                    27.814898
_cell_angle_alpha                 91.635891
_cell_angle_beta                  85.939292
_cell_angle_gamma                 88.468552
_cell_volume                      2967.41807749

loop_
_atom_site_label
_atom_site_type_symbol
_atom_site_description
_atom_site_fract_x
_atom_site_fract_y
_atom_site_fract_z
_atom_type_partial_charge
O1    O     O_R   0.317570 0.620260 0.500030 -0.547934
O2    O     O_R   0.317570 0.379740 0.500030 -0.566642
C1    C     C_R   0.260968 0.502547 0.507395 0.748401
O3    O     O_R   0.499900 0.620250 0.430280 -0.556461
O4    O     O_R   0.499900 0.379750 0.430280 -0.594579
C2    C     C_R   0.499348 0.498497 0.407996 0.801659
Cu1   Cu    Cu3+1 0.499860 0.642410 0.500020 0.935982
Cu2   Cu    Cu3+1 0.499860 0.357590 0.500020 0.908895
O5    O     O_R   0.682190 0.620260 0.500010 -0.582077
O6    O     O_R   0.682190 0.379740 0.500010 -0.592733
O7    O     O_R   0.499860 0.620280 0.569750 -0.554497
O8    O     O_R   0.499860 0.379720 0.569750 -0.601396
C3    C     C_R   0.738915 0.498721 0.499795 0.823100
C4    C     C_R   0.504127 0.501088 0.592112 0.826896
C5    C     C_R   0.406917 0.454726 0.178671 0.561212
O9    O     O_2   0.320635 0.388845 0.205345 -0.550487
N1    N     N_R   0.503786 0.507181 0.201111 -0.448576
C6    C     C_R   0.598177 0.567320 0.175651 0.547700
C7    C     C_R   0.590938 0.422352 0.274771 0.154087
C8    C     C_R   0.596581 0.429330 0.325268 0.071207
C9    C     C_R   0.403931 0.564473 0.332229 0.115274
C10   C     C_R   0.413472 0.581220 0.281872 0.172665
C11   C     C_R   0.503356 0.504073 0.252963 0.269593
C12   C     C_R   0.501144 0.519813 0.101373 -0.094936
C13   C     C_R   0.397804 0.470200 0.128438 -0.075694
C14   C     C_R   0.287836 0.448264 0.104898 0.160463
C15   C     C_R   0.601214 0.569327 0.125301 -0.030305
C16   C     C_R   0.499976 0.496397 0.354491 -0.143315
C17   C     C_R   0.516613 0.499074 0.645203 -0.092924
C18   C     C_R   0.409151 0.463754 0.975649 0.021154
C19   C     C_R   0.623847 0.531897 0.972479 0.019179
C20   C     C_R   0.519739 0.492239 0.948576 0.053809
C21   C     C_R   0.315589 0.401707 0.951417 -0.205880
C22   C     C_R   0.316738 0.395496 0.901227 0.172847
C23   C     C_R   0.421508 0.440392 0.873486 -0.025911
C24   C     C_R   0.527127 0.477218 0.897368 -0.118709
C25   C     C_R   0.639974 0.498306 0.870183 -0.033106
C26   C     C_R   0.640391 0.493971 0.819228 0.577934
N2    N     N_R   0.534446 0.472336 0.797223 -0.438729
C27   C     C_R   0.426619 0.446600 0.822762 0.548062
C28   C     C_R   0.531480 0.360867 0.716687 0.168916
C29   C     C_R   0.521430 0.371511 0.667165 -0.270730
C30   C     C_R   0.528580 0.618341 0.674119 0.080729
C31   C     C_R   0.535551 0.608395 0.724494 0.113250
C32   C     C_R   0.535074 0.480181 0.745615 0.351469
O10   O     O_2   0.324747 0.430390 0.798683 -0.552786
C33   C     C_R   0.399370 0.483845 0.026707 0.004754
C34   C     C_R   0.505130 0.518964 0.050328 -0.008163
C35   C     C_R   0.613844 0.556984 0.023337 0.067864
C36   C     C_R   0.286174 0.475925 0.055252 0.170858
H1    H     H_    0.518120 0.278285 0.645729 0.171175
H2    H     H_    0.240800 0.354768 0.971579 0.165705
O11   O     O_2   0.689324 0.623861 0.199102 -0.553175
C37   C     C_R   0.699755 0.625663 0.098789 -0.204397
H3    H     H_    0.772663 0.673834 0.116972 0.184320
C38   C     C_R   0.737745 0.531866 0.945430 -0.158083
C39   C     C_R   0.747613 0.519192 0.895129 0.155282
O12   O     O_2   0.744255 0.513542 0.791395 -0.553546
C40   C     C_R   0.705635 0.623874 0.048510 0.124916
H4    H     H_    0.822112 0.534346 0.963341 0.173208
C41   C     C_3   0.057009 0.645573 0.530467 0.004849
C42   C     C_3   0.061160 0.389151 0.542166 -0.016154
H5    H     H_    0.088947 0.722341 0.504493 0.148775
H6    H     H_    0.102856 0.295300 0.525909 0.159548
C43   C     C_3   0.914729 0.640831 0.525790 -0.008103
C44   C     C_3   0.920013 0.378904 0.535050 -0.020608
H7    H     H_    0.893861 0.719269 0.499440 0.124808
H8    H     H_    0.909490 0.282591 0.514288 0.136463
H9    H     H_    0.124733 0.580408 0.438861 0.175008
H10   H     H_    0.143615 0.401404 0.440641 0.191801
C45   C     C_3   0.089516 0.490028 0.457927 -0.480511
C46   C     C_3   0.120050 0.506924 0.511384 0.032928
C47   C     C_3   0.876879 0.498528 0.503184 0.061171
C48   C     C_3   0.950232 0.477860 0.451198 0.279847
C49   C     C_3   0.590957 0.081142 0.533418 -0.321132
C50   C     C_3   0.597355 0.917420 0.530609 -0.318305
H11   H     H_    0.571743 0.115272 0.571359 0.165040
H12   H     H_    0.595585 0.874940 0.566957 0.201017
H13   H     H_    0.683733 0.122036 0.526563 0.180319
H14   H     H_    0.691067 0.882147 0.518249 0.171790
C51   C     C_3   0.375223 0.089195 0.519919 0.414212
C52   C     C_3   0.380022 0.923022 0.524757 0.403456
C53   C     C_3   0.536310 0.078737 0.450592 0.400734
C54   C     C_3   0.533656 0.911182 0.450353 0.443632
N3    N     N_3   0.500250 0.143650 0.501060 -0.154462
N4    N     N_3   0.500250 0.856350 0.501060 -0.152008
C55   C     C_3   0.285909 0.603091 0.361629 -0.862022
H15   H     H_    0.213883 0.650134 0.340875 0.236054
H16   H     H_    0.248235 0.507329 0.375644 0.220098
H17   H     H_    0.301733 0.674051 0.391933 0.256615
C56   C     C_3   0.680370 0.328616 0.244680 -0.757610
H18   H     H_    0.684860 0.227071 0.261213 0.234829
H19   H     H_    0.652473 0.310899 0.207505 0.222459
H20   H     H_    0.773323 0.372352 0.242629 0.239008
N5    N     N_3   0.535793 0.748691 0.652586 -0.593858
H21   H     H_    0.621406 0.788959 0.658448 0.213235
H22   H     H_    0.467441 0.813158 0.669739 0.207805
C57   C     C_3   0.875172 0.525415 0.870216 -0.754606
H23   H     H_    0.881577 0.616302 0.847420 0.266310
H24   H     H_    0.947500 0.534531 0.896216 0.196965
H25   H     H_    0.897054 0.430619 0.848181 0.251589
N6    N     N_3   0.541788 0.727979 0.755041 -0.575443
H26   H     H_    0.618948 0.782410 0.743522 0.227362
H27   H     H_    0.462904 0.789056 0.752063 0.217093
N7    N     N_3   0.797766 0.703329 0.024040 -0.609014
H28   H     H_    0.785260 0.804740 0.036391 0.231896
H29   H     H_    0.884003 0.668566 0.033552 0.211999
C58   C     C_3   0.096169 0.699466 0.579693 -0.838827
H30   H     H_    0.081458 0.811663 0.582778 0.210978
H31   H     H_    0.046243 0.659701 0.611622 0.233007
H32   H     H_    0.193149 0.672094 0.583513 0.237347
C59   C     C_3   0.094088 0.387512 0.595376 -0.861024
H33   H     H_    0.088983 0.282210 0.608635 0.221220
H34   H     H_    0.187483 0.425525 0.599623 0.219438
H35   H     H_    0.030788 0.449223 0.620211 0.247077
N8    N     N_3   0.837411 0.685782 0.569266 -0.565461
H36   H     H_    0.848008 0.790400 0.575310 0.202188
H37   H     H_    0.861021 0.638651 0.600225 0.228898
N9    N     N_3   0.838885 0.358254 0.578739 -0.577406
H38   H     H_    0.863068 0.265370 0.593573 0.214004
H39   H     H_    0.843360 0.433046 0.605429 0.235960
C60   C     C_3   0.327883 0.680501 0.259023 -0.800322
H40   H     H_    0.318616 0.777315 0.280823 0.224420
H41   H     H_    0.363263 0.708675 0.222391 0.226141
H42   H     H_    0.236112 0.635598 0.256564 0.246266
C61   C     C_3   0.911078 0.584640 0.414428 -0.876900
H43   H     H_    0.961197 0.564690 0.378600 0.246192
H44   H     H_    0.812026 0.578947 0.409227 0.212191
H45   H     H_    0.932731 0.690600 0.424655 0.206926
C62   C     C_3   0.934543 0.336052 0.426452 -0.874115
H46   H     H_    0.986583 0.252194 0.442568 0.206092
H47   H     H_    0.838389 0.311477 0.428380 0.231109
H48   H     H_    0.968482 0.334340 0.387792 0.250326
C63   C     C_3   0.331709 0.161014 0.569924 -0.743550
H49   H     H_    0.391011 0.145312 0.599778 0.186311
H50   H     H_    0.318924 0.270134 0.568354 0.275074
H51   H     H_    0.238995 0.127746 0.582389 0.171186
C64   C     C_3   0.361467 0.885770 0.579372 -0.757656
H52   H     H_    0.427505 0.930683 0.602949 0.195361
H53   H     H_    0.269469 0.918300 0.595649 0.184587
H54   H     H_    0.358923 0.777358 0.584178 0.275866
N10   N     N_3   0.454415 0.125183 0.413435 -0.635981
H55   H     H_    0.390216 0.203619 0.421410 0.292699
H56   H     H_    0.496144 0.132259 0.378530 0.238486
N11   N     N_3   0.446617 0.860414 0.415578 -0.547467
H57   H     H_    0.367509 0.918762 0.412297 0.179449
H58   H     H_    0.486022 0.855545 0.380128 0.226512
C65   C     C_3   0.665619 0.129206 0.432505 -0.793980
H59   H     H_    0.691547 0.097447 0.394451 0.216551
H60   H     H_    0.662357 0.238735 0.432605 0.282479
H61   H     H_    0.742929 0.099072 0.453796 0.186404
C66   C     C_3   0.663138 0.848724 0.429004 -0.772354
H62   H     H_    0.680724 0.872592 0.390400 0.191002
H63   H     H_    0.745381 0.882415 0.446301 0.178936
H64   H     H_    0.669856 0.738439 0.429173 0.268205
N12   N     N_3   0.277200 0.128446 0.488339 -0.566849
H65   H     H_    0.190750 0.115594 0.505520 0.174182
H66   H     H_    0.273053 0.065731 0.458083 0.177223
N13   N     N_3   0.270966 0.863093 0.505713 -0.562705
H67   H     H_    0.189331 0.908956 0.520823 0.177546
H68   H     H_    0.266314 0.849696 0.469047 0.215683
C67   C     C_3   0.170311 0.406262 0.132454 -0.751657
H69   H     H_    0.091781 0.394892 0.109707 0.213303
H70   H     H_    0.184442 0.304334 0.147759 0.258773
H71   H     H_    0.142261 0.483281 0.161452 0.246820
C68   C     C_3   0.539348 0.222108 0.738330 -0.843511
H72   H     H_    0.542125 0.138894 0.710302 0.211602
H73   H     H_    0.624274 0.212813 0.757913 0.235748
H74   H     H_    0.458265 0.207288 0.763822 0.252851
C69   C     C_3   0.207019 0.334105 0.879268 -0.772446
H75   H     H_    0.155960 0.413276 0.860394 0.264294
H76   H     H_    0.237705 0.248380 0.853958 0.248717
H77   H     H_    0.140794 0.292499 0.906899 0.198154
C70   C     C_3   0.166596 0.528390 0.036542 -0.901630
H78   H     H_    0.104296 0.443424 0.029767 0.223263
H79   H     H_    0.119073 0.601379 0.063397 0.240686
H80   H     H_    0.182609 0.586667 0.003174 0.245419
N14   N     N_3   0.700522 0.366426 0.345884 -0.590085
H81   H     H_    0.780288 0.403014 0.328253 0.231657
H82   H     H_    0.705367 0.402931 0.381017 0.197444

loop_
_geom_bond_atom_site_label_1
_geom_bond_atom_site_label_2
_geom_bond_distance
_ccdc_geom_bond_type
C44   H8    1.106350 S    
C55   H15   1.106200 S    
C9    C55   1.508891 S    
C61   H43   1.111871 S    
C17   C29   1.409848 A    
C47   C48   1.607126 S    
C7    C11   1.411589 A    
N5    H21   1.045174 S    
C65   H61   1.103020 S    
C49   C50   1.605749 S    
C63   H51   1.106327 S    
C59   H34   1.107133 S    
N14   H81   1.045342 S    
C15   C37   1.395538 A    
Cu1   Cu2   2.795053 S    
C54   N11   1.487605 S    
C38   C39   1.397340 A    
C21   H2    1.078058 S    
Cu1   O7    1.957805 S    
N7    H29   1.046151 S    
C40   N7    1.434021 S    
C51   N12   1.481025 S    
O4    C2    1.335504 A    
C20   C24   1.424115 A    
N12   H65   1.038948 S    
C54   N4    1.546799 S    
C22   C23   1.420193 A    
C14   C36   1.416187 A    
N13   H67   1.042524 S    
N11   H57   1.033675 S    
C26   N2    1.364170 A    
O7    C4    1.341622 A    
C5    C13   1.419930 A    
Cu1   N4    2.098975 S    
C69   H75   1.109507 S    
C5    O9    1.347296 S    
C43   C47   1.591673 S    
C58   H30   1.108421 S    
C41   H5    1.104677 S    
Cu2   N3    2.100400 S    
C28   C29   1.396161 A    
H9    C45   1.109807 S    
C41   C58   1.546103 S    
O5    C3    1.328557 A    
C70   H78   1.109942 S    
C42   H6    1.088238 S    
C6    O11   1.349986 S    
C26   O12   1.347447 S    
C62   H46   1.110168 S    
C49   N3    1.513426 S    
C2    C16   1.487315 S    
C33   C34   1.413120 A    
N8    H37   1.034210 S    
C43   H7    1.108137 S    
C30   N5    1.429566 S    
N13   H68   1.029569 S    
H10   C45   1.115478 S    
C19   C38   1.406102 A    
C22   C69   1.513049 S    
C51   N3    1.540844 S    
C29   H1    1.080484 S    
N2    C32   1.439272 S    
C9    C10   1.411787 A    
C17   C30   1.415299 A    
C68   H73   1.110365 S    
C19   C35   1.424933 A    
O3    Cu1   1.945751 S    
C59   H33   1.108561 S    
N11   H58   1.046646 S    
C10   C60   1.515081 S    
C33   C36   1.425036 A    
C67   H70   1.109441 S    
C37   C40   1.395015 A    
N9    H39   1.033510 S    
C42   C44   1.571591 S    
C12   C34   1.417173 A    
C18   C33   1.424265 A    
C51   C63   1.577712 S    
C21   C22   1.394760 A    
C12   C13   1.415765 A    
O3    C2    1.330570 A    
C56   H18   1.110691 S    
C31   N6    1.435013 S    
C8    N14   1.438802 S    
C8    C16   1.419606 A    
C61   H45   1.106206 S    
C13   C14   1.425065 A    
C52   N4    1.545767 S    
C44   C47   1.572905 S    
C65   H60   1.074405 S    
C14   C67   1.519153 S    
C51   C52   1.639844 S    
C38   H4    1.077534 S    
O1    C1    1.338384 A    
C23   C24   1.419869 A    
C62   H47   1.080444 S    
C30   C31   1.414613 A    
C25   C26   1.416408 A    
C56   H19   1.108650 S    
C67   H71   1.110544 S    
N14   H82   1.036552 S    
C53   C54   1.645150 S    
C66   H64   1.082967 S    
Cu2   O8    1.945482 S    
C12   C15   1.408276 A    
C28   C68   1.507267 S    
N1    C6    1.364891 A    
C42   C46   1.581067 S    
N1    C11   1.443141 S    
C65   H59   1.109742 S    
N6    H27   1.044901 S    
C49   H11   1.102070 S    
C70   H80   1.109796 S    
C45   C48   1.551170 S    
C64   H53   1.106411 S    
C54   C66   1.592852 S    
C41   C46   1.569362 S    
C34   C35   1.422181 A    
C53   N3    1.545431 S    
C9    C16   1.416094 A    
C3    C47   1.514409 S    
C57   H24   1.110997 S    
C44   N9    1.473853 S    
C55   H16   1.105820 S    
C68   H72   1.111088 S    
C43   N8    1.474255 S    
N10   H56   1.047657 S    
C62   H48   1.111724 S    
C27   O10   1.348092 S    
C4    C17   1.493198 S    
C60   H41   1.108898 S    
C64   H54   1.076885 S    
C50   N4    1.511852 S    
N2    C27   1.363622 A    
C31   C32   1.403708 A    
C67   H69   1.106498 S    
C66   H63   1.101563 S    
Cu1   O5    1.994830 S    
C37   H3    1.084008 S    
C24   C25   1.421415 A    
C61   H44   1.102841 S    
C18   C21   1.404901 A    
O1    Cu1   2.005948 S    
C19   C20   1.413791 A    
O2    Cu2   1.994397 S    
C6    C15   1.399239 A    
C50   H14   1.098809 S    
C50   H12   1.103636 S    
O6    C3    1.335913 A    
C53   N10   1.486523 S    
C63   H50   1.078708 S    
N9    H38   1.046284 S    
N5    H22   1.044469 S    
C5    N1    1.369344 A    
C63   H49   1.099876 S    
C57   H25   1.110339 S    
N7    H28   1.045769 S    
C35   C40   1.425404 A    
C58   H32   1.097635 S    
C36   C70   1.520753 S    
C7    C8    1.410082 A    
C48   C62   1.553824 S    
C23   C27   1.411158 A    
O8    C4    1.331310 A    
C45   C46   1.551873 S    
C52   C64   1.573020 S    
C28   C32   1.404662 A    
C56   H20   1.109920 S    
C18   C20   1.414799 A    
C52   N13   1.466400 S    
C48   C61   1.557446 S    
C69   H76   1.110457 S    
C60   H42   1.110144 S    
C39   C57   1.513355 S    
N12   H66   1.032669 S    
C58   H31   1.095564 S    
N8    H36   1.046374 S    
O2    C1    1.343048 A    
N6    H26   1.044954 S    
C70   H79   1.111085 S    
C7    C56   1.513508 S    
C64   H52   1.100261 S    
C53   C65   1.561686 S    
C41   C43   1.568348 S    
C1    C46   1.532579 S    
C42   C59   1.547927 S    
C66   H62   1.110048 S    
C68   H74   1.109079 S    
Cu2   O6    2.006381 S    
C57   H23   1.109842 S    
C55   H17   1.103945 S    
N10   H55   1.035120 S    
O4    Cu2   1.958093 S    
C10   C11   1.412404 A    
C60   H40   1.110769 S    
C49   H13   1.104649 S    
C59   H35   1.098569 S    
C25   C39   1.422009 A    
C69   H77   1.110959 S    
