data_mof_unit_46982.cif
_audit_creation_date              2012-10-26T20:01:52-0400
_audit_creation_method            fapswitch 2.2
_symmetry_space_group_name_H-M    P1
_symmetry_Int_Tables_number       1
_space_group_crystal_system       triclinic
_cell_length_a                    11.657417
_cell_length_b                    10.966544
_cell_length_c                    9.703652
_cell_angle_alpha                 92.076542
_cell_angle_beta                  89.133792
_cell_angle_gamma                 94.890406
_cell_volume                      1235.11231474

loop_
_atom_site_label
_atom_site_type_symbol
_atom_type_description
_atom_site_fract_x
_atom_site_fract_y
_atom_site_fract_z
_atom_type_partial_charge
C1    C     C_R   0.504719 0.263160 0.497195 0.516965
C2    C     C_R   0.495626 0.873836 0.509909 -0.007850
C3    C     C_R   0.696235 0.605907 0.140522 0.136486
C4    C     C_R   0.284414 0.499333 0.500820 0.534709
C5    C     C_R   0.802170 0.597899 0.069933 0.053253
C6    C     C_R   0.801612 0.603688 0.926558 0.070913
C7    C     C_R   0.695952 0.610148 0.861250 0.152379
C8    C     C_R   0.593187 0.558296 0.926088 0.087788
C9    C     C_R   0.593661 0.556176 0.074490 0.094589
C10   C     C_R   0.412347 0.445732 0.076143 -0.008656
C11   C     C_R   0.409490 0.445337 0.929658 0.108402
C12   C     C_R   0.670720 0.100688 0.818530 0.062538
C13   C     C_R   0.497739 0.738117 0.503307 0.556999
C14   C     C_R   0.715593 0.501059 0.499196 0.539241
C15   C     C_1   0.162554 0.499511 0.502420 -0.037692
C16   C     C_1   0.059907 0.499926 0.502061 -0.048968
C17   C     C_1   0.940084 0.500614 0.500270 -0.050896
C18   C     C_1   0.837485 0.501135 0.498546 -0.049019
C19   C     C_R   0.657151 0.138036 0.682192 0.049517
C20   C     C_3   0.297156 0.383967 0.871158 -0.226845
C21   C     C_3   0.308607 0.260387 0.796210 -0.379067
C22   C     C_3   0.749716 0.223605 0.615622 -0.255509
C23   C     C_R   0.612764 0.988607 0.858656 0.007321
C24   C     C_3   0.859200 0.158805 0.587571 -0.455875
C25   C     C_3   0.737757 0.186513 0.921667 -0.294525
C26   C     C_3   0.667726 0.291431 0.963264 -0.428040
C27   C     C_3   0.620056 0.946033 0.004751 -0.285389
C28   C     C_3   0.743076 0.918636 0.040764 -0.457359
C29   C     C_R   0.550674 0.913163 0.759363 -0.124811
C30   C     C_R   0.539154 0.950906 0.623112 -0.006358
C31   C     C_R   0.571616 0.074697 0.598503 0.015567
C32   C     C_R   0.517984 0.130482 0.490729 -0.010227
C33   C     C_R   0.464922 0.056758 0.385362 -0.166825
C34   C     C_R   0.460389 0.929775 0.391131 -0.164367
Cu1   Cu    Cu3+1 0.499990 0.499990 0.640660 0.940061
Cu2   Cu    Cu3+1 0.500010 0.500010 0.359340 0.946264
H1    H     H_    0.426822 0.097218 0.298680 0.126170
H2    H     H_    0.390606 0.222009 0.821692 0.168324
H3    H     H_    0.237037 0.193193 0.827563 0.101816
H4    H     H_    0.234364 0.363552 0.956463 0.076106
H5    H     H_    0.248659 0.447054 0.814008 0.168856
H6    H     H_    0.894202 0.126138 0.683949 0.145800
H7    H     H_    0.840668 0.079032 0.515060 0.154344
H8    H     H_    0.925854 0.223073 0.540024 0.143965
H9    H     H_    0.722592 0.253080 0.514200 0.144345
H10   H     H_    0.769771 0.307404 0.680820 0.163975
H11   H     H_    0.717245 0.352912 0.038173 0.142956
H12   H     H_    0.508304 0.827850 0.792441 0.166228
H13   H     H_    0.585017 0.257035 0.012222 0.154957
H14   H     H_    0.650172 0.341358 0.870260 0.185181
H15   H     H_    0.757800 0.145046 0.018999 0.156157
H16   H     H_    0.822302 0.221845 0.878954 0.133671
H17   H     H_    0.810271 0.961518 0.971444 0.152052
H18   H     H_    0.762483 0.948495 0.149114 0.136375
H19   H     H_    0.751611 0.820556 0.029420 0.160312
H20   H     H_    0.590324 0.017891 0.077281 0.149403
H21   H     H_    0.560970 0.862547 0.020856 0.131214
H22   H     H_    0.771197 0.738216 0.276375 0.215644
H23   H     H_    0.424694 0.875122 0.304305 0.133061
H24   H     H_    0.641208 0.762586 0.221474 0.223129
H25   H     H_    0.895592 0.597395 0.246182 0.244356
H26   H     H_    0.955122 0.534418 0.108627 0.224233
H27   H     H_    0.342290 0.400787 0.134697 0.121827
H28   H     H_    0.956007 0.551251 0.860668 0.234521
H29   H     H_    0.952743 0.704256 0.891476 0.252136
H30   H     H_    0.717748 0.783230 0.801483 0.211674
H31   H     H_    0.758358 0.687302 0.683872 0.254932
H32   H     H_    0.300785 0.269099 0.683464 0.174778
N1    N     N_R   0.501070 0.501210 0.147910 -0.243040
N2    N     N_R   0.501110 0.501290 0.852040 -0.225699
N3    N     N_3   0.906974 0.625714 0.849753 -0.639906
N4    N     N_3   0.692411 0.698192 0.756072 -0.542647
N5    N     N_3   0.690567 0.693916 0.253225 -0.544337
N6    N     N_3   0.910061 0.608959 0.141049 -0.639688
O1    O     O_R   0.499990 0.319640 0.618810 -0.509123
O2    O     O_R   0.500000 0.319660 0.381240 -0.510018
O3    O     O_R   0.337190 0.500000 0.618790 -0.510358
O4    O     O_R   0.337200 0.500030 0.381210 -0.500986
O5    O     O_R   0.500000 0.680340 0.618760 -0.476462
O6    O     O_R   0.500010 0.680360 0.381190 -0.479839
O7    O     O_R   0.662800 0.499970 0.618790 -0.486635
O8    O     O_R   0.662810 0.500000 0.381210 -0.458479

loop_
_geom_bond_atom_site_label_1
_geom_bond_atom_site_label_2
_ccdc_geom_bond_type
C13   O5    A    
C24   H6    S    
C14   C18   S    
C10   H27   S    
C19   C31   A    
C20   H5    S    
Cu1   O7    S    
C11   N2    A    
C7    C8    A    
C12   C23   A    
Cu1   O1    S    
C23   C29   A    
C9    N1    A    
C26   H14   S    
C5    C6    A    
C20   H4    S    
C15   C16   T    
H24   N5    S    
H31   N4    S    
H28   N3    S    
C5    N6    S    
C2    C13   S    
Cu2   O2    S    
H30   N4    S    
C21   H2    S    
Cu1   Cu2   S    
Cu1   N2    S    
Cu2   O8    S    
C8    C9    A    
C23   C27   S    
C2    C34   A    
C13   O6    A    
C28   H19   S    
C33   C34   A    
C6    N3    S    
C11   C20   S    
C29   H12   S    
C1    O1    A    
C19   C22   S    
C27   H21   S    
C26   H13   S    
C7    N4    S    
C28   H18   S    
C27   H20   S    
C16   C17   S    
C25   C26   S    
H29   N3    S    
Cu1   O3    S    
C1    C32   S    
C33   H1    S    
C25   H15   S    
C4    O4    A    
C29   C30   A    
C3    C9    A    
C31   C32   A    
C21   H3    S    
C17   C18   T    
C26   H11   S    
C22   H10   S    
C21   H32   S    
Cu2   O6    S    
C34   H23   S    
C24   H8    S    
C22   C24   S    
C14   O8    A    
Cu2   N1    S    
C1    O2    A    
C3    C5    A    
C28   H17   S    
C6    C7    A    
H25   N6    S    
C8    N2    A    
C12   C25   S    
C2    C30   A    
C32   C33   A    
C4    C15   S    
C25   H16   S    
C4    O3    A    
Cu2   O4    S    
C30   C31   A    
C12   C19   A    
Cu1   O5    S    
C3    N5    S    
C10   C11   A    
C10   N1    A    
C22   H9    S    
C20   C21   S    
C27   C28   S    
C24   H7    S    
H26   N6    S    
C14   O7    A    
H22   N5    S    
