data_mof_unit_9634.cif
_audit_creation_date              2012-12-10T17:47:13-0500
_audit_creation_method            fapswitch 2.2
_symmetry_space_group_name_H-M    P1
_symmetry_Int_Tables_number       1
_space_group_crystal_system       triclinic
_cell_length_a                    11.695069
_cell_length_b                    14.761025
_cell_length_c                    14.709416
_cell_angle_alpha                 64.934964
_cell_angle_beta                  103.492061
_cell_angle_gamma                 103.255351
_cell_volume                      2212.02694177

loop_
_atom_site_label
_atom_site_type_symbol
_atom_type_description
_atom_site_fract_x
_atom_site_fract_y
_atom_site_fract_z
_atom_type_partial_charge
C1    C     C_R   0.478021 0.119715 0.312230 0.785006
C2    C     C_R   0.516611 0.880302 0.687804 0.791210
C3    C     C_R   0.395967 0.322061 0.003962 0.167214
C4    C     C_R   0.520446 0.679040 0.999277 0.166943
C5    C     C_R   0.466711 0.467514 0.053525 0.061951
C6    C     C_R   0.447738 0.533867 0.949388 0.061834
C7    C     C_R   0.395733 0.491707 0.876134 -0.228519
C8    C     C_R   0.502749 0.509679 0.127967 -0.238692
C9    C     C_R   0.369229 0.387860 0.903427 -0.230878
C10   C     C_R   0.527687 0.613463 0.101017 -0.230386
C11   C     C_R   0.709178 0.293124 0.654993 -0.390968
C12   C     C_R   0.298205 0.712512 0.336074 -0.382019
C13   C     C_R   0.670096 0.204867 0.635583 0.668744
C14   C     C_R   0.331218 0.795945 0.363273 0.657285
C15   C     C_R   0.515432 0.284733 0.508834 -0.021006
C16   C     C_R   0.484759 0.715331 0.489904 -0.026284
C17   C     C_R   0.543278 0.371731 0.532950 -0.002323
C18   C     C_R   0.459164 0.630492 0.462017 0.000361
C19   C     C_R   0.646946 0.375795 0.603739 0.032341
C20   C     C_R   0.358841 0.628946 0.387575 0.035545
C21   C     C_R   0.477744 0.456301 0.486069 -0.061308
C22   C     C_R   0.525420 0.546561 0.506884 -0.065836
C23   C     C_R   0.284086 0.999820 0.500058 0.812727
C24   C     C_R   0.715949 0.999934 0.500275 0.827313
C25   C     C_R   0.638436 0.550822 0.569647 0.458303
C26   C     C_R   0.366712 0.454107 0.419771 0.428425
C27   C     C_R   0.694496 0.464450 0.618606 -0.267473
C28   C     C_R   0.313925 0.542385 0.368191 -0.264685
C29   C     C_1   0.162332 0.999314 0.500361 -0.203979
C30   C     C_1   0.837729 0.999859 0.500546 -0.173745
C31   C     C_1   0.059857 0.999266 0.500510 -0.012246
C32   C     C_1   0.940172 0.999571 0.500594 -0.000079
C33   C     C_R   0.453958 0.187645 0.204899 -0.047843
C34   C     C_R   0.517477 0.812625 0.795488 -0.050326
C35   C     C_R   0.372198 0.217235 0.029511 -0.210428
C36   C     C_R   0.552880 0.783498 0.973707 -0.202219
C37   C     C_R   0.399962 0.150332 0.129625 -0.184512
C38   C     C_R   0.550857 0.849944 0.872381 -0.201538
C39   C     C_R   0.479099 0.292161 0.179116 -0.259224
C40   C     C_R   0.481080 0.708837 0.820824 -0.247840
C41   C     C_R   0.447055 0.361112 0.079775 0.081167
C42   C     C_R   0.481112 0.640133 0.922297 0.086609
Cu1   Cu    Cu3+1 0.469550 0.918260 0.475690 0.973228
Cu2   Cu    Cu3+1 0.530450 0.081740 0.524310 0.977002
H1    H     H_    0.328886 0.358854 0.844954 0.146273
H2    H     H_    0.555206 0.642489 0.160510 0.150013
H3    H     H_    0.455752 0.683157 0.759724 0.144760
H4    H     H_    0.525720 0.318097 0.237927 0.153906
H5    H     H_    0.575760 0.930191 0.854398 0.149242
H6    H     H_    0.378737 0.069743 0.148074 0.180562
H7    H     H_    0.331560 0.187018 0.972017 0.133519
H8    H     H_    0.581100 0.813700 0.032268 0.136758
H9    H     H_    0.780431 0.467138 0.665413 0.141581
H10   H     H_    0.230578 0.541953 0.317433 0.134765
H11   H     H_    0.548875 0.718830 0.553813 0.194980
H12   H     H_    0.451220 0.280467 0.445534 0.192473
H13   H     H_    0.789389 0.299269 0.707624 0.145701
H14   H     H_    0.224763 0.712483 0.275562 0.146607
N1    N     N_R   0.576230 0.204580 0.560790 -0.227177
N2    N     N_R   0.423770 0.795420 0.439210 -0.227705
O1    O     O_R   0.459870 0.022090 0.338120 -0.534182
O2    O     O_R   0.540130 0.977910 0.661880 -0.549976
O3    O     O_R   0.511290 0.160150 0.379180 -0.614688
O4    O     O_R   0.488710 0.839850 0.620820 -0.606895
O5    O     O_R   0.311490 0.930960 0.479480 -0.559748
O6    O     O_R   0.688510 0.069040 0.520520 -0.524758
O7    O     O_R   0.362910 0.069020 0.520540 -0.578074
O8    O     O_R   0.637090 0.930980 0.479460 -0.574141
O9    O     O_3   0.700721 0.643764 0.568729 -0.629192
C43   C     C_3   0.763886 0.641786 0.664629 0.033891
H15   H     H_    0.795224 0.721917 0.654763 0.182529
H16   H     H_    0.846093 0.607241 0.685834 0.138039
C44   C     C_3   0.687547 0.592866 0.750807 -0.404491
H17   H     H_    0.601991 0.622934 0.724564 0.214406
H18   H     H_    0.667832 0.509681 0.773208 0.217329
C45   C     C_3   0.751367 0.613925 0.844477 -0.869733
H19   H     H_    0.839014 0.586718 0.870782 0.249117
H20   H     H_    0.697095 0.573726 0.906745 0.265215
H21   H     H_    0.764572 0.696276 0.826861 0.254577
O10   O     O_3   0.301784 0.362653 0.418298 -0.621199
C46   C     C_3   0.249239 0.369876 0.318617 0.011223
H22   H     H_    0.309387 0.418958 0.261925 0.139105
H23   H     H_    0.163667 0.399888 0.297267 0.160707
C47   C     C_3   0.220989 0.264528 0.315942 -0.319987
H24   H     H_    0.304144 0.232076 0.334999 0.221892
H25   H     H_    0.162383 0.214381 0.373095 0.237127
C48   C     C_3   0.159123 0.267784 0.211285 -0.912390
H26   H     H_    0.072431 0.295553 0.191768 0.254821
H27   H     H_    0.142915 0.190544 0.211526 0.257722
H28   H     H_    0.215638 0.318255 0.152580 0.266688
H29   H     H_    0.370921 0.536811 0.796903 0.140905
H30   H     H_    0.509792 0.464575 0.208325 0.139045
O11   O     O_3   0.277333 0.882170 0.309733 -0.596765
C49   C     C_3   0.152216 0.860771 0.306566 0.043260
H31   H     H_    0.127218 0.907188 0.339688 0.179541
H32   H     H_    0.117918 0.780523 0.351979 0.119788
C50   C     C_3   0.090817 0.891982 0.196089 -0.370461
H33   H     H_    0.120456 0.973634 0.153246 0.229095
H34   H     H_    0.116076 0.848155 0.160236 0.213543
C51   C     C_3   0.955776 0.873669 0.189226 -0.904406
H35   H     H_    0.924019 0.792269 0.230752 0.259599
H36   H     H_    0.913612 0.896190 0.108474 0.249781
H37   H     H_    0.928197 0.919151 0.222040 0.260410
O12   O     O_3   0.732477 0.122724 0.679094 -0.580749
C52   C     C_3   0.787048 0.102199 0.781106 0.008779
H38   H     H_    0.769759 0.019145 0.823898 0.165349
H39   H     H_    0.749309 0.135762 0.820629 0.119007
C53   C     C_3   0.922101 0.132951 0.786344 -0.335675
H40   H     H_    0.956971 0.089580 0.755417 0.230732
H41   H     H_    0.944147 0.214539 0.739190 0.213373
C54   C     C_3   0.983822 0.111893 0.895357 -0.923496
H42   H     H_    0.951086 0.155062 0.927754 0.259088
H43   H     H_    0.081238 0.135391 0.896481 0.253781
H44   H     H_    0.966900 0.029871 0.943070 0.256429

loop_
_geom_bond_atom_site_label_1
_geom_bond_atom_site_label_2
_ccdc_geom_bond_type
C40   H3    S    
C21   C26   A    
C4    C36   A    
C9    H1    S    
O11   C49   S    
C44   H17   S    
Cu2   O6    S    
C54   H42   S    
C47   C48   S    
C48   H26   S    
C50   C51   S    
C46   H22   S    
C1    C33   S    
C39   C41   A    
C38   H5    S    
C52   H39   S    
C11   C19   A    
C33   C39   A    
C34   C40   A    
C23   C29   S    
C35   C37   A    
C45   H20   S    
C5    C6    A    
Cu2   N1    S    
C53   H40   S    
C15   C17   A    
C16   N2    A    
C23   O7    A    
C50   H34   S    
Cu1   O8    S    
C22   C25   A    
C10   H2    S    
C45   H21   S    
C43   H15   S    
C8    H30   S    
C19   C27   A    
C14   O11   S    
C36   H8    S    
C26   O10   S    
C24   O6    A    
C12   H14   S    
C2    C34   S    
C40   C42   A    
C34   C38   A    
C21   C22   A    
C44   H18   S    
O9    C43   S    
C1    O3    A    
O12   C52   S    
C46   H23   S    
C2    O4    A    
Cu1   O4    S    
C50   H33   S    
Cu2   O3    S    
C52   C53   S    
C47   H24   S    
C28   H10   S    
C20   C28   A    
C49   C50   S    
Cu2   O2    S    
C51   H37   S    
C33   C37   A    
Cu1   Cu2   S    
C3    C9    A    
C31   C32   S    
C3    C35   A    
Cu1   O5    S    
C7    H29   S    
C12   C20   A    
C43   C44   S    
C51   H36   S    
C54   H43   S    
C45   H19   S    
C13   O12   S    
C49   H32   S    
Cu1   N2    S    
C16   C18   A    
C12   C14   A    
C48   H27   S    
C35   H7    S    
C44   C45   S    
C25   O9    S    
C4    C10   A    
C46   C47   S    
Cu1   O1    S    
C7    C9    A    
C5    C41   A    
C3    C41   A    
C18   C22   A    
C15   N1    A    
C47   H25   S    
O10   C46   S    
C1    O1    A    
C5    C8    A    
C27   H9    S    
C6    C7    A    
C13   N1    A    
C25   C27   A    
C14   N2    A    
C52   H38   S    
C26   C28   A    
C53   C54   S    
C15   H12   S    
C23   O5    A    
C36   C38   A    
C16   H11   S    
C29   C31   T    
C30   C32   T    
C37   H6    S    
C11   C13   A    
C4    C42   A    
C51   H35   S    
C17   C19   A    
C53   H41   S    
C54   H44   S    
C18   C20   A    
C49   H31   S    
C24   C30   S    
C24   O8    A    
C8    C10   A    
C6    C42   A    
C48   H28   S    
Cu2   O7    S    
C43   H16   S    
C11   H13   S    
C2    O2    A    
C39   H4    S    
C17   C21   A    
