data_mof_unit_23308.cif
_audit_creation_date              2012-12-10T16:52:09-0500
_audit_creation_method            fapswitch 2.2
_symmetry_space_group_name_H-M    P1
_symmetry_Int_Tables_number       1
_space_group_crystal_system       triclinic
_cell_length_a                    7.745237
_cell_length_b                    8.622835
_cell_length_c                    14.966638
_cell_angle_alpha                 91.327955
_cell_angle_beta                  86.69314
_cell_angle_gamma                 93.419324
_cell_volume                      995.924228088

loop_
_atom_site_label
_atom_site_type_symbol
_atom_type_description
_atom_site_fract_x
_atom_site_fract_y
_atom_site_fract_z
_atom_type_partial_charge
C1    C     C_R   0.544971 0.794165 0.498332 0.922778
C2    C     C_R   0.590892 0.618479 0.811248 0.132432
C3    C     C_R   0.489024 0.507927 0.232557 -0.136541
C4    C     C_R   0.510976 0.492073 0.767443 -0.136541
C5    C     C_R   0.566454 0.636676 0.187215 -0.123505
C6    C     C_R   0.433545 0.363323 0.812785 -0.123505
C7    C     C_R   0.563862 0.639633 0.093031 0.028256
C8    C     C_R   0.436138 0.360367 0.906969 0.028255
C9    C     C_R   0.496600 0.503636 0.047139 0.020147
C10   C     C_R   0.503401 0.496364 0.952861 0.020147
C11   C     C_R   0.421473 0.374700 0.095390 0.069203
C12   C     C_R   0.455029 0.205835 0.501668 0.922778
C13   C     C_R   0.578528 0.625299 0.904610 0.069203
C14   C     C_R   0.627439 0.770482 0.042313 0.001488
C15   C     C_R   0.372562 0.229518 0.957687 0.001488
C16   C     C_3   0.134905 0.265270 0.247365 -0.720499
C17   C     C_3   0.865097 0.734729 0.752635 -0.720502
C18   C     C_1   0.651077 0.760137 0.239734 0.186052
C19   C     C_1   0.348921 0.239864 0.760266 0.186052
C20   C     C_1   0.677541 0.921607 0.079989 0.163887
C21   C     C_1   0.322461 0.078392 0.920011 0.163887
C22   C     C_1   0.716148 0.011704 0.558735 0.237312
C23   C     C_R   0.637019 0.760053 0.949947 -0.237071
C24   C     C_1   0.283852 0.988296 0.441265 0.237312
C25   C     C_R   0.362982 0.239946 0.050052 -0.237070
C26   C     C_2   0.565598 0.955843 0.510371 -0.234083
C27   C     C_2   0.434402 0.044157 0.489629 -0.234083
C28   C     C_R   0.503390 0.498735 0.672472 0.933561
C29   C     C_R   0.496610 0.501265 0.327528 0.933562
C30   C     C_R   0.409109 0.381521 0.188751 0.132432
H1    H     H_    0.688255 0.861456 0.913720 0.160696
H2    H     H_    0.920180 0.762791 0.818338 0.242148
H3    H     H_    0.920552 0.820859 0.703422 0.245758
H4    H     H_    0.903362 0.617620 0.729585 0.251763
H5    H     H_    0.311747 0.138543 0.086280 0.160695
H6    H     H_    0.013422 0.379781 0.434493 0.197547
H7    H     H_    0.986578 0.620219 0.565506 0.197547
H8    H     H_    0.365994 0.151058 0.228697 0.228089
H9    H     H_    0.079821 0.237203 0.181663 0.242147
H10   H     H_    0.096639 0.382381 0.270413 0.251762
H11   H     H_    0.079452 0.179143 0.296580 0.245758
H12   H     H_    0.634007 0.848941 0.771303 0.228090
N1    N     N_2   0.950330 0.457950 0.475660 -0.166950
N2    N     N_1   0.164329 0.943698 0.403080 -0.191367
N3    N     N_2   0.049670 0.542050 0.524340 -0.166950
N4    N     N_2   0.321743 0.260454 0.240566 -0.321377
N5    N     N_2   0.678258 0.739546 0.759433 -0.321377
N6    N     N_1   0.718225 0.857168 0.282447 -0.190344
N7    N     N_1   0.281772 0.142832 0.717554 -0.190344
N8    N     N_1   0.717601 0.043282 0.108964 -0.206856
N9    N     N_1   0.282402 0.956717 0.891036 -0.206856
N10   N     N_1   0.835671 0.056302 0.596920 -0.191367
O1    O     O_R   0.389250 0.738570 0.505970 -0.615700
O2    O     O_R   0.610750 0.261430 0.494030 -0.615700
O3    O     O_R   0.678390 0.711620 0.490370 -0.615983
O4    O     O_R   0.321610 0.288380 0.509630 -0.615984
O5    O     O_R   0.355420 0.513510 0.639950 -0.620867
O6    O     O_R   0.644580 0.486490 0.360050 -0.620866
O7    O     O_R   0.644560 0.486560 0.624350 -0.617132
O8    O     O_R   0.355440 0.513440 0.375650 -0.617132
Zn1   Zn    Zn3+2 0.306940 0.517990 0.510420 0.977162
Zn2   Zn    Zn3+2 0.693060 0.482010 0.489580 0.977162

loop_
_geom_bond_atom_site_label_1
_geom_bond_atom_site_label_2
_ccdc_geom_bond_type
C14   C23   A    
O6    Zn2   S    
C3    C30   A    
C2    C4    A    
C24   C27   S    
O5    Zn1   S    
C2    N5    S    
C9    C11   A    
C9    C10   A    
C19   N7    T    
C29   O8    A    
C15   C21   S    
C3    C5    A    
C1    O3    A    
C5    C7    A    
C28   O5    A    
C6    C19   S    
N1    N3    D    
C26   C27   D    
C12   O4    A    
C17   H3    S    
C16   H10   S    
C20   N8    T    
N3    Zn1   S    
C4    C28   S    
C25   H5    S    
C8    C15   A    
C7    C9    A    
H12   N5    S    
C7    C14   A    
C1    C26   S    
C24   N2    T    
N1    Zn2   S    
C15   C25   A    
H8    N4    S    
C17   H4    S    
C11   C25   A    
C12   C27   S    
H7    N3    S    
O3    Zn2   S    
C14   C20   S    
C21   N9    T    
C2    C13   A    
C29   O6    A    
C13   C23   A    
O1    Zn1   S    
C4    C6    A    
C22   C26   S    
C28   O7    A    
C16   N4    S    
C3    C29   S    
C17   H2    S    
C1    O1    A    
O4    Zn1   S    
H6    N1    S    
C6    C8    A    
C5    C18   S    
C16   H9    S    
C22   N10   T    
O2    Zn2   S    
C16   H11   S    
C30   N4    S    
C8    C10   A    
C12   O2    A    
C17   N5    S    
C11   C30   A    
C23   H1    S    
O8    Zn1   S    
O7    Zn2   S    
C10   C13   A    
C18   N6    T    
