data_mof_unit_30871.cif
_audit_creation_date              2012-12-10T18:43:08-0500
_audit_creation_method            fapswitch 2.2
_symmetry_space_group_name_H-M    P1
_symmetry_Int_Tables_number       1
_space_group_crystal_system       triclinic
_cell_length_a                    10.606525
_cell_length_b                    9.929403
_cell_length_c                    10.734735
_cell_angle_alpha                 90.013445
_cell_angle_beta                  91.29449
_cell_angle_gamma                 89.947102
_cell_volume                      1130.2552639

loop_
_atom_site_label
_atom_site_type_symbol
_atom_type_description
_atom_site_fract_x
_atom_site_fract_y
_atom_site_fract_z
_atom_type_partial_charge
C1    C     C_R   0.260651 0.499709 0.502986 0.872748
C2    C     C_R   0.936944 0.442684 0.618035 0.142557
C3    C     C_R   0.872086 0.499392 0.514040 -0.059084
C4    C     C_R   0.128389 0.498664 0.512164 -0.066086
C5    C     C_R   0.933167 0.555968 0.413766 -0.235062
C6    C     C_R   0.061563 0.555190 0.412702 -0.244602
C7    C     C_R   0.586037 0.073339 0.569622 -0.097508
C8    C     C_R   0.414337 0.073577 0.430081 -0.118242
C9    C     C_R   0.587693 0.930409 0.570106 0.203869
C10   C     C_R   0.412469 0.930638 0.429691 0.210096
C11   C     C_3   0.147861 0.383704 0.725152 -0.405763
C12   C     C_R   0.739373 0.499818 0.505855 0.887423
C13   C     C_3   0.164186 0.231079 0.713769 -0.833036
C14   C     C_3   0.865387 0.394858 0.731771 -0.437840
C15   C     C_3   0.841506 0.511480 0.820772 -0.895350
C16   C     C_3   0.688346 0.865462 0.651307 -0.396833
C17   C     C_3   0.818459 0.878165 0.593955 -0.854420
C18   C     C_3   0.311370 0.866609 0.348330 -0.391695
C19   C     C_3   0.180919 0.885733 0.403781 -0.871145
C20   C     C_R   0.495941 0.499899 0.262773 0.928092
C21   C     C_R   0.502119 0.499829 0.737226 0.909247
C22   C     C_2   0.483425 0.387494 0.932312 -0.167009
C23   C     C_2   0.490799 0.386073 0.066513 -0.161948
C24   C     C_2   0.510157 0.499360 0.869222 -0.335475
C25   C     C_2   0.480693 0.500283 0.131047 -0.343774
C26   C     C_R   0.069546 0.441146 0.616486 0.132197
H1    H     H_    0.458512 0.293944 0.885312 0.172893
H2    H     H_    0.215635 0.204823 0.628339 0.281309
H3    H     H_    0.219275 0.192958 0.795591 0.239135
H4    H     H_    0.242370 0.430926 0.731233 0.201186
H5    H     H_    0.105566 0.408694 0.815765 0.207655
H6    H     H_    0.931641 0.559544 0.850757 0.256662
H7    H     H_    0.780505 0.588150 0.774755 0.251848
H8    H     H_    0.793342 0.473636 0.904573 0.262397
H9    H     H_    0.774059 0.348028 0.705210 0.219571
H10   H     H_    0.916190 0.314059 0.783028 0.216994
H11   H     H_    0.817241 0.837647 0.497521 0.281645
H12   H     H_    0.504961 0.289323 0.112041 0.172550
H13   H     H_    0.848426 0.985278 0.591659 0.242300
H14   H     H_    0.888650 0.820482 0.650816 0.251848
H15   H     H_    0.690498 0.914753 0.744353 0.169281
H16   H     H_    0.668596 0.759638 0.669648 0.259368
H17   H     H_    0.176463 0.836433 0.496400 0.284269
H18   H     H_    0.158550 0.994341 0.414450 0.247752
H19   H     H_    0.108063 0.840793 0.340747 0.246168
H20   H     H_    0.311843 0.914528 0.254729 0.170152
H21   H     H_    0.327895 0.759507 0.331267 0.259271
H22   H     H_    0.542004 0.591910 0.913197 0.147936
H23   H     H_    0.457813 0.596368 0.088202 0.146107
H24   H     H_    0.880920 0.598762 0.335225 0.151827
H25   H     H_    0.109305 0.596314 0.332968 0.149891
H26   H     H_    0.654187 0.129325 0.625516 0.135871
H27   H     H_    0.346597 0.129906 0.373896 0.148054
H28   H     H_    0.071692 0.179064 0.710062 0.239126
N1    N     N_R   0.500000 0.857200 0.500000 -0.118276
N2    N     N_R   0.500000 0.142810 0.500000 -0.112540
O1    O     O_R   0.316770 0.614620 0.499990 -0.626262
O2    O     O_R   0.683230 0.614620 0.500010 -0.621151
O3    O     O_R   0.316800 0.385290 0.500000 -0.617160
O4    O     O_R   0.683200 0.385290 0.500000 -0.625801
O5    O     O_R   0.500000 0.614630 0.319080 -0.643120
O6    O     O_R   0.500000 0.614630 0.680920 -0.644668
O7    O     O_R   0.500030 0.385300 0.319080 -0.608495
O8    O     O_R   0.499970 0.385300 0.680920 -0.615863
Zn1   Zn    Zn3+2 0.500000 0.653120 0.500000 0.920290
Zn2   Zn    Zn3+2 0.500000 0.346880 0.500000 0.928621

loop_
_geom_bond_atom_site_label_1
_geom_bond_atom_site_label_2
_ccdc_geom_bond_type
C8    H27   S    
C4    C26   A    
C19   H19   S    
C13   H2    S    
C9    N1    A    
C1    O1    A    
C6    H25   S    
C23   H12   S    
C15   H8    S    
O6    Zn1   S    
C1    C4    S    
C12   O2    A    
C18   H21   S    
C8    N2    A    
C20   O7    A    
C1    O3    A    
C2    C3    A    
O7    Zn2   S    
O4    Zn2   S    
C15   H6    S    
C2    C26   A    
C17   H11   S    
C10   N1    A    
C11   C13   S    
O8    Zn2   S    
C21   O6    A    
C7    N2    A    
C10   C18   S    
N2    Zn2   S    
C18   H20   S    
C13   H3    S    
N1    Zn1   S    
C9    C16   S    
C19   H17   S    
C7    H26   S    
C13   H28   S    
C25   H23   S    
C22   H1    S    
C23   C25   D    
O3    Zn2   S    
C14   H10   S    
C5    C6    A    
C2    C14   S    
C22   C24   D    
C5    H24   S    
C20   C25   S    
C11   H5    S    
C12   O4    A    
O5    Zn1   S    
C14   H9    S    
C19   H18   S    
C4    C6    A    
C18   C19   S    
C17   H13   S    
C21   C24   S    
C20   O5    A    
C7    C9    A    
C14   C15   S    
C21   O8    A    
C3    C12   S    
O2    Zn1   S    
C11   C26   S    
C22   C23   S    
C16   H16   S    
C16   H15   S    
C15   H7    S    
C8    C10   A    
C11   H4    S    
O1    Zn1   S    
C16   C17   S    
C3    C5    A    
C17   H14   S    
C24   H22   S    
