data_mof_unit_65611.cif
_audit_creation_date              2012-12-10T20:01:04-0500
_audit_creation_method            fapswitch 2.2
_symmetry_space_group_name_H-M    P1
_symmetry_Int_Tables_number       1
_space_group_crystal_system       triclinic
_cell_length_a                    15.004307
_cell_length_b                    14.190283
_cell_length_c                    17.558163
_cell_angle_alpha                 90.000202
_cell_angle_beta                  90.251985
_cell_angle_gamma                 90.000066
_cell_volume                      3738.36648655

loop_
_atom_site_label
_atom_site_type_symbol
_atom_type_description
_atom_site_fract_x
_atom_site_fract_y
_atom_site_fract_z
_atom_type_partial_charge
C1    C     C_R   0.327813 0.499994 0.499939 0.857126
C2    C     C_R   0.455057 0.894553 0.443104 -0.339931
C3    C     C_R   0.432359 0.204330 0.465356 0.664943
C4    C     C_R   0.544955 0.795505 0.555408 0.668907
C5    C     C_R   0.567641 0.204331 0.534644 0.664945
C6    C     C_R   0.455045 0.795505 0.444592 0.668908
C7    C     C_R   0.500000 0.053303 0.500000 0.042672
C8    C     C_R   0.500000 0.946525 0.500000 0.039221
C9    C     C_R   0.499867 0.500030 0.353949 0.915689
C10   C     C_R   0.500135 0.500030 0.646051 0.915678
C11   C     C_R   0.430525 0.545092 0.846781 0.592779
C12   C     C_R   0.672187 0.499994 0.500063 0.857115
C13   C     C_R   0.430345 0.456797 0.152396 0.586418
C14   C     C_R   0.569513 0.545093 0.153229 0.592774
C15   C     C_R   0.569701 0.456811 0.847594 0.586414
C16   C     C_R   0.430100 0.545045 0.767596 -0.162859
C17   C     C_R   0.429807 0.456170 0.231570 -0.181243
C18   C     C_R   0.569921 0.545048 0.232414 -0.162859
C19   C     C_R   0.570222 0.456181 0.768420 -0.181237
C20   C     C_R   0.500078 0.500242 0.728355 -0.267281
C21   C     C_R   0.499938 0.500241 0.271645 -0.267286
C22   C     C_R   0.500068 0.501063 0.885962 -0.201612
C23   C     C_R   0.232053 0.499955 0.499876 -0.034475
C24   C     C_R   0.499982 0.501055 0.114038 -0.201613
C25   C     C_1   0.500030 0.501295 0.966215 0.219272
C26   C     C_1   0.500031 0.501293 0.033785 0.219271
C27   C     C_R   0.093953 0.579072 0.473221 -0.155555
C28   C     C_R   0.905724 0.420780 0.473416 -0.154148
C29   C     C_R   0.906045 0.579068 0.526807 -0.155556
C30   C     C_R   0.094279 0.420780 0.526606 -0.154153
C31   C     C_R   0.185953 0.579309 0.473589 -0.155670
C32   C     C_R   0.813738 0.420557 0.473884 -0.135818
C33   C     C_R   0.814045 0.579306 0.526430 -0.155670
C34   C     C_R   0.767947 0.499956 0.500134 -0.034474
C35   C     C_R   0.186265 0.420556 0.526129 -0.135824
C36   C     C_1   0.356498 0.588947 0.727574 0.327758
C37   C     C_1   0.355444 0.413206 0.270633 0.368889
C38   C     C_1   0.643512 0.588959 0.272446 0.327764
C39   C     C_1   0.644581 0.413226 0.729347 0.368893
C40   C     C_R   0.048112 0.499934 0.499966 0.104869
C41   C     C_R   0.951888 0.499932 0.500063 0.104867
C42   C     C_R   0.430635 0.105281 0.465478 -0.339462
C43   C     C_R   0.544942 0.894553 0.556896 -0.339931
C44   C     C_R   0.569365 0.105281 0.534522 -0.339460
F1    F     F_    0.363356 0.587443 0.885746 -0.616770
F2    F     F_    0.363065 0.415060 0.112631 -0.619698
F3    F     F_    0.636687 0.587449 0.114274 -0.616773
F4    F     F_    0.636993 0.415083 0.887350 -0.619699
F5    F     F_    0.365651 0.252053 0.430336 -0.639196
F6    F     F_    0.590213 0.747470 0.609903 -0.635045
F7    F     F_    0.634349 0.252053 0.569664 -0.639197
F8    F     F_    0.409787 0.747469 0.390097 -0.635042
H1    H     H_    0.058611 0.640053 0.451490 0.150623
H2    H     H_    0.579266 0.929599 0.603161 0.195894
H3    H     H_    0.625656 0.070235 0.560715 0.193061
H4    H     H_    0.420734 0.929597 0.396839 0.195895
H5    H     H_    0.940794 0.359789 0.451648 0.150419
H6    H     H_    0.941385 0.640048 0.548543 0.150624
H7    H     H_    0.059211 0.359787 0.548374 0.150420
H8    H     H_    0.220903 0.640743 0.452475 0.189903
H9    H     H_    0.778549 0.359111 0.452824 0.178010
H10   H     H_    0.779092 0.640739 0.547543 0.189907
H11   H     H_    0.221456 0.359108 0.547183 0.178012
H12   H     H_    0.374344 0.070235 0.439285 0.193061
N1    N     N_R   0.500000 0.252470 0.500000 -0.199727
N2    N     N_R   0.500000 0.747530 0.500000 -0.200618
N3    N     N_1   0.297676 0.623962 0.695453 -0.172557
N4    N     N_1   0.295835 0.379077 0.301855 -0.105624
N5    N     N_1   0.702325 0.623982 0.304574 -0.172558
N6    N     N_1   0.704187 0.379104 0.698115 -0.105634
O1    O     O_R   0.369060 0.579480 0.500010 -0.605273
O2    O     O_R   0.630940 0.420520 0.499990 -0.575079
O3    O     O_R   0.630940 0.579480 0.499990 -0.605272
O4    O     O_R   0.369060 0.420520 0.500010 -0.575079
O5    O     O_R   0.500000 0.579510 0.389120 -0.562222
O6    O     O_R   0.500000 0.420490 0.610880 -0.603418
O7    O     O_R   0.500000 0.579510 0.610880 -0.562223
O8    O     O_R   0.500000 0.420490 0.389120 -0.603419
Zn1   Zn    Zn3+2 0.500000 0.606140 0.500000 1.062536
Zn2   Zn    Zn3+2 0.500000 0.393860 0.500000 1.052700

loop_
_geom_bond_atom_site_label_1
_geom_bond_atom_site_label_2
_ccdc_geom_bond_type
C3    C42   A    
C18   C21   A    
C14   C18   A    
C19   C20   A    
C8    C43   A    
O1    Zn1   S    
C3    F5    S    
C36   N3    T    
C7    C8    S    
C2    C6    A    
C28   H5    S    
C15   C19   A    
N2    Zn1   S    
C1    O1    A    
C30   C35   A    
C1    O4    A    
C24   C26   S    
C32   H9    S    
C13   F2    S    
O8    Zn2   S    
C37   N4    T    
C29   C33   A    
C28   C41   A    
C7    C42   A    
C14   C24   A    
C10   O6    A    
C15   C22   A    
C10   C20   S    
C33   H10   S    
C22   C25   S    
C12   O2    A    
C38   N5    T    
N1    Zn2   S    
O4    Zn2   S    
C12   O3    A    
C3    N1    A    
C15   F4    S    
C10   O7    A    
O7    Zn1   S    
C27   C31   A    
C28   C32   A    
C5    N1    A    
C25   C26   T    
C17   C21   A    
C13   C24   A    
C4    F6    S    
C23   C31   A    
C31   H8    S    
C11   C16   A    
C43   H2    S    
C27   C40   A    
C16   C20   A    
C30   H7    S    
C33   C34   A    
O3    Zn1   S    
C30   C40   A    
C17   C37   S    
C7    C44   A    
C19   C39   S    
C40   C41   S    
C5    C44   A    
C1    C23   S    
C23   C35   A    
C11   F1    S    
C12   C34   S    
C42   H12   S    
C29   C41   A    
C2    C8    A    
O6    Zn2   S    
C27   H1    S    
C14   F3    S    
C4    C43   A    
C11   C22   A    
C13   C17   A    
C18   C38   S    
O2    Zn2   S    
C2    H4    S    
C16   C36   S    
C4    N2    A    
C44   H3    S    
C9    C21   S    
C39   N6    T    
C9    O8    A    
C6    N2    A    
C29   H6    S    
C5    F7    S    
C35   H11   S    
C9    O5    A    
C6    F8    S    
O5    Zn1   S    
C32   C34   A    
