data_mof_unit_41861.cif
_audit_creation_date              2012-10-26T20:51:08-0400
_audit_creation_method            fapswitch 2.2
_symmetry_space_group_name_H-M    P1
_symmetry_Int_Tables_number       1
_space_group_crystal_system       triclinic
_cell_length_a                    13.03429
_cell_length_b                    10.879884
_cell_length_c                    9.538833
_cell_angle_alpha                 90.910169
_cell_angle_beta                  97.425635
_cell_angle_gamma                 91.689993
_cell_volume                      1340.52396522

loop_
_atom_site_label
_atom_site_type_symbol
_atom_type_description
_atom_site_fract_x
_atom_site_fract_y
_atom_site_fract_z
_atom_type_partial_charge
C1    C     C_R   0.492475 0.262170 0.496301 0.543073
C2    C     C_R   0.435883 0.929287 0.357546 0.008984
C3    C     C_R   0.470664 0.869008 0.488458 -0.010820
C4    C     C_R   0.299850 0.499427 0.473221 0.527870
C5    C     C_R   0.482378 0.939044 0.613145 -0.005478
C6    C     C_3   0.561443 0.938042 0.741442 -0.274475
C7    C     C_3   0.565991 0.077122 0.736332 -0.260755
C8    C     C_R   0.587158 0.537468 0.089211 0.166681
C9    C     C_R   0.418865 0.451261 0.059082 -0.030118
C10   C     C_R   0.418699 0.451126 0.910474 -0.024294
C11   C     C_R   0.586730 0.535914 0.941503 0.140433
C12   C     C_R   0.028483 0.520380 0.572393 0.053752
C13   C     C_3   0.641127 0.656871 0.941129 -0.268959
C14   C     C_3   0.641935 0.662626 0.100742 -0.127161
C15   C     C_R   0.492150 0.737286 0.497694 0.534273
C16   C     C_R   0.699398 0.499124 0.528100 0.543587
C17   C     C_R   0.812081 0.498828 0.548542 -0.017898
C18   C     C_R   0.185318 0.492321 0.460344 0.012225
C19   C     C_R   0.019803 0.410854 0.346368 -0.125181
C20   C     C_R   0.127508 0.413085 0.357146 -0.011383
C21   C     C_R   0.133379 0.554258 0.563142 -0.004876
C22   C     C_3   0.752763 0.665708 0.181415 -0.266426
C23   C     C_R   0.970672 0.461392 0.453234 0.001669
C24   C     C_3   0.762681 0.751530 0.311143 -0.424812
C25   C     C_3   0.032842 0.557831 0.843074 -0.287085
C26   C     C_3   0.993895 0.463331 0.942515 -0.448535
C27   C     C_3   0.180023 0.328769 0.262417 -0.268919
C28   C     C_3   0.116867 0.213169 0.205956 -0.464582
C29   C     C_3   0.183387 0.666527 0.647634 -0.280929
C30   C     C_3   0.217012 0.767749 0.553599 -0.434638
C31   C     C_3   0.406303 0.127884 0.218845 -0.250576
C32   C     C_3   0.495492 0.140435 0.129641 -0.417646
C33   C     C_3   0.395033 0.857064 0.219574 -0.248872
C34   C     C_R   0.863500 0.450450 0.442646 -0.148340
C35   C     C_3   0.284504 0.806855 0.218160 -0.440857
C36   C     C_R   0.868613 0.542262 0.674931 -0.121803
C37   C     C_R   0.977055 0.544269 0.692949 0.014159
C38   C     C_R   0.484935 0.064611 0.611266 -0.000735
C39   C     C_R   0.473145 0.128560 0.486281 -0.009614
C40   C     C_R   0.438465 0.061452 0.356988 0.000101
Cu1   Cu    Cu3+1 0.499990 0.499980 0.640670 0.918176
Cu2   Cu    Cu3+1 0.500010 0.500020 0.359330 0.896983
H1    H     H_    0.819697 0.405142 0.350803 0.108645
H2    H     H_    0.591138 0.725127 0.885169 0.136511
H3    H     H_    0.751727 0.848100 0.277647 0.132794
H4    H     H_    0.704165 0.727335 0.381386 0.187344
H5    H     H_    0.841003 0.744863 0.371609 0.137286
H6    H     H_    0.775633 0.572046 0.212856 0.162162
H7    H     H_    0.810008 0.700075 0.113248 0.132373
H8    H     H_    0.593538 0.737333 0.132693 0.137313
H9    H     H_    0.973300 0.362583 0.259284 0.110753
H10   H     H_    0.912636 0.479421 0.959242 0.139109
H11   H     H_    0.999686 0.368695 0.899416 0.155638
H12   H     H_    0.828358 0.571097 0.761252 0.118212
H13   H     H_    0.042253 0.471808 0.046923 0.142127
H14   H     H_    0.116819 0.542688 0.846582 0.140242
H15   H     H_    0.022020 0.651748 0.885145 0.128728
H16   H     H_    0.085415 0.164482 0.293421 0.157757
H17   H     H_    0.052932 0.236551 0.123251 0.138240
H18   H     H_    0.167177 0.149672 0.156267 0.126335
H19   H     H_    0.201371 0.381887 0.172073 0.139414
H20   H     H_    0.249920 0.295114 0.326468 0.151656
H21   H     H_    0.287370 0.741205 0.510101 0.165797
H22   H     H_    0.154227 0.785797 0.466759 0.142940
H23   H     H_    0.526961 0.905831 0.835404 0.124717
H24   H     H_    0.236079 0.853874 0.616940 0.137031
H25   H     H_    0.127611 0.711889 0.707876 0.134502
H26   H     H_    0.249597 0.640205 0.725197 0.167151
H27   H     H_    0.468350 0.189383 0.031308 0.124888
H28   H     H_    0.561785 0.194042 0.187737 0.182308
H29   H     H_    0.523588 0.049424 0.100720 0.125445
H30   H     H_    0.337384 0.082947 0.156838 0.118951
H31   H     H_    0.376204 0.219054 0.235604 0.159725
H32   H     H_    0.250203 0.783995 0.107737 0.123448
H33   H     H_    0.284096 0.720811 0.278170 0.175524
H34   H     H_    0.634669 0.894917 0.721594 0.131094
H35   H     H_    0.235877 0.876119 0.262272 0.142004
H36   H     H_    0.396283 0.911210 0.123451 0.122620
H37   H     H_    0.444498 0.783522 0.192056 0.172003
H38   H     H_    0.537011 0.122534 0.827716 0.140181
H39   H     H_    0.640926 0.115178 0.709201 0.137845
H40   H     H_    0.353257 0.412566 0.102062 0.100863
H41   H     H_    0.352126 0.412563 0.843093 0.119872
H42   H     H_    0.717699 0.649096 0.903675 0.108275
N1    N     N_R   0.500660 0.500930 0.148010 -0.238090
N2    N     N_R   0.500660 0.500890 0.852110 -0.233776
O1    O     O_R   0.500000 0.319640 0.618810 -0.492901
O2    O     O_R   0.500010 0.319680 0.381230 -0.511517
O3    O     O_R   0.348990 0.499960 0.599490 -0.511471
O4    O     O_R   0.349000 0.500000 0.361910 -0.523791
O5    O     O_R   0.499990 0.680320 0.618770 -0.498131
O6    O     O_R   0.500000 0.680360 0.381190 -0.516126
O7    O     O_R   0.651000 0.500000 0.638090 -0.499937
O8    O     O_R   0.651010 0.500040 0.400510 -0.500284

loop_
_geom_bond_atom_site_label_1
_geom_bond_atom_site_label_2
_ccdc_geom_bond_type
C1    O1    A    
Cu1   O3    S    
C35   H32   S    
C30   H22   S    
C18   C21   A    
Cu1   Cu2   S    
C22   H6    S    
C19   C20   A    
C25   H14   S    
C26   H13   S    
C14   H8    S    
Cu1   N2    S    
C13   H42   S    
C35   H33   S    
C16   O7    A    
C24   H3    S    
C36   C37   A    
C38   C39   A    
C33   H36   S    
C31   H31   S    
C11   N2    A    
C10   H41   S    
C31   C40   S    
C8    N1    A    
C12   C37   A    
C27   H19   S    
C9    N1    A    
C15   O6    A    
C29   H25   S    
C6    H23   S    
Cu1   O7    S    
C16   C17   S    
C17   C36   A    
C13   C14   S    
C9    C10   A    
C18   C20   A    
C9    H40   S    
C4    C18   S    
C1    O2    A    
C5    C38   A    
C25   H15   S    
C32   H29   S    
C4    O4    A    
C28   H18   S    
Cu1   O1    S    
C39   C40   A    
C33   H37   S    
C32   H28   S    
C25   C26   S    
C21   C29   S    
C12   C21   A    
C35   H35   S    
Cu2   O4    S    
C19   C23   A    
C29   C30   S    
C27   H20   S    
C26   H10   S    
C29   H26   S    
C31   C32   S    
C12   C23   A    
C23   C34   A    
Cu2   N1    S    
C30   H24   S    
C32   H27   S    
C22   H7    S    
C2    C33   S    
C31   H30   S    
Cu1   O5    S    
C22   C24   S    
Cu2   O2    S    
C17   C34   A    
C26   H11   S    
C3    C15   S    
C4    O3    A    
C28   H17   S    
C10   N2    A    
C8    C14   S    
C7    H39   S    
Cu2   O8    S    
C24   H5    S    
C34   H1    S    
C3    C5    A    
C6    H34   S    
C6    C7    S    
C20   C27   S    
C28   H16   S    
C16   O8    A    
C24   H4    S    
C14   C22   S    
C2    C3    A    
C11   C13   S    
C5    C6    S    
C8    C11   A    
C33   C35   S    
C7    C38   S    
C19   H9    S    
Cu2   O6    S    
C36   H12   S    
C1    C39   S    
C15   O5    A    
C2    C40   A    
C27   C28   S    
C30   H21   S    
C13   H2    S    
C25   C37   S    
C7    H38   S    
