data_mof_unit_26348.cif
_audit_creation_date              2012-12-10T16:32:36-0500
_audit_creation_method            fapswitch 2.2
_symmetry_space_group_name_H-M    P1
_symmetry_Int_Tables_number       1
_space_group_crystal_system       triclinic
_cell_length_a                    16.87605
_cell_length_b                    16.899131
_cell_length_c                    16.884573
_cell_angle_alpha                 65.187305
_cell_angle_beta                  65.199261
_cell_angle_gamma                 65.938867
_cell_volume                      3807.61050171

loop_
_atom_site_label
_atom_site_type_symbol
_atom_type_description
_atom_site_fract_x
_atom_site_fract_y
_atom_site_fract_z
_atom_type_partial_charge
C1    C     C_R   0.591022 0.033810 0.590406 0.071124
C2    C     C_R   0.821050 0.563555 0.034897 0.890008
C3    C     C_R   0.436240 0.963880 0.179086 0.876135
C4    C     C_R   0.564064 0.035203 0.820954 0.908972
C5    C     C_R   0.564125 0.821141 0.033909 0.887176
C6    C     C_R   0.432639 0.176606 0.975003 0.911619
C7    C     C_R   0.037587 0.562941 0.821041 0.920495
C8    C     C_R   0.965008 0.435811 0.179009 0.887061
C9    C     C_R   0.821170 0.036778 0.562827 0.887008
C10   C     C_R   0.178848 0.962939 0.437209 0.888322
C11   C     C_R   0.545155 0.014221 0.544619 0.127367
C12   C     C_R   0.410984 0.959978 0.410930 0.069634
C13   C     C_R   0.457439 0.978696 0.456763 0.126910
C14   C     C_R   0.014869 0.544316 0.545797 0.125064
C15   C     C_R   0.981730 0.455746 0.457028 0.125273
C16   C     C_R   0.550838 0.549025 0.998864 0.128443
C17   C     C_R   0.465416 0.459760 0.961938 0.130884
C18   C     C_R   0.553531 0.057872 0.451120 -0.184483
C19   C     C_R   0.449061 0.934990 0.550252 -0.185209
C20   C     C_R   0.954547 0.490005 0.594602 -0.180007
C21   C     C_R   0.042286 0.509877 0.408360 -0.180845
C22   C     C_R   0.497316 0.597698 0.938684 -0.179730
C23   C     C_R   0.032969 0.590849 0.591952 0.072301
C24   C     C_R   0.520193 0.411240 0.020734 -0.179612
C25   C     C_R   0.510167 0.040503 0.407796 -0.182029
C26   C     C_R   0.492507 0.952306 0.593582 -0.180929
C27   C     C_R   0.454772 0.553605 0.920719 -0.188805
C28   C     C_R   0.562068 0.455147 0.038996 -0.193028
C29   C     C_R   0.938239 0.446308 0.550784 -0.183870
C30   C     C_R   0.058354 0.553775 0.452108 -0.183485
C31   C     C_R   0.550433 0.037153 0.680379 -0.238494
C32   C     C_R   0.451585 0.956607 0.320952 -0.243266
C33   C     C_R   0.036067 0.680817 0.550901 -0.240870
C34   C     C_R   0.963540 0.409433 0.410592 0.072247
C35   C     C_R   0.957299 0.320342 0.452743 -0.232139
C36   C     C_R   0.682324 0.552628 0.029560 -0.231860
C37   C     C_R   0.323180 0.451869 0.952771 -0.246317
C38   C     C_R   0.321356 0.955073 0.452916 -0.233478
C39   C     C_R   0.679903 0.040830 0.547869 -0.232225
C40   C     C_R   0.451987 0.321642 0.952593 -0.263169
C41   C     C_R   0.553051 0.682733 0.028323 -0.239679
C42   C     C_R   0.960943 0.449856 0.320318 -0.245032
C43   C     C_R   0.039727 0.549105 0.680639 -0.232365
C44   C     C_R   0.595076 0.055648 0.722662 -0.081536
C45   C     C_R   0.594680 0.594710 0.021196 0.066881
C46   C     C_R   0.405701 0.941130 0.277666 -0.074561
C47   C     C_R   0.054287 0.723977 0.594891 -0.100058
C48   C     C_R   0.940476 0.277030 0.407790 -0.103299
C49   C     C_R   0.723288 0.594681 0.052745 -0.095668
C50   C     C_R   0.269404 0.395948 0.972629 -0.090370
C51   C     C_R   0.277305 0.939365 0.407858 -0.106164
C52   C     C_R   0.722916 0.058813 0.592259 -0.099164
C53   C     C_R   0.395079 0.268716 0.973831 -0.085076
C54   C     C_R   0.595662 0.723706 0.051104 -0.073614
C55   C     C_R   0.943885 0.404832 0.277400 -0.079548
C56   C     C_R   0.414095 0.412256 0.951977 0.078337
C57   C     C_R   0.057317 0.594293 0.723101 -0.097978
C58   C     C_R   0.673238 0.084080 0.671470 0.036922
C59   C     C_R   0.326343 0.914518 0.328202 0.037394
C60   C     C_R   0.080219 0.675249 0.673795 0.046384
C61   C     C_R   0.915731 0.326539 0.328217 0.035913
C62   C     C_R   0.672919 0.672590 0.079832 0.037310
C63   C     C_R   0.301763 0.302608 0.001753 0.034223
C64   C     C_3   0.702855 0.140664 0.699034 -0.387093
C65   C     C_3   0.626171 0.226196 0.716740 -0.346348
C66   C     C_3   0.657743 0.283598 0.740974 -0.885856
C67   C     C_R   0.963031 0.178806 0.437190 0.884319
C68   C     C_3   0.293703 0.861594 0.299049 -0.375276
C69   C     C_3   0.368591 0.777220 0.276186 -0.365674
C70   C     C_3   0.331583 0.719249 0.258817 -0.878113
C71   C     C_3   0.151841 0.696127 0.689363 -0.399949
C72   C     C_3   0.115121 0.749692 0.758427 -0.245270
C73   C     C_3   0.168160 0.817148 0.729166 -0.934934
C74   C     C_3   0.859687 0.296946 0.299893 -0.386225
C75   C     C_3   0.774209 0.373649 0.281597 -0.335546
C76   C     C_3   0.720476 0.344384 0.250407 -0.891873
C77   C     C_3   0.701369 0.698908 0.138333 -0.380190
C78   C     C_R   0.035334 0.821381 0.563615 0.906575
C79   C     C_3   0.623189 0.717519 0.223677 -0.372549
C80   C     C_3   0.655868 0.731856 0.287047 -0.868853
C81   C     C_3   0.241292 0.245333 0.083802 -0.356057
C82   C     C_3   0.204977 0.189524 0.060583 -0.259188
C83   C     C_3   0.107355 0.187826 0.118248 -0.893659
C84   C     C_R   0.177141 0.433583 0.973036 0.906642
H1    H     H_    0.485954 0.915957 0.665198 0.129006
H2    H     H_    0.488600 0.669772 0.905012 0.128220
H3    H     H_    0.078656 0.517228 0.336629 0.131713
H4    H     H_    0.918604 0.482470 0.666452 0.133140
H5    H     H_    0.485107 0.023321 0.718151 0.159224
H6    H     H_    0.517716 0.968716 0.283744 0.162081
H7    H     H_    0.020353 0.718123 0.486703 0.163838
H8    H     H_    0.971172 0.283220 0.517835 0.161550
H9    H     H_    0.720343 0.489364 0.013013 0.162757
H10   H     H_    0.292840 0.523973 0.944064 0.155205
H11   H     H_    0.284419 0.969280 0.517856 0.162130
H12   H     H_    0.516634 0.076932 0.336203 0.129524
H13   H     H_    0.717167 0.026543 0.482996 0.161492
H14   H     H_    0.524601 0.291395 0.941320 0.163435
H15   H     H_    0.488546 0.720070 0.014174 0.160978
H16   H     H_    0.974116 0.515411 0.282810 0.159935
H17   H     H_    0.029208 0.482347 0.717345 0.159857
H18   H     H_    0.678767 0.243909 0.804070 0.259832
H19   H     H_    0.715826 0.305948 0.684033 0.257097
H20   H     H_    0.601060 0.344750 0.753249 0.253693
H21   H     H_    0.604003 0.267819 0.654419 0.220640
H22   H     H_    0.566507 0.207730 0.773894 0.219904
H23   H     H_    0.106103 0.594084 0.412869 0.130722
H24   H     H_    0.727908 0.099057 0.759410 0.230175
H25   H     H_    0.760086 0.165247 0.642794 0.201424
H26   H     H_    0.278449 0.694035 0.321007 0.255558
H27   H     H_    0.302176 0.759568 0.201060 0.260745
H28   H     H_    0.387741 0.659938 0.240896 0.254615
H29   H     H_    0.423324 0.797742 0.213749 0.219327
H30   H     H_    0.398322 0.735361 0.333652 0.220418
H31   H     H_    0.237546 0.835895 0.356134 0.203715
H32   H     H_    0.266308 0.906335 0.240578 0.226855
H33   H     H_    0.241468 0.781126 0.721266 0.252485
H34   H     H_    0.890375 0.406139 0.590064 0.129968
H35   H     H_    0.160614 0.869048 0.663490 0.293883
H36   H     H_    0.141655 0.852056 0.781916 0.236187
H37   H     H_    0.041735 0.786323 0.768430 0.244026
H38   H     H_    0.123386 0.701980 0.825692 0.225537
H39   H     H_    0.202305 0.631255 0.712431 0.166186
H40   H     H_    0.191450 0.733278 0.621994 0.194249
H41   H     H_    0.762793 0.327148 0.185609 0.260993
H42   H     H_    0.698445 0.284467 0.303643 0.256092
H43   H     H_    0.659175 0.400955 0.238207 0.251954
H44   H     H_    0.729934 0.392628 0.345246 0.218292
H45   H     H_    0.601430 0.415734 0.086763 0.131716
H46   H     H_    0.792456 0.435021 0.227867 0.212318
H47   H     H_    0.901956 0.271885 0.239636 0.230335
H48   H     H_    0.834841 0.239748 0.355790 0.200167
H49   H     H_    0.707889 0.669830 0.311833 0.258758
H50   H     H_    0.685370 0.790248 0.250553 0.261397
H51   H     H_    0.597441 0.746665 0.347006 0.254340
H52   H     H_    0.569418 0.779637 0.203652 0.215604
H53   H     H_    0.593186 0.659405 0.261811 0.221672
H54   H     H_    0.756305 0.642107 0.164152 0.202817
H55   H     H_    0.728969 0.758271 0.097029 0.228841
H56   H     H_    0.413573 0.592952 0.874701 0.125496
H57   H     H_    0.093589 0.129713 0.116585 0.217285
H58   H     H_    0.095727 0.180162 0.190617 0.274930
H59   H     H_    0.059160 0.250378 0.089164 0.294516
H60   H     H_    0.246232 0.117478 0.076451 0.240191
H61   H     H_    0.209649 0.215001 0.986894 0.230341
H62   H     H_    0.280220 0.197848 0.133151 0.165325
H63   H     H_    0.183486 0.290409 0.122631 0.201635
H64   H     H_    0.409837 0.886295 0.589669 0.130197
H65   H     H_    0.592510 0.106777 0.411695 0.128764
H66   H     H_    0.528071 0.339408 0.055722 0.134476
O1    O     O_R   0.982940 0.138950 0.510160 -0.630483
O2    O     O_R   0.982940 0.510160 0.138950 -0.638923
O3    O     O_R   0.861050 0.017060 0.489840 -0.632803
O4    O     O_R   0.138950 0.982940 0.510160 -0.639667
O5    O     O_R   0.867700 0.025880 0.612340 -0.630152
O6    O     O_R   0.132300 0.974120 0.387660 -0.630790
O7    O     O_R   0.025880 0.612340 0.867700 -0.635129
O8    O     O_R   0.974120 0.387660 0.132300 -0.642221
O9    O     O_R   0.612340 0.867700 0.025880 -0.624152
O10   O     O_R   0.387660 0.132300 0.974120 -0.648922
O11   O     O_R   0.387660 0.974120 0.132300 -0.643411
O12   O     O_R   0.017060 0.861050 0.489840 -0.639134
O13   O     O_R   0.612340 0.025880 0.867700 -0.622433
O14   O     O_R   0.132300 0.387660 0.974120 -0.622281
O15   O     O_R   0.867700 0.612340 0.025880 -0.630593
O16   O     O_R   0.974120 0.132300 0.387660 -0.634748
O17   O     O_R   0.025880 0.867700 0.612340 -0.615584
O18   O     O_R   0.138950 0.510160 0.982940 -0.646047
O19   O     O_R   0.861050 0.489840 0.017060 -0.628043
O20   O     O_R   0.510160 0.982940 0.138950 -0.635401
O21   O     O_R   0.489840 0.017060 0.861050 -0.634911
O22   O     O_R   0.489840 0.861050 0.017060 -0.634746
O23   O     O_R   0.510160 0.138950 0.982940 -0.636957
O24   O     O_R   0.017060 0.489840 0.861050 -0.633464
Zn1   Zn    Zn3+2 0.004880 0.004880 0.583590 0.923015
Zn2   Zn    Zn3+2 0.995120 0.995120 0.416410 0.918878
Zn3   Zn    Zn3+2 0.004880 0.583590 0.004880 0.907666
Zn4   Zn    Zn3+2 0.995120 0.416410 0.995120 0.904605
Zn5   Zn    Zn3+2 0.583590 0.004880 0.004880 0.922110
Zn6   Zn    Zn3+2 0.416410 0.995120 0.995120 0.898612

loop_
_geom_bond_atom_site_label_1
_geom_bond_atom_site_label_2
_ccdc_geom_bond_type
C16   C28   A    
C21   H3    S    
C11   C18   A    
C73   H35   S    
C4    O21   A    
C74   H48   S    
C46   C59   A    
O15   Zn3   S    
C65   H22   S    
C66   H18   S    
C62   C77   S    
C34   C42   A    
C8    O8    A    
C10   O4    A    
C81   C82   S    
C48   C61   A    
C50   C84   S    
C19   H64   S    
C79   H52   S    
C18   C25   A    
O3    Zn2   S    
C69   H29   S    
C78   O17   A    
C80   H51   S    
O4    Zn1   S    
C63   C81   S    
C28   H45   S    
C71   H39   S    
C8    O2    A    
C34   C35   A    
C33   H7    S    
C40   H14   S    
C72   H37   S    
C39   H13   S    
O12   Zn2   S    
C35   C48   A    
O18   Zn3   S    
C7    O24   A    
C55   C61   A    
C1    C31   A    
C80   H50   S    
C75   H44   S    
O2    Zn3   S    
C19   C26   A    
O10   Zn6   S    
C70   H26   S    
C47   C60   A    
C37   C56   A    
C36   H9    S    
C32   H6    S    
C44   C58   A    
C68   C69   S    
C31   H5    S    
C30   H23   S    
C1    C11   S    
C38   H11   S    
C41   H15   S    
C64   H24   S    
C18   H65   S    
C24   C28   A    
O24   Zn4   S    
C15   C34   S    
C84   O14   A    
C75   H46   S    
C35   H8    S    
O22   Zn6   S    
C22   H2    S    
C39   C52   A    
C9    O3    A    
C73   H36   S    
C74   H47   S    
C12   C32   A    
C50   C63   A    
C13   C25   A    
C9    C52   S    
C32   C46   A    
C14   C30   A    
C10   C51   S    
C8    C55   S    
C65   H21   S    
C15   C29   A    
C20   C29   A    
C77   C79   S    
C58   C64   S    
C69   H30   S    
C17   C24   A    
C73   H33   S    
C74   C75   S    
C13   C19   A    
C67   O1    A    
C17   C27   A    
C14   C20   A    
C5    C54   S    
O1    Zn1   S    
C77   H54   S    
C23   C33   A    
C31   C44   A    
C10   O6    A    
C83   H57   S    
C43   C57   A    
C76   H42   S    
C57   C60   A    
C38   C51   A    
C4    C44   S    
C60   C71   S    
C40   C56   A    
C80   H49   S    
C14   C23   S    
C75   C76   S    
C43   H17   S    
O23   Zn5   S    
C84   O18   A    
C2    C49   S    
C42   H16   S    
C59   C68   S    
C71   H40   S    
C17   C56   S    
C24   H66   S    
C66   H20   S    
C4    O13   A    
C36   C45   A    
C81   H62   S    
O7    Zn3   S    
O11   Zn6   S    
C3    O11   A    
C2    O15   A    
C52   C58   A    
C68   H32   S    
C67   O16   A    
C82   H60   S    
C79   H53   S    
C78   O12   A    
C22   C27   A    
O13   Zn5   S    
C33   C47   A    
O21   Zn6   S    
C51   C59   A    
C68   H31   S    
C6    C53   S    
O19   Zn4   S    
C82   H61   S    
O14   Zn4   S    
O17   Zn1   S    
C29   H34   S    
O5    Zn1   S    
O6    Zn2   S    
C16   C22   A    
C49   C62   A    
C72   H38   S    
C23   C43   A    
C76   H41   S    
C66   H19   S    
C26   H1    S    
C77   H55   S    
O9    Zn5   S    
C72   C73   S    
C16   C45   S    
C83   H58   S    
C6    O10   A    
C40   C53   A    
C3    O20   A    
C7    O7    A    
C6    O23   A    
C61   C74   S    
C54   C62   A    
C21   C30   A    
C3    C46   S    
O16   Zn2   S    
C27   H56   S    
C11   C26   A    
O20   Zn5   S    
C64   C65   S    
O8    Zn4   S    
C71   C72   S    
C83   H59   S    
C37   C50   A    
C53   C63   A    
C81   H63   S    
C64   H25   S    
C42   C55   A    
C20   H4    S    
C5    O22   A    
C37   H10   S    
C65   C66   S    
C48   C67   S    
C12   C38   A    
C69   C70   S    
C70   H28   S    
C41   C54   A    
C70   H27   S    
C1    C39   A    
C2    O19   A    
C79   C80   S    
C15   C21   A    
C12   C13   S    
C9    O5    A    
C25   H12   S    
C5    O9    A    
C82   C83   S    
C76   H43   S    
C41   C45   A    
C47   C78   S    
C7    C57   S    
C36   C49   A    
