data_mof_unit_50083.cif
_audit_creation_date              2012-12-10T18:42:42-0500
_audit_creation_method            fapswitch 2.2
_symmetry_space_group_name_H-M    P1
_symmetry_Int_Tables_number       1
_space_group_crystal_system       triclinic
_cell_length_a                    10.817455
_cell_length_b                    15.125864
_cell_length_c                    13.950818
_cell_angle_alpha                 91.070308
_cell_angle_beta                  91.045707
_cell_angle_gamma                 92.063996
_cell_volume                      2280.39160727

loop_
_atom_site_label
_atom_site_type_symbol
_atom_type_description
_atom_site_fract_x
_atom_site_fract_y
_atom_site_fract_z
_atom_type_partial_charge
C1    C     C_R   0.499315 0.329886 0.499334 0.779131
C2    C     C_R   0.501320 0.669854 0.500738 0.772650
C3    C     C_R   0.871719 0.499810 0.502268 -0.077234
C4    C     C_R   0.128823 0.504996 0.499177 -0.080937
C5    C     C_R   0.938814 0.460450 0.576723 -0.010236
C6    C     C_R   0.062266 0.548675 0.427296 0.002046
C7    C     C_R   0.512741 0.096709 0.585422 -0.180602
C8    C     C_R   0.557583 0.904362 0.426723 -0.180587
C9    C     C_R   0.511706 0.188417 0.585190 -0.199195
C10   C     C_R   0.558743 0.812559 0.427369 -0.203559
C11   C     C_R   0.498213 0.233123 0.498633 -0.024249
C12   C     C_R   0.502626 0.766104 0.501877 -0.025384
C13   C     C_R   0.483127 0.184630 0.412321 -0.194299
C14   C     C_R   0.445366 0.812020 0.575827 -0.207316
C15   C     C_R   0.482036 0.092594 0.412723 -0.173616
C16   C     C_R   0.442469 0.903806 0.574452 -0.171632
C17   C     C_R   0.497595 0.047941 0.499283 0.112453
C18   C     C_R   0.498833 0.950759 0.499974 0.106483
C19   C     C_R   0.595560 0.542519 0.110541 -0.311077
C20   C     C_R   0.467237 0.423122 0.889247 -0.311281
C21   C     C_R   0.591085 0.544909 0.211476 0.016048
C22   C     C_R   0.459468 0.426671 0.788576 0.024693
C23   C     C_R   0.262570 0.502225 0.499401 0.786020
C24   C     C_R   0.737633 0.499223 0.500827 0.792906
C25   C     C_R   0.410388 0.451001 0.205538 0.328614
C26   C     C_R   0.550053 0.571417 0.794725 0.313632
C27   C     C_R   0.405606 0.454482 0.103515 0.168084
C28   C     C_R   0.536404 0.576045 0.896000 0.162842
C29   C     C_R   0.501350 0.498442 0.054472 0.079026
C30   C     C_R   0.501916 0.499054 0.945382 0.086864
C31   C     C_R   0.256433 0.733593 0.318737 -0.113677
C32   C     C_R   0.772283 0.288175 0.724807 -0.138359
C33   C     C_R   0.202820 0.677263 0.385922 -0.097897
C34   C     C_R   0.829815 0.329288 0.647589 -0.128350
C35   C     C_R   0.122883 0.606400 0.355678 0.130275
C36   C     C_R   0.878745 0.416161 0.658073 0.129629
C37   C     C_R   0.095397 0.594291 0.257370 -0.163607
C38   C     C_R   0.869110 0.461533 0.746204 -0.121571
C39   C     C_R   0.149192 0.650957 0.190479 -0.144111
C40   C     C_R   0.809936 0.420618 0.822769 -0.131484
C41   C     C_R   0.230308 0.720104 0.221073 -0.113713
C42   C     C_R   0.761691 0.333949 0.812107 -0.112669
C43   C     C_R   0.933666 0.543293 0.428422 -0.239358
C44   C     C_R   0.066803 0.462465 0.573585 -0.237578
Cu1   Cu    Cu3+1 0.500000 0.499990 0.596430 0.939594
Cu2   Cu    Cu3+1 0.500000 0.500010 0.403570 0.941320
H1    H     H_    0.271771 0.763853 0.169179 0.118159
H2    H     H_    0.716121 0.302273 0.871482 0.117400
H3    H     H_    0.467906 0.056413 0.345481 0.120955
H4    H     H_    0.394699 0.937884 0.630922 0.124219
H5    H     H_    0.673152 0.575472 0.076571 0.166583
H6    H     H_    0.444517 0.360825 0.922629 0.166812
H7    H     H_    0.662927 0.581344 0.252064 0.131600
H8    H     H_    0.425495 0.368700 0.748561 0.136408
H9    H     H_    0.317210 0.788312 0.342384 0.139806
H10   H     H_    0.735938 0.220805 0.717019 0.121950
H11   H     H_    0.222557 0.689386 0.461513 0.096594
H12   H     H_    0.836445 0.293610 0.579946 0.116501
H13   H     H_    0.032354 0.541086 0.232680 0.114502
H14   H     H_    0.905918 0.528796 0.755038 0.115827
H15   H     H_    0.127343 0.641812 0.114887 0.120494
H16   H     H_    0.801312 0.456110 0.890280 0.119122
H17   H     H_    0.881494 0.576963 0.373850 0.143870
H18   H     H_    0.118260 0.429775 0.629333 0.157297
H19   H     H_    0.526860 0.064099 0.652981 0.121491
H20   H     H_    0.603764 0.939000 0.369517 0.126859
H21   H     H_    0.522337 0.224234 0.652909 0.144636
H22   H     H_    0.604121 0.777855 0.370011 0.143986
H23   H     H_    0.471168 0.217638 0.344721 0.148050
H24   H     H_    0.400417 0.776846 0.633295 0.142786
N1    N     N_R   0.500000 0.500020 0.258690 -0.177107
N2    N     N_R   0.500000 0.499980 0.741310 -0.174219
O1    O     O_R   0.500010 0.371450 0.581430 -0.587849
O2    O     O_R   0.499990 0.628550 0.418570 -0.574727
O3    O     O_R   0.500010 0.371460 0.418560 -0.594920
O4    O     O_R   0.499990 0.628540 0.581440 -0.588299
O5    O     O_R   0.319640 0.500000 0.581430 -0.580991
O6    O     O_R   0.680360 0.500000 0.418570 -0.589878
O7    O     O_R   0.319640 0.500010 0.418560 -0.575289
O8    O     O_R   0.680360 0.499990 0.581440 -0.578810
C45   C     C_3   0.315789 0.389359 0.250818 -0.795179
H25   H     H_    0.328058 0.377725 0.326774 0.270724
H26   H     H_    0.221368 0.413874 0.239004 0.217416
H27   H     H_    0.321303 0.322023 0.218677 0.166978
C46   C     C_3   0.631108 0.642341 0.750611 -0.807560
H28   H     H_    0.670084 0.622047 0.682142 0.272052
H29   H     H_    0.580038 0.704287 0.743209 0.222281
H30   H     H_    0.715338 0.655695 0.795939 0.167871
N3    N     N_2   0.305618 0.412535 0.049468 -0.446143
H31   H     H_    0.277636 0.349789 0.069025 0.249073
C47   C     C_3   0.204466 0.468301 0.025323 -0.693619
H32   H     H_    0.150214 0.482434 0.090048 0.217688
H33   H     H_    0.142511 0.433503 0.971445 0.227389
H34   H     H_    0.239279 0.531072 0.993860 0.233167
N4    N     N_2   0.554723 0.657955 0.948058 -0.443325
H35   H     H_    0.622553 0.701236 0.924465 0.252776
C48   C     C_3   0.441831 0.701733 0.970477 -0.700763
H36   H     H_    0.464268 0.762813 0.013659 0.219789
H37   H     H_    0.380262 0.658277 0.013363 0.238321
H38   H     H_    0.392842 0.720009 0.903389 0.218513

loop_
_geom_bond_atom_site_label_1
_geom_bond_atom_site_label_2
_ccdc_geom_bond_type
C38   C40   A    
C8    H20   S    
C27   C29   A    
C26   N2    A    
N4    H35   S    
C1    C11   S    
C2    C12   S    
C48   H38   S    
C45   H25   S    
C43   H17   S    
C22   H8    S    
C20   C30   A    
C46   H28   S    
C44   H18   S    
C3    C43   A    
C21   N1    A    
C28   N4    S    
C35   C37   A    
C16   H4    S    
Cu2   O7    S    
C7    H19   S    
C5    C36   S    
C40   H16   S    
C6    C35   S    
Cu1   O1    S    
C48   H37   S    
C24   O8    A    
C7    C17   A    
C31   C33   A    
C25   N1    A    
N3    C47   S    
C2    O2    A    
C40   C42   A    
Cu1   N2    S    
C25   C45   S    
C14   H24   S    
C3    C24   S    
C22   N2    A    
Cu2   O3    S    
C45   H26   S    
C48   H36   S    
C46   H29   S    
C39   H15   S    
C1    O3    A    
C4    C6    A    
C47   H32   S    
Cu2   O6    S    
C4    C23   S    
C4    C44   A    
Cu1   Cu2   S    
C8    C18   A    
C32   C34   A    
C9    H21   S    
C29   C30   S    
C19   H5    S    
C47   H33   S    
C17   C18   S    
C41   H1    S    
C16   C18   A    
C42   H2    S    
C23   O5    A    
C9    C11   A    
Cu2   N1    S    
C37   H13   S    
C10   C12   A    
C38   H14   S    
C24   O6    A    
C5    C44   A    
C12   C14   A    
C6    C43   A    
C13   C15   A    
C14   C16   A    
C19   C29   A    
Cu2   O2    S    
C45   H27   S    
C2    O4    A    
C46   H30   S    
Cu1   O4    S    
C15   C17   A    
C33   H11   S    
C31   C41   A    
C19   C21   A    
C20   C22   A    
C3    C5    A    
N4    C48   S    
C23   O7    A    
C10   H22   S    
C25   C27   A    
C26   C28   A    
C1    O1    A    
C36   C38   A    
C20   H6    S    
C47   H34   S    
C21   H7    S    
C11   C13   A    
C13   H23   S    
C26   C46   S    
C28   C30   A    
C33   C35   A    
C27   N3    S    
Cu1   O8    S    
C34   C36   A    
C15   H3    S    
C7    C9    A    
C37   C39   A    
C39   C41   A    
C8    C10   A    
C34   H12   S    
C32   C42   A    
Cu1   O5    S    
C31   H9    S    
N3    H31   S    
C32   H10   S    
