data_mof_unit_18505.cif
_audit_creation_date              2012-12-10T17:32:18-0500
_audit_creation_method            fapswitch 2.2
_symmetry_space_group_name_H-M    P1
_symmetry_Int_Tables_number       1
_space_group_crystal_system       triclinic
_cell_length_a                    12.431852
_cell_length_b                    13.069811
_cell_length_c                    15.04799
_cell_angle_alpha                 76.438995
_cell_angle_beta                  101.018431
_cell_angle_gamma                 116.87016
_cell_volume                      2109.99338282

loop_
_atom_site_label
_atom_site_type_symbol
_atom_type_description
_atom_site_fract_x
_atom_site_fract_y
_atom_site_fract_z
_atom_type_partial_charge
C1    C     C_R   0.855597 0.285801 0.504575 0.860363
C2    C     C_R   0.005654 0.595635 0.076604 0.075359
C3    C     C_R   0.940090 0.285382 0.077284 0.338650
C4    C     C_R   0.935564 0.288881 0.984032 -0.119598
C5    C     C_R   0.960115 0.392258 0.921137 -0.030042
C6    C     C_R   0.986154 0.496067 0.951984 0.008900
C7    C     C_R   0.011001 0.601888 0.888257 0.044545
C8    C     C_R   0.020457 0.701066 0.919086 -0.093311
C9    C     C_R   0.019056 0.697816 0.012856 -0.085860
C10   C     C_R   0.957552 0.392753 0.827624 0.345453
C11   C     C_R   0.995620 0.498506 0.766893 -0.179383
C12   C     C_R   0.998621 0.498751 0.670566 0.872976
C13   C     C_R   0.025208 0.603314 0.796376 -0.133901
C14   C     C_R   0.273823 0.047258 0.452587 0.339494
C15   C     C_R   0.227329 0.840316 0.481114 -0.144026
C16   C     C_R   0.813785 0.072506 0.545586 0.379236
C17   C     C_R   0.730179 0.960389 0.579108 0.340347
C18   C     C_R   0.606663 0.934167 0.570369 -0.180528
C19   C     C_R   0.562742 0.012746 0.511115 0.000522
C20   C     C_R   0.647502 0.124884 0.475061 -0.016112
C21   C     C_R   0.437374 0.985132 0.487806 0.063514
C22   C     C_R   0.398242 0.074454 0.452114 0.018478
C23   C     C_R   0.144806 0.714762 0.488332 0.816682
C24   C     C_R   0.482828 0.181978 0.408729 -0.108728
C25   C     C_R   0.603185 0.198713 0.410722 -0.042265
C26   C     C_R   0.351187 0.870245 0.490445 -0.225128
C27   C     C_R   0.188457 0.929773 0.468016 -0.123343
C28   C     C_R   0.773254 0.159761 0.504133 -0.251472
C29   C     C_R   0.376488 0.386847 0.677912 0.238875
C30   C     C_R   0.756413 0.644964 0.371537 0.530238
C31   C     C_R   0.664014 0.682917 0.348739 -0.157778
C32   C     C_R   0.567601 0.634760 0.401622 -0.191757
C33   C     C_R   0.558893 0.546353 0.476889 0.067736
C34   C     C_R   0.000254 0.499668 0.329600 0.799076
C35   C     C_R   0.659148 0.515759 0.503600 0.150171
C36   C     C_R   0.457383 0.493970 0.531362 -0.118313
C37   C     C_R   0.476398 0.447526 0.624618 -0.099091
C38   C     C_R   0.592407 0.452005 0.657195 -0.065037
C39   C     C_R   0.662740 0.453100 0.594532 -0.076815
C40   C     C_R   0.337971 0.483183 0.496066 0.460228
C41   C     C_R   0.262304 0.381673 0.639710 0.506527
C42   C     C_R   0.008099 0.593319 0.170112 -0.174983
C43   C     C_R   0.997879 0.494708 0.233769 -0.072521
C44   C     C_R   0.981344 0.392562 0.206415 -0.074942
C45   C     C_R   0.969448 0.388628 0.111321 -0.005659
C46   C     C_R   0.986976 0.493390 0.046635 0.039215
Cu1   Cu    Cu3+1 0.098270 0.475420 0.521130 1.095314
Cu2   Cu    Cu3+1 0.901730 0.524580 0.478870 1.019224
H1    H     H_    0.021204 0.669655 0.195316 0.183874
H2    H     H_    0.381205 0.803346 0.494923 0.170478
H3    H     H_    0.503434 0.672778 0.386898 0.187991
H4    H     H_    0.913909 0.208349 0.961626 0.243733
N1    N     N_R   0.246280 0.438190 0.553160 -0.263420
N2    N     N_R   0.754320 0.561190 0.447410 -0.241141
O1    O     O_R   0.972510 0.318130 0.526570 -0.481571
O2    O     O_R   0.806530 0.359650 0.490890 -0.604449
O3    O     O_R   0.082980 0.479210 0.647590 -0.530763
O4    O     O_R   0.917000 0.520730 0.611900 -0.601001
O5    O     O_R   0.193470 0.640350 0.509110 -0.590670
O6    O     O_R   0.027490 0.681870 0.473430 -0.555270
O7    O     O_R   0.083000 0.479270 0.388100 -0.528995
O8    O     O_R   0.917020 0.520790 0.352410 -0.534851
C47   C     C_1   0.445713 0.267705 0.349366 0.359561
N3    N     N_1   0.417310 0.336653 0.301618 -0.154087
Cl1   Cl    Cl    0.224091 0.157198 0.444033 -0.508956
Cl2   Cl    Cl    0.968139 0.099618 0.557767 -0.388300
C48   C     C_1   0.530523 0.832343 0.630290 0.365466
N4    N     N_1   0.470115 0.751061 0.678285 -0.237773
Cl3   Cl    Cl    0.781264 0.853531 0.637968 -0.527319
C49   C     C_1   0.671757 0.275403 0.334672 0.268026
N5    N     N_1   0.723466 0.335132 0.272326 -0.256013
Cl4   Cl    Cl    0.136342 0.287709 0.700583 -0.352515
C50   C     C_1   0.638580 0.445217 0.753476 0.404999
N6    N     N_1   0.676704 0.440509 0.830043 -0.213105
Cl5   Cl    Cl    0.385224 0.302521 0.787911 -0.472399
C51   C     C_1   0.978118 0.295340 0.277901 0.407373
N7    N     N_1   0.976025 0.218676 0.335817 -0.125922
Cl6   Cl    Cl    0.299740 0.492428 0.376318 -0.555938
Cl7   Cl    Cl    0.881172 0.719181 0.305385 -0.590726
C52   C     C_1   0.668613 0.775158 0.272458 0.387635
N8    N     N_1   0.672213 0.849047 0.211409 -0.154859
C53   C     C_1   0.680618 0.348334 0.616892 0.357042
N9    N     N_1   0.688890 0.261031 0.639295 -0.213135
Cl8   Cl    Cl    0.899796 0.144622 0.143410 -0.530942
Cl9   Cl    Cl    0.902838 0.260600 0.785014 -0.519352
C54   C     C_1   0.080148 0.711080 0.733063 0.280664
N10   N     N_1   0.124635 0.796697 0.682509 -0.245017
C55   C     C_1   0.021877 0.804426 0.855795 0.319353
N11   N     N_1   0.022716 0.887163 0.806226 -0.090816
C56   C     C_1   0.031085 0.800744 0.043267 0.290483
N12   N     N_1   0.040594 0.882531 0.067392 -0.156907
C57   C     C_1   0.062384 0.903362 0.469295 0.516692
N13   N     N_1   0.961683 0.882517 0.470449 -0.157686

loop_
_geom_bond_atom_site_label_1
_geom_bond_atom_site_label_2
_ccdc_geom_bond_type
C16   C28   A    
C21   C26   A    
C10   Cl9   S    
C17   Cl3   S    
C50   N6    T    
C19   C20   A    
C7    C8    A    
C45   C46   A    
C2    C46   A    
C23   O5    A    
C30   N2    A    
C4    H4    S    
C5    C6    A    
C36   C37   A    
C19   C21   A    
C1    O2    A    
C26   H2    S    
C30   C31   A    
C20   C25   A    
C34   O8    A    
C33   C36   A    
C18   C19   A    
C44   C51   S    
Cu2   O8    S    
C31   C32   A    
C8    C9    A    
C13   C54   S    
C1    C28   S    
C49   N5    T    
C14   C27   A    
Cu1   N1    S    
C12   O4    A    
C15   C23   S    
C21   C22   A    
C35   N2    A    
Cu2   O6    S    
C23   O6    A    
C48   N4    T    
C36   C40   A    
C24   C25   A    
C31   C52   S    
C54   N10   T    
C16   C17   A    
C15   C26   A    
C20   C28   A    
C18   C48   S    
C3    C45   A    
C34   O7    A    
C8    C55   S    
Cu2   N2    S    
C35   C39   A    
C43   C44   A    
C32   H3    S    
C37   C38   A    
Cu1   O3    S    
C15   C27   A    
Cu1   Cu2   S    
C7    C13   A    
C17   C18   A    
C27   C57   S    
C51   N7    T    
C41   N1    A    
C41   Cl4   S    
C12   O3    A    
C53   N9    T    
C24   C47   S    
C22   C24   A    
C16   Cl2   S    
C42   C43   A    
C30   Cl7   S    
C3    C4    A    
C44   C45   A    
Cu1   O1    S    
Cu2   O2    S    
C6    C46   A    
C29   C41   A    
C34   C43   S    
C39   C53   S    
C52   N8    T    
C9    C56   S    
Cu1   O7    S    
C11   C12   S    
Cu2   O4    S    
C6    C7    A    
C29   Cl5   S    
C32   C33   A    
C14   C22   A    
C1    O1    A    
C5    C10   A    
C11   C13   A    
C56   N12   T    
C38   C39   A    
C2    C42   A    
C57   N13   T    
C33   C35   A    
C14   Cl1   S    
C40   Cl6   S    
C10   C11   A    
C42   H1    S    
Cu1   O5    S    
C47   N3    T    
C4    C5    A    
C55   N11   T    
C40   N1    A    
C29   C37   A    
C3    Cl8   S    
C25   C49   S    
C2    C9    A    
C38   C50   S    
