data_mof_unit_49796.cif
_audit_creation_date              2013-03-05T15:42:46-0500
_audit_creation_method            fapswitch 2.2
_symmetry_space_group_name_H-M    P1
_symmetry_Int_Tables_number       1
_space_group_crystal_system       triclinic
_cell_length_a                    9.720068
_cell_length_b                    10.934666
_cell_length_c                    13.456358
_cell_angle_alpha                 90.066565
_cell_angle_beta                  71.603969
_cell_angle_gamma                 89.913571
_cell_volume                      1357.12762563

loop_
_atom_site_label
_atom_site_type_symbol
_atom_site_description
_atom_site_fract_x
_atom_site_fract_y
_atom_site_fract_z
_atom_type_partial_charge
O1    O     O_R   0.382960 0.678040 0.499980 -0.583288
O2    O     O_R   0.617100 0.678080 0.500020 -0.574275
C1    C     C_R   0.500412 0.734560 0.498788 0.853559
O3    O     O_R   0.325800 0.499940 0.650950 -0.581015
O4    O     O_R   0.559930 0.499980 0.650990 -0.586349
C2    C     C_R   0.421482 0.494814 0.700348 0.778356
Cu1   Cu    Cu3+1 0.361370 0.499980 0.499980 0.960726
Cu2   Cu    Cu3+1 0.638630 0.500020 0.500020 0.936999
O5    O     O_R   0.382900 0.321920 0.499980 -0.583473
O6    O     O_R   0.617040 0.321960 0.500020 -0.605770
O7    O     O_R   0.440070 0.500020 0.349010 -0.542326
O8    O     O_R   0.674200 0.500060 0.349050 -0.610158
C3    C     C_R   0.499445 0.265448 0.501239 0.849533
C4    C     C_R   0.578813 0.498232 0.299093 0.794932
C5    C     C_R   0.779189 0.392255 0.021825 -0.175584
H1    H     H_    0.788873 0.310548 0.834594 0.144171
H2    H     H_    0.882200 0.352296 0.976437 0.170427
C6    C     C_R   0.624102 0.482433 0.183581 -0.150853
C7    C     C_R   0.236687 0.543831 0.869704 -0.195836
C8    C     C_R   0.196246 0.562694 0.977084 -0.107022
C9    C     C_R   0.292202 0.535915 0.032026 -0.135780
C10   C     C_R   0.430272 0.484211 0.980683 0.076720
C11   C     C_R   0.464255 0.452794 0.873064 0.088402
C12   C     C_R   0.536743 0.463858 0.031647 0.075263
C13   C     C_R   0.669001 0.405322 0.976395 0.120343
C14   C     C_R   0.691128 0.360818 0.875573 -0.234203
C15   C     C_R   0.589141 0.382030 0.825372 -0.190865
C16   C     C_R   0.517404 0.501707 0.135020 -0.225520
C17   C     C_R   0.760133 0.433440 0.123743 -0.016531
C18   C     C_R   0.372106 0.492616 0.815961 -0.105382
H3    H     H_    0.418760 0.546193 0.180480 0.171238
H4    H     H_    0.163399 0.573082 0.828150 0.152118
H5    H     H_    0.253791 0.555492 0.114674 0.159514
H6    H     H_    0.091468 0.602585 0.017567 0.135588
H7    H     H_    0.609427 0.341138 0.748937 0.167818
C19   C     C_2   0.614001 0.066840 0.497683 -0.152370
C20   C     C_2   0.494909 0.133477 0.506599 -0.308239
H8    H     H_    0.717233 0.111339 0.488149 0.162428
H9    H     H_    0.389262 0.092669 0.520265 0.145884
C21   C     C_2   0.611824 0.932870 0.502360 -0.148872
C22   C     C_2   0.500310 0.866575 0.493632 -0.317050
H10   H     H_    0.706839 0.888054 0.511658 0.166138
H11   H     H_    0.406439 0.907646 0.480207 0.148140
C23   C     C_2   0.061077 0.588516 0.539256 -0.016871
N1    N     N_2   0.152660 0.501340 0.501130 -0.248700
H12   H     H_    0.098962 0.671984 0.565429 0.135554
H13   H     H_    0.111145 0.415899 0.496485 0.199212
C24   C     C_2   0.901660 0.578200 0.551987 -0.044460
N2    N     N_2   0.846520 0.501370 0.501160 -0.247503
H14   H     H_    0.828588 0.639085 0.608080 0.134522
C25   C     C_2   0.886005 0.428878 0.162550 0.340086
H15   H     H_    0.903390 0.502441 0.210788 0.128435
O9    O     O_2   0.974741 0.346044 0.137081 -0.534543
C26   C     C_2   0.934916 0.448546 0.405077 0.553343
H16   H     H_    0.908085 0.358581 0.382737 0.059644
O10   O     O_2   0.033048 0.506194 0.343614 -0.586252

loop_
_geom_bond_atom_site_label_1
_geom_bond_atom_site_label_2
_geom_bond_distance
_ccdc_geom_bond_type
O4    Cu2   1.931667 S    
C23   C24   1.508701 S    
C16   H3    1.076049 S    
C5    H2    1.085619 S    
C11   C15   1.410124 A    
C4    C6    1.485582 S    
C3    C20   1.444994 S    
C7    C8    1.387610 A    
Cu2   O8    1.950190 S    
C8    H6    1.082678 S    
C8    C9    1.391817 A    
C24   H14   1.084653 S    
O2    C1    1.295345 A    
Cu1   Cu2   2.695157 S    
C20   H9    1.081579 S    
C6    C17   1.417224 A    
O1    Cu1   1.958618 S    
C9    C10   1.417624 A    
C23   N1    1.293201 D    
Cu1   O7    1.931668 S    
C22   H11   1.081592 S    
C14   C15   1.383895 A    
O3    Cu1   1.950190 S    
C7    H4    1.083318 S    
Cu1   N1    2.023877 S    
C19   H8    1.086478 S    
C21   C22   1.340407 D    
C2    C18   1.476507 S    
O8    C4    1.305895 A    
C5    C17   1.398557 A    
C10   C12   1.427751 A    
N1    H13   1.027871 S    
H1    C14   1.084406 S    
O4    C2    1.300567 A    
O7    C4    1.303231 A    
C26   O10   1.223241 D    
C5    C13   1.397946 A    
O3    C2    1.303869 A    
C9    H5    1.076663 S    
C25   O9    1.221537 D    
N2    C26   1.427994 S    
C11   C18   1.419976 A    
C12   C16   1.405331 A    
C19   C21   1.466243 S    
C6    C16   1.405139 A    
C12   C13   1.417133 A    
C19   C20   1.339747 D    
C17   C25   1.474864 S    
O2    Cu2   1.957926 S    
Cu1   O5    1.957928 S    
O5    C3    1.294183 A    
C26   H16   1.084288 S    
C24   N2    1.300854 D    
C15   H7    1.080446 S    
C13   C14   1.392015 A    
C10   C11   1.421582 A    
C7    C18   1.401867 A    
Cu2   N2    2.025674 S    
Cu2   O6    1.958618 S    
C1    C22   1.445300 S    
C25   H15   1.079521 S    
C23   H12   1.083877 S    
C21   H10   1.086488 S    
O1    C1    1.294667 A    
O6    C3    1.295747 A    
