data_mof_unit_64808.cif
_audit_creation_date              2012-10-26T18:37:00-0400
_audit_creation_method            fapswitch 2.2
_symmetry_space_group_name_H-M    P1
_symmetry_Int_Tables_number       1
_space_group_crystal_system       triclinic
_cell_length_a                    12.743383
_cell_length_b                    13.903544
_cell_length_c                    19.366802
_cell_angle_alpha                 90.188123
_cell_angle_beta                  93.384017
_cell_angle_gamma                 97.94411
_cell_volume                      3392.29223768

loop_
_atom_site_label
_atom_site_type_symbol
_atom_type_description
_atom_site_fract_x
_atom_site_fract_y
_atom_site_fract_z
_atom_type_partial_charge
C1    C     C_R   0.483565 0.315796 0.499273 0.551782
C2    C     C_2   0.971943 0.526610 0.519607 -0.152252
C3    C     C_1   0.854696 0.519198 0.514055 0.156142
C4    C     C_1   0.145304 0.480802 0.485945 0.156142
C5    C     C_R   0.499994 0.499791 0.367127 0.546988
C6    C     C_R   0.500005 0.500208 0.632873 0.546988
C7    C     C_R   0.402019 0.491667 0.251773 -0.085733
C8    C     C_R   0.597978 0.508296 0.748226 -0.085732
C9    C     C_R   0.399171 0.490437 0.179682 0.243678
C10   C     C_R   0.600828 0.509524 0.820318 0.243679
C11   C     C_R   0.494909 0.497158 0.145706 0.042268
C12   C     C_R   0.516435 0.684204 0.500727 0.551782
C13   C     C_R   0.505093 0.502832 0.854295 0.042266
C14   C     C_R   0.591675 0.503379 0.185299 -0.143226
C15   C     C_R   0.408329 0.496642 0.814701 -0.143225
C16   C     C_R   0.593778 0.504514 0.257314 -0.137299
C17   C     C_R   0.406225 0.495511 0.742687 -0.137302
C18   C     C_R   0.498953 0.498964 0.291129 -0.029434
C19   C     C_R   0.501047 0.501031 0.708871 -0.029435
C20   C     C_R   0.503398 0.502134 0.930215 0.362189
C21   C     C_R   0.496603 0.497853 0.069786 0.362192
C22   C     C_1   0.525841 0.787537 0.501156 0.002168
C23   C     C_1   0.474159 0.212463 0.498844 0.002170
C24   C     C_2   0.543576 0.978401 0.501965 -0.108609
C25   C     C_2   0.456424 0.021598 0.498034 -0.108609
C26   C     C_1   0.465598 0.125411 0.498454 -0.031483
C27   C     C_1   0.534402 0.874589 0.501546 -0.031484
C28   C     C_2   0.028056 0.473390 0.480393 -0.152252
Cl1   Cl    Cl    0.273324 0.474842 0.134955 -0.515821
Cl2   Cl    Cl    0.726675 0.525079 0.865042 -0.515823
Cu1   Cu    Cu3+1 0.395330 0.493960 0.495610 1.013437
Cu2   Cu    Cu3+1 0.604670 0.506040 0.504390 1.013437
H1    H     H_    0.327777 0.486032 0.276970 0.171732
H2    H     H_    0.985467 0.422233 0.442616 0.137708
H3    H     H_    0.672218 0.513908 0.723029 0.171734
H4    H     H_    0.666191 0.508659 0.160449 0.162276
H5    H     H_    0.333816 0.491385 0.839551 0.162283
H6    H     H_    0.669618 0.509920 0.286428 0.153734
H7    H     H_    0.330388 0.490131 0.713573 0.153735
H8    H     H_    0.377884 0.979311 0.494488 0.145726
H9    H     H_    0.622115 0.020688 0.505512 0.145727
H10   H     H_    0.014533 0.577767 0.557384 0.137707
N1    N     N_R   0.571756 0.456960 0.037887 -0.205359
N2    N     N_R   0.428245 0.543027 0.962114 -0.205373
N3    N     N_R   0.574716 0.458651 0.969374 -0.129142
N4    N     N_R   0.425284 0.541336 0.030627 -0.129158
N5    N     N_1   0.238030 0.484880 0.489000 -0.182472
N6    N     N_1   0.761970 0.515120 0.511000 -0.182472
O1    O     O_R   0.399110 0.356330 0.495750 -0.486735
O2    O     O_R   0.600890 0.643670 0.504250 -0.486735
O3    O     O_R   0.575900 0.366540 0.503170 -0.488621
O4    O     O_R   0.424100 0.633460 0.496830 -0.488621
O5    O     O_R   0.411580 0.494880 0.396430 -0.497948
O6    O     O_R   0.588420 0.505120 0.603570 -0.497949
O7    O     O_R   0.588360 0.505090 0.403850 -0.495684
O8    O     O_R   0.411640 0.494910 0.596150 -0.495683

loop_
_geom_bond_atom_site_label_1
_geom_bond_atom_site_label_2
_ccdc_geom_bond_type
C12   O2    A    
C10   C13   A    
Cu2   O3    S    
C24   H9    S    
Cu1   O8    S    
C1    O3    A    
C11   C21   S    
C10   Cl2   S    
Cu2   O7    S    
Cu1   Cu2   S    
C24   C27   S    
C9    Cl1   S    
Cu1   O4    S    
C9    C11   A    
C7    C18   A    
C2    C3    S    
C28   H2    S    
Cu1   N5    S    
Cu1   O5    S    
C6    O8    A    
C6    C19   S    
N1    N3    A    
Cu2   O2    S    
Cu2   N6    S    
C2    H10   S    
Cu2   O6    S    
C12   O4    A    
Cu1   O1    S    
C1    C23   S    
C7    C9    A    
C22   C27   T    
C13   C15   A    
C25   H8    S    
C14   H4    S    
C11   C14   A    
C14   C16   A    
C8    C19   A    
C7    H1    S    
C17   C19   A    
C12   C22   S    
C3    N6    T    
C24   C25   D    
C16   C18   A    
C21   N4    A    
C4    C28   S    
C23   C26   T    
C5    O5    A    
C15   C17   A    
C17   H7    S    
C4    N5    T    
C2    C28   D    
C5    C18   S    
N2    N4    A    
C13   C20   S    
C20   N2    A    
C25   C26   S    
C21   N1    A    
C6    O6    A    
C1    O1    A    
C5    O7    A    
C8    C10   A    
C15   H5    S    
C20   N3    A    
C16   H6    S    
C8    H3    S    
