data_mof_unit_24611.cif
_audit_creation_date              2012-12-11T15:07:36-0500
_audit_creation_method            fapswitch 2.2
_symmetry_space_group_name_H-M    P1
_symmetry_Int_Tables_number       1
_space_group_crystal_system       triclinic
_cell_length_a                    21.614298
_cell_length_b                    7.19759
_cell_length_c                    18.890254
_cell_angle_alpha                 90.0
_cell_angle_beta                  96.049459
_cell_angle_gamma                 89.999987
_cell_volume                      2922.40780459

loop_
_atom_site_label
_atom_site_type_symbol
_atom_type_description
_atom_site_fract_x
_atom_site_fract_y
_atom_site_fract_z
_atom_type_partial_charge
O1    O     O_R   0.449650 0.506500 0.414480 -0.536592
O2    O     O_R   0.550350 0.006500 0.585520 -0.536592
O3    O     O_R   0.432010 0.173150 0.560250 -0.530216
O4    O     O_R   0.567990 0.673150 0.439750 -0.530216
C1    C     C_R   0.415405 0.345365 0.580379 0.688140
C2    C     C_R   0.584595 0.845364 0.419621 0.688140
O5    O     O_R   0.442320 0.176650 0.413480 -0.524473
O6    O     O_R   0.557680 0.676650 0.586520 -0.524473
O7    O     O_R   0.560730 0.008380 0.437700 -0.529010
O8    O     O_R   0.439270 0.508380 0.562300 -0.529011
C3    C     C_R   0.427701 0.344398 0.387292 0.699791
C4    C     C_R   0.572299 0.844398 0.612708 0.699790
O9    O     O_3   0.538840 0.339860 0.508120 -0.354193
O10   O     O_3   0.461160 0.839860 0.491880 -0.354193
V1    V     V_3+5 0.492800 0.064220 0.498490 1.573114
V2    V     V_3+5 0.507200 0.564220 0.501510 1.573115
C5    C     C_R   0.866370 0.070529 0.701811 -0.156615
C6    C     C_R   0.133630 0.570524 0.298190 -0.156614
H1    H     H_    0.954694 0.088615 0.763804 0.118574
H2    H     H_    0.045305 0.588609 0.236196 0.118574
H3    H     H_    0.884206 0.148395 0.659495 0.134028
H4    H     H_    0.115793 0.648386 0.340506 0.134028
C7    C     C_R   0.887437 0.946332 0.820441 -0.038551
C8    C     C_R   0.112563 0.446331 0.179558 -0.038549
C9    C     C_R   0.595007 0.715300 0.735949 -0.090292
C10   C     C_R   0.404994 0.215302 0.264051 -0.090291
C11   C     C_R   0.637332 0.661616 0.794144 0.291256
C12   C     C_R   0.362670 0.161622 0.205854 0.291249
C13   C     C_R   0.698560 0.724104 0.799209 -0.160501
C14   C     C_R   0.301441 0.224112 0.200789 -0.160502
C15   C     C_R   0.719279 0.849464 0.749782 0.015171
C16   C     C_R   0.280721 0.349467 0.250217 0.015171
C17   C     C_R   0.675626 0.913208 0.692482 -0.051798
C18   C     C_R   0.324374 0.413209 0.307518 -0.051798
C19   C     C_R   0.782699 0.912194 0.755715 0.054783
C20   C     C_R   0.217301 0.412195 0.244284 0.054783
C21   C     C_R   0.803339 0.017011 0.698954 0.060976
C22   C     C_R   0.196661 0.517008 0.301046 0.060975
C23   C     C_R   0.759776 0.079257 0.643119 0.215987
C24   C     C_R   0.240224 0.579253 0.356882 0.215987
C25   C     C_R   0.696104 0.050069 0.647040 -0.119097
C26   C     C_R   0.303896 0.550067 0.352961 -0.119096
C27   C     C_R   0.825978 0.879867 0.816986 -0.197819
C28   C     C_R   0.174022 0.379869 0.183013 -0.197819
C29   C     C_R   0.907493 0.036414 0.761815 -0.154274
C30   C     C_R   0.092506 0.536410 0.238185 -0.154275
C31   C     C_R   0.613333 0.838516 0.683011 -0.147206
C32   C     C_R   0.386667 0.338517 0.316989 -0.147207
H5    H     H_    0.812177 0.816545 0.864624 0.094130
H6    H     H_    0.187824 0.316549 0.135375 0.094130
H7    H     H_    0.729738 0.666343 0.841862 0.129792
H8    H     H_    0.270264 0.166356 0.158134 0.129795
C33   C     C_R   0.641419 0.726729 0.316821 -0.084206
C34   C     C_R   0.358581 0.226730 0.683179 -0.084206
C35   C     C_R   0.635560 0.860605 0.370880 -0.134396
C36   C     C_R   0.364440 0.360605 0.629120 -0.134396
C37   C     C_R   0.676896 0.015496 0.375652 -0.095846
C38   C     C_R   0.323104 0.515496 0.624348 -0.095847
C39   C     C_R   0.725028 0.029544 0.330364 0.041104
C40   C     C_R   0.274972 0.529544 0.669636 0.041104
C41   C     C_R   0.730437 0.895932 0.277025 0.063455
C42   C     C_R   0.269563 0.395933 0.722975 0.063456
C43   C     C_R   0.688203 0.744690 0.269720 0.052529
C44   C     C_R   0.311797 0.244691 0.730280 0.052529
C45   C     C_R   0.768629 0.174845 0.338196 -0.233713
C46   C     C_R   0.231370 0.674845 0.661804 -0.233713
C47   C     C_R   0.817834 0.187795 0.296341 -0.031288
C48   C     C_R   0.182165 0.687795 0.703659 -0.031290
C49   C     C_R   0.821863 0.062896 0.238352 -0.009273
C50   C     C_R   0.178137 0.562896 0.761648 -0.009273
C51   C     C_R   0.777481 0.915316 0.229830 0.029522
C52   C     C_R   0.222519 0.415317 0.770170 0.029522
C53   C     C_R   0.779926 0.785316 0.174185 0.108933
C54   C     C_R   0.220074 0.285316 0.825815 0.108933
C55   C     C_R   0.738017 0.636738 0.167271 -0.187106
C56   C     C_R   0.261983 0.136740 0.832729 -0.187108
C57   C     C_R   0.693405 0.615253 0.214596 -0.171638
C58   C     C_R   0.306595 0.115254 0.785404 -0.171638
C59   C     C_R   0.867313 0.077830 0.188230 0.220297
C60   C     C_R   0.132687 0.577830 0.811770 0.220296
C61   C     C_R   0.868390 0.945584 0.132667 -0.099825
C62   C     C_R   0.131610 0.445584 0.867333 -0.099826
C63   C     C_R   0.824492 0.802715 0.126173 -0.305640
C64   C     C_R   0.175508 0.302715 0.873827 -0.305638
H9    H     H_    0.765915 0.279169 0.379068 0.138366
H10   H     H_    0.234085 0.779169 0.620931 0.138366
H11   H     H_    0.825157 0.703365 0.083088 0.131723
H12   H     H_    0.174843 0.203366 0.916912 0.131724
H13   H     H_    0.740078 0.535075 0.125234 0.123815
H14   H     H_    0.259923 0.035076 0.874766 0.123817
H15   H     H_    0.662686 0.496552 0.207017 0.142044
H16   H     H_    0.337315 0.996554 0.792983 0.142045
O11   O     O_R   0.060820 0.290050 0.937800 -0.551260
O12   O     O_R   0.939180 0.790050 0.062200 -0.551260
O13   O     O_R   0.057690 0.616620 0.086540 -0.540965
O14   O     O_R   0.942310 0.116620 0.913460 -0.540965
C65   C     C_R   0.071416 0.448872 0.112193 0.685511
C66   C     C_R   0.928584 0.948872 0.887807 0.685513
O15   O     O_R   0.068010 0.619890 0.939770 -0.521919
O16   O     O_R   0.931990 0.119890 0.060230 -0.521919
O17   O     O_R   0.949640 0.787940 0.914460 -0.528827
O18   O     O_R   0.050360 0.287940 0.085540 -0.528827
C67   C     C_R   0.083515 0.452099 0.918337 0.736777
C68   C     C_R   0.916485 0.952099 0.081663 0.736778
O19   O     O_3   0.961210 0.453080 0.991940 -0.379072
O20   O     O_3   0.038790 0.953080 0.008060 -0.379072
V3    V     V_3+5 0.007200 0.728820 0.001500 1.408837
V4    V     V_3+5 0.992800 0.228820 0.998500 1.408837
C69   C     C_1   0.670084 0.164041 0.426219 0.324085
N1    N     N_1   0.665136 0.284681 0.465678 -0.306743
C70   C     C_1   0.329916 0.664041 0.573781 0.324087
N2    N     N_1   0.334864 0.784681 0.534322 -0.306743
C71   C     C_1   0.863501 0.328225 0.318864 0.298205
N3    N     N_1   0.899625 0.441231 0.337862 -0.365901
C72   C     C_1   0.136499 0.828225 0.681136 0.298205
N4    N     N_1   0.100374 0.941230 0.662138 -0.365900
N5    N     N_2   0.913530 0.219600 0.193039 -0.528661
H17   H     H_    0.943564 0.223141 0.239094 0.259952
C73   C     C_3   0.894499 0.397332 0.162031 -0.421598
H18   H     H_    0.935727 0.489052 0.161586 0.185315
H19   H     H_    0.860218 0.465424 0.192889 0.186954
H20   H     H_    0.872698 0.380026 0.106568 0.191720
N6    N     N_2   0.086470 0.719601 0.806961 -0.528661
H21   H     H_    0.056436 0.723140 0.760906 0.259952
C74   C     C_3   0.105501 0.897333 0.837968 -0.421597
H22   H     H_    0.064274 0.989059 0.838408 0.185313
H23   H     H_    0.139786 0.965417 0.807112 0.186952
H24   H     H_    0.127299 0.880030 0.893433 0.191724
N7    N     N_2   0.778235 0.192533 0.587163 -0.511015
H25   H     H_    0.804065 0.307788 0.603938 0.256905
C75   C     C_3   0.803668 0.089424 0.531161 -0.507554
H26   H     H_    0.815888 0.186906 0.489430 0.198749
H27   H     H_    0.769052 0.987466 0.507135 0.202289
H28   H     H_    0.846442 0.013453 0.551959 0.189131
N8    N     N_2   0.221764 0.692525 0.412838 -0.511015
H29   H     H_    0.195933 0.807780 0.396064 0.256905
C76   C     C_3   0.196332 0.589412 0.468839 -0.507554
H30   H     H_    0.184112 0.686891 0.510571 0.198749
H31   H     H_    0.230949 0.487456 0.492865 0.202289
H32   H     H_    0.153558 0.513439 0.448041 0.189132
C77   C     C_1   0.532817 0.637384 0.730193 0.348142
N9    N     N_1   0.483479 0.573197 0.726099 -0.349174
C78   C     C_1   0.467183 0.137383 0.269807 0.348144
N10   N     N_1   0.516521 0.073195 0.273901 -0.349174
N11   N     N_2   0.620432 0.533556 0.846511 -0.524514
H33   H     H_    0.585817 0.440007 0.829879 0.264343
C79   C     C_3   0.612756 0.615946 0.914865 -0.538408
H34   H     H_    0.602755 0.505366 0.953041 0.200353
H35   H     H_    0.573325 0.715840 0.909547 0.200134
H36   H     H_    0.655958 0.688790 0.936591 0.199663
N12   N     N_2   0.379570 0.033567 0.153487 -0.524515
H37   H     H_    0.414178 0.940001 0.170121 0.264342
C80   C     C_3   0.387261 0.115972 0.085139 -0.538403
H38   H     H_    0.397259 0.005398 0.046959 0.200354
H39   H     H_    0.426699 0.215841 0.090469 0.200132
H40   H     H_    0.344066 0.188851 0.063410 0.199667
C81   C     C_1   0.656835 0.208081 0.629327 0.382119
N13   N     N_1   0.626794 0.339487 0.617915 -0.304250
C82   C     C_1   0.343164 0.708080 0.370674 0.382116
N14   N     N_1   0.373205 0.839486 0.382086 -0.304250
C83   C     C_1   0.596385 0.577984 0.306200 0.328752
N15   N     N_1   0.560235 0.459713 0.297636 -0.352045
C84   C     C_1   0.403615 0.077986 0.693801 0.328752
N16   N     N_1   0.439766 0.959715 0.702364 -0.352043

loop_
_geom_bond_atom_site_label_1
_geom_bond_atom_site_label_2
_ccdc_geom_bond_type
O17   V3    S    
C63   H11   S    
C81   N13   T    
C7    C29   A    
C11   C13   A    
C1    C36   S    
C46   C48   A    
C84   N16   T    
O1    C3    A    
C2    C35   S    
C75   H28   S    
O2    C4    A    
O11   C67   A    
C2    O7    A    
C83   N15   T    
N6    H21   S    
C23   C25   A    
C75   H27   S    
O5    C3    A    
C76   H31   S    
C54   C56   A    
C16   C20   A    
C79   H35   S    
C56   C58   A    
C71   N3    T    
N5    C73   S    
O11   V4    S    
C43   C57   A    
C37   C39   A    
O20   V3    S    
C38   C40   A    
C72   N4    T    
O16   C68   A    
C7    C27   A    
C40   C42   A    
C49   C51   A    
C42   C44   A    
C79   H34   S    
C61   C63   A    
C62   C67   S    
C77   N9    T    
C37   C69   S    
C26   C82   S    
C45   C47   A    
C18   C26   A    
C74   H24   S    
N12   H37   S    
C15   C17   A    
O18   V4    S    
C34   C84   S    
C80   H39   S    
C19   C27   A    
C9    C31   A    
C65   O18   A    
C20   C28   A    
C10   C32   A    
C41   C51   A    
C24   C26   A    
O14   V4    S    
C40   C46   A    
O6    V2    S    
C22   C24   A    
C53   C55   A    
C3    C32   S    
C4    C31   S    
C6    C30   A    
C11   N11   S    
N11   C79   S    
N11   H33   S    
C73   H19   S    
C24   N8    S    
C34   C36   A    
O12   V3    S    
O16   V4    S    
C39   C41   A    
C50   C60   A    
C38   C70   S    
N8    H29   S    
C79   H36   S    
C60   C62   A    
O15   C67   A    
C54   C64   A    
C51   C53   A    
C27   H5    S    
O5    V1    S    
C23   N7    S    
C58   H16   S    
C6    C22   A    
C5    H3    S    
C8    C65   S    
O14   C66   A    
C47   C49   A    
C16   C18   A    
O4    V2    S    
C82   N14   T    
O6    C4    A    
O13   C65   A    
C42   C52   A    
O1    V2    S    
C5    C21   A    
O19   V4    S    
C80   H40   S    
O2    V1    S    
C55   C57   A    
O13   V3    S    
C25   C81   S    
C52   C54   A    
C62   C64   A    
C35   C37   A    
C74   H22   S    
C17   C31   A    
C15   C19   A    
C49   C59   A    
O4    C2    A    
C18   C32   A    
C33   C35   A    
C10   C78   S    
O3    V1    S    
C59   C61   A    
N7    H25   S    
C13   H7    S    
C73   H20   S    
C28   H6    S    
N8    C76   S    
C14   H8    S    
C57   H15   S    
C70   N2    T    
C19   C21   A    
C6    H4    S    
C44   C58   A    
C41   C43   A    
C9    C77   S    
C64   H12   S    
C5    C29   A    
O3    C1    A    
C46   H10   S    
C73   H18   S    
H1    C29   S    
C45   H9    S    
C61   C68   S    
C9    C11   A    
C66   O17   A    
O15   V3    S    
C76   H30   S    
C10   C12   A    
C8    C30   A    
C12   C14   A    
C78   N10   T    
O7    V1    S    
C17   C25   A    
C1    O8    A    
C21   C23   A    
O8    V2    S    
N5    H17   S    
C39   C45   A    
C14   C16   A    
C33   C43   A    
C33   C83   S    
C34   C44   A    
C8    C28   A    
C76   H32   S    
C59   N5    S    
C20   C22   A    
C36   C38   A    
N12   C80   S    
C47   C71   S    
N6    C74   S    
C55   H13   S    
C48   C72   S    
O12   C68   A    
C7    C66   S    
C12   N12   S    
C13   C15   A    
O9    V2    S    
C74   H23   S    
C48   C50   A    
O10   V1    S    
C50   C52   A    
C80   H38   S    
C69   N1    T    
C53   C63   A    
H2    C30   S    
C75   H26   S    
C56   H14   S    
N7    C75   S    
C60   N6    S    
