data_mof_unit_15560.cif
_audit_creation_date              2012-12-11T20:00:40-0500
_audit_creation_method            fapswitch 2.2
_symmetry_space_group_name_H-M    P1
_symmetry_Int_Tables_number       1
_space_group_crystal_system       triclinic
_cell_length_a                    8.240104
_cell_length_b                    16.216544
_cell_length_c                    26.979337
_cell_angle_alpha                 72.830544
_cell_angle_beta                  96.611797
_cell_angle_gamma                 95.96888
_cell_volume                      3412.25338378

loop_
_atom_site_label
_atom_site_type_symbol
_atom_type_description
_atom_site_fract_x
_atom_site_fract_y
_atom_site_fract_z
_atom_type_partial_charge
Ba1   Ba    Ba6+2 0.337820 0.939830 0.518500 1.662484
Ba2   Ba    Ba6+2 0.851970 0.060110 0.481480 1.645774
C1    C     C_3   0.104187 0.521869 0.619266 -0.175638
C2    C     C_R   0.455385 0.394743 0.189072 0.573042
C3    C     C_2   0.283953 0.277918 0.279211 -0.084507
C4    C     C_3   0.611592 0.595345 0.615531 0.285891
C5    C     C_3   0.276408 0.247841 0.337428 -0.047470
C6    C     C_1   0.474711 0.143200 0.341133 0.033696
C7    C     C_2   0.512923 0.186019 0.292802 -0.102931
C8    C     C_2   0.409825 0.256684 0.258268 0.196805
C9    C     C_R   0.522727 0.399091 0.102417 -0.083689
C10   C     C_R   0.513598 0.307904 0.118338 -0.029952
C11   C     C_R   0.536660 0.265077 0.081859 -0.087962
C12   C     C_3   0.088200 0.619023 0.608190 0.444910
C13   C     C_R   0.493115 0.442419 0.138203 -0.025941
C14   C     C_2   0.358777 0.165681 0.363633 -0.287170
C15   C     C_2   0.836606 0.837344 0.637208 -0.271235
C16   C     C_3   0.578661 0.527597 0.666510 -0.306697
C17   C     C_R   0.637027 0.451396 0.963844 -0.038240
C18   C     C_R   0.580763 0.586050 0.981447 -0.017034
C19   C     C_R   0.622271 0.542645 0.946569 -0.002746
C20   C     C_R   0.698922 0.413265 0.929075 0.381001
C21   C     C_R   0.715098 0.460471 0.877238 -0.088845
C22   C     C_R   0.694726 0.549286 0.859359 -0.074853
C23   C     C_3   0.077967 0.016467 0.646711 0.320361
C24   C     C_R   0.652300 0.591302 0.894192 -0.144770
C25   C     C_R   0.638310 0.681695 0.876391 -0.079696
C26   C     C_R   0.680512 0.728903 0.825333 0.598972
C27   C     C_R   0.721658 0.596935 0.807518 0.610240
C28   C     C_3   0.599978 0.885070 0.389247 0.312633
C29   C     C_2   0.891946 0.715304 0.717921 -0.108564
C30   C     C_3   0.908892 0.751482 0.660210 -0.035739
C31   C     C_1   0.713260 0.856211 0.658159 0.038831
C32   C     C_2   0.666280 0.809159 0.704607 -0.071017
C33   C     C_2   0.763749 0.735632 0.738449 0.184596
C34   C     C_3   0.077894 0.978536 0.705381 -0.363704
C35   C     C_R   0.592768 0.402826 0.014971 0.021286
C36   C     C_R   0.559102 0.447068 0.050483 0.047664
C37   C     C_R   0.558523 0.538777 0.034391 0.037563
C38   C     C_R   0.572554 0.311190 0.031351 -0.109303
C39   C     C_R   0.502001 0.533067 0.122587 -0.062747
C40   C     C_3   0.575368 0.812866 0.363117 -0.380883
C41   C     C_R   0.558983 0.675590 0.961778 -0.152165
C42   C     C_R   0.580658 0.722283 0.909919 0.442111
C43   C     C_R   0.534257 0.580127 0.072100 -0.107645
C44   C     C_2   0.401369 0.245875 0.513068 -0.300610
C45   C     C_3   0.652810 0.359668 0.368567 0.338592
C46   C     C_R   0.802068 0.759558 0.490212 -0.290088
C47   C     C_2   0.253374 0.313350 0.563144 -0.115432
C48   C     C_2   0.268689 0.245760 0.545398 0.057931
C49   C     C_2   0.508733 0.314357 0.499466 0.005466
C50   C     C_3   0.465736 0.399615 0.504540 -0.048830
C51   C     C_3   0.376681 0.390017 0.553012 0.005452
C52   C     C_3   0.597512 0.115190 0.610667 0.360929
C53   C     C_2   0.605308 0.466235 0.501356 -0.059011
C54   C     C_2   0.573030 0.549108 0.484024 -0.088960
C55   C     C_R   0.840895 0.617589 0.455382 0.006214
C56   C     C_3   0.677570 0.433059 0.319138 -0.308279
C57   C     C_R   0.702648 0.618720 0.480833 -0.041963
C58   C     C_R   0.955613 0.688500 0.445592 -0.136940
C59   C     C_R   0.932750 0.760694 0.461549 0.074922
C60   C     C_R   0.683045 0.690401 0.498261 -0.025428
C61   C     C_3   0.611611 0.187293 0.636965 0.277375
C62   C     C_3   0.114736 0.990663 0.357560 0.299662
C63   C     C_3   0.107909 0.027134 0.298615 -0.360724
C64   C     C_3   0.486289 0.243578 0.690859 0.283637
C65   C     C_3   0.333429 0.233649 0.719872 -0.177844
C66   C     C_3   0.328992 0.307714 0.743719 -0.471942
C67   C     C_3   0.131395 0.379687 0.394775 0.355571
C68   C     C_2   0.009843 0.469115 0.663838 0.839305
C69   C     C_3   0.912221 0.332353 0.971171 0.254836
C70   C     C_3   0.043825 0.352814 0.932574 -0.199228
C71   C     C_3   0.215014 0.345920 0.960859 -0.482003
C72   C     C_3   0.378860 0.818131 0.887447 0.291621
C73   C     C_3   0.295304 0.800058 0.837404 -0.218006
C74   C     C_3   0.112043 0.811411 0.831915 -0.452550
C75   C     C_3   0.119333 0.475708 0.387130 -0.368429
C76   C     C_R   0.476590 0.261387 0.169847 0.597298
H1    H     H_    0.135872 0.652722 0.569928 0.069213
H2    H     H_    0.046474 0.032158 0.372747 0.077578
H3    H     H_    0.056849 0.502438 0.583748 0.020538
H4    H     H_    0.182117 0.989491 0.282437 0.134760
H5    H     H_    0.156985 0.095745 0.287774 0.071018
H6    H     H_    0.979081 0.023737 0.281464 0.132617
H7    H     H_    0.956070 0.629972 0.605111 -0.215523
H8    H     H_    0.949636 0.016036 0.629190 -0.006625
H9    H     H_    0.148342 0.975235 0.631938 0.069420
H10   H     H_    0.005492 0.017395 0.721274 0.128455
H11   H     H_    0.022398 0.911086 0.714683 0.058400
H12   H     H_    0.652352 0.828510 0.329890 0.130492
H13   H     H_    0.205411 0.978323 0.723968 0.137754
H14   H     H_    0.234495 0.507267 0.628093 0.083642
H15   H     H_    0.695780 0.512808 0.690798 0.153139
H16   H     H_    0.711777 0.302777 0.365780 0.095191
H17   H     H_    0.519597 0.343398 0.371349 -0.051199
H18   H     H_    0.802266 0.465729 0.320888 0.142195
H19   H     H_    0.664177 0.406417 0.285418 0.123452
H20   H     H_    0.586256 0.481494 0.313636 0.121100
H21   H     H_    0.261549 0.370258 0.392152 -0.058730
H22   H     H_    0.095832 0.343499 0.434348 0.071760
H23   H     H_    0.610147 0.750925 0.391049 0.059090
H24   H     H_    0.207750 0.497655 0.415775 0.067803
H25   H     H_    0.994312 0.488122 0.393178 0.149861
H26   H     H_    0.676675 0.653248 0.624571 0.009016
H27   H     H_    0.148655 0.513429 0.347201 0.120869
H28   H     H_    0.620267 0.170875 0.278296 0.127032
H29   H     H_    0.523800 0.195057 0.091923 0.125340
H30   H     H_    0.970699 0.665483 0.740829 0.130256
H31   H     H_    0.755159 0.427563 0.851685 0.139985
H32   H     H_    0.574182 0.272721 0.005092 0.146842
H33   H     H_    0.202812 0.326274 0.255934 0.115838
H34   H     H_    0.444618 0.805006 0.348614 0.126164
H35   H     H_    0.483335 0.568555 0.149529 0.122552
H36   H     H_    0.519662 0.711679 0.985336 0.078141
H37   H     H_    0.689059 0.567340 0.594413 0.024046
H38   H     H_    0.556490 0.823450 0.718200 0.128182
H39   H     H_    0.542259 0.649422 0.064241 0.072732
H40   H     H_    0.344095 0.136235 0.404717 0.081200
H41   H     H_    0.870861 0.876496 0.599226 0.070311
H42   H     H_    0.160238 0.310062 0.589170 0.079958
H43   H     H_    0.057530 0.688548 0.423622 0.092416
H44   H     H_    0.419534 0.186374 0.504480 0.062107
H45   H     H_    0.470955 0.107814 0.593207 -0.015312
H46   H     H_    0.786224 0.815653 0.502612 0.069207
H47   H     H_    0.728814 0.447990 0.516044 0.109754
H48   H     H_    0.496410 0.551819 0.688095 0.163325
H49   H     H_    0.447031 0.565866 0.473046 0.100934
H50   H     H_    0.520926 0.467308 0.658601 0.086913
H51   H     H_    0.730728 0.893324 0.402568 0.002297
H52   H     H_    0.524758 0.867175 0.422957 0.062335
H53   H     H_    0.488445 0.307324 0.660462 0.034473
H54   H     H_    0.597012 0.241724 0.718943 0.043793
H55   H     H_    0.222265 0.232597 0.692406 0.141720
H56   H     H_    0.683059 0.132676 0.579763 -0.002815
H57   H     H_    0.331585 0.171267 0.751296 0.135153
H58   H     H_    0.439942 0.311002 0.770874 0.144688
H59   H     H_    0.219001 0.297099 0.765673 0.165211
H60   H     H_    0.322128 0.370164 0.712647 0.145562
H61   H     H_    0.831112 0.375773 0.688451 0.296393
H62   H     H_    0.927787 0.266746 0.998447 0.084074
H63   H     H_    0.930083 0.378004 0.995593 0.028238
H64   H     H_    0.024376 0.306896 0.908572 0.142788
H65   H     H_    0.035350 0.419627 0.906264 0.114533
H66   H     H_    0.237414 0.392381 0.984456 0.138503
H67   H     H_    0.608399 0.250360 0.606162 -0.051008
H68   H     H_    0.307514 0.361445 0.931964 0.153605
H69   H     H_    0.229130 0.279186 0.986746 0.139463
H70   H     H_    0.361650 0.886174 0.885308 0.082087
H71   H     H_    0.317239 0.777010 0.921952 0.005684
H72   H     H_    0.351526 0.845036 0.803042 0.160819
H73   H     H_    0.312077 0.732643 0.838064 0.102577
H74   H     H_    0.053167 0.766854 0.865847 0.141247
H75   H     H_    0.054942 0.795978 0.796161 0.149621
H76   H     H_    0.090284 0.879223 0.828952 0.153114
H77   H     H_    0.731478 0.185846 0.660877 0.038612
H78   H     H_    0.244038 0.991769 0.373808 0.010195
N1    N     N_R   0.448449 0.304703 0.205019 -0.422284
N2    N     N_R   0.721006 0.686582 0.791161 -0.427857
O1    O     O_2   0.431310 0.922990 0.623550 -0.453664
O2    O     O_2   0.846806 0.306745 0.504665 -0.485036
O3    O     O_3   0.724040 0.386053 0.411676 -0.602984
O4    O     O_3   0.663280 0.983100 0.563360 -0.500085
O5    O     O_3   0.016420 0.932050 0.462720 -0.493422
O6    O     O_2   0.959730 0.164640 0.549160 -0.463186
O7    O     O_3   0.149860 0.101361 0.635571 -0.612028
O8    O     O_2   0.929238 0.212605 0.327420 -0.496820
O9    O     O_3   0.026409 0.352518 0.356567 -0.596201
O10   O     O_2   0.466763 0.182327 0.182931 -0.595733
O11   O     O_2   0.745135 0.558050 0.776826 -0.605889
O12   O     O_3   0.044599 0.905423 0.370031 -0.633735
O13   O     O_2   0.428858 0.434021 0.219236 -0.622771
O14   O     O_2   0.685109 0.807845 0.811871 -0.558607
O15   O     O_3   0.126250 0.812630 0.574830 -0.484276
O16   O     O_2   0.250168 0.795808 0.673033 -0.491567
O17   O     O_3   0.636129 0.037977 0.647978 -0.631356
O18   O     O_3   0.179523 0.650435 0.647264 -0.564139
O19   O     O_2   0.229950 0.835370 0.450810 -0.459592
O20   O     O_3   0.517580 0.797570 0.545130 -0.468460
O21   O     O_2   0.344698 0.696444 0.493001 -0.496277
O22   O     O_3   0.480374 0.174900 0.668372 -0.627888
O23   O     O_3   0.462360 0.616432 0.586080 -0.588150
O24   O     O_2   0.044444 0.478274 0.707302 -0.583495
O25   O     O_R   0.884455 0.408376 0.655486 -0.787384
O26   O     O_3   0.753430 0.330923 0.944818 -0.667306
O27   O     O_3   0.549893 0.809150 0.892463 -0.603373
O28   O     O_2   0.758370 0.077020 0.376420 -0.460813
O29   O     O_3   0.526390 0.016840 0.436620 -0.500725
O30   O     O_3   0.063420 0.187310 0.425160 -0.476349
O31   O     O_3   0.552423 0.961297 0.352628 -0.624911
O32   O     O_3   0.173250 0.067890 0.537260 -0.485024
O33   O     O_3   0.672100 0.202370 0.454860 -0.492031
P1    P     P_3+3 0.610630 0.953360 0.619150 0.997377
P2    P     P_3+3 0.057260 0.861390 0.437850 0.982948
P3    P     P_3+3 0.501920 0.699614 0.529713 0.952017
P4    P     P_3+3 0.579040 0.046590 0.380840 0.989074
P5    P     P_3+3 0.688917 0.302282 0.468269 0.945557
P6    P     P_3+3 0.118924 0.753899 0.640310 0.986969
P7    P     P_3+3 0.142363 0.145548 0.567932 0.970810
P8    P     P_3+3 0.071241 0.247711 0.360201 0.943236

loop_
_geom_bond_atom_site_label_1
_geom_bond_atom_site_label_2
_ccdc_geom_bond_type
C34   H11   S    
C70   H65   S    
C53   C54   D    
C2    O13   D    
C29   H30   S    
C67   C75   S    
C56   H20   S    
O18   P6    S    
C11   H29   S    
Ba2   O4    S    
O4    P1    S    
C48   P7    S    
C34   H10   S    
C70   H64   S    
O20   P3    S    
Ba1   O15   S    
C24   C25   A    
C35   C36   A    
O19   P2    D    
C71   H69   S    
C31   P1    S    
C72   H70   S    
C17   C19   A    
C22   C24   A    
C66   H60   S    
C32   C33   S    
C35   C38   A    
C49   P5    S    
C41   H36   S    
C36   C37   A    
C63   H5    S    
C47   H42   S    
C52   C61   S    
C74   H74   S    
C73   H72   S    
C32   H38   S    
C52   H56   S    
C45   H17   S    
C74   H75   S    
C23   H9    S    
C6    P4    S    
Ba2   P4    S    
C28   O31   S    
C56   H18   S    
Ba2   O29   S    
C11   C38   A    
C12   O18   S    
C17   C35   A    
C16   H50   S    
O33   P5    S    
Ba1   O19   S    
C25   C42   A    
C26   O14   D    
C53   H47   S    
O6    P7    D    
C6    C7    D    
O16   P6    D    
C10   C76   A    
C1    H3    S    
C20   O26   S    
C21   C22   A    
C72   H71   S    
C4    H26   S    
C7    C8    S    
C50   C53   S    
C42   O27   S    
C37   C43   A    
C72   O27   S    
O29   P4    S    
Ba1   O32   S    
C71   H66   S    
C64   C65   S    
C6    C14   D    
C62   O12   S    
C62   H2    S    
C75   H24   S    
C56   H19   S    
C15   C31   D    
C21   H31   S    
O1    P1    D    
C19   C24   A    
C68   O24   D    
C64   H54   S    
Ba1   O29   S    
C4    C16   S    
C66   H59   S    
C72   C73   S    
O8    P8    D    
C4    O23   S    
O15   P6    S    
C49   C50   S    
O28   P4    D    
C66   H58   S    
C1    C68   S    
Ba2   O33   S    
C13   C39   A    
Ba2   O6    S    
O17   P1    S    
C3    C5    S    
C18   C37   A    
C63   H6    S    
C38   H32   S    
C3    H33   S    
C40   H34   S    
C23   O7    S    
C7    H28   S    
C28   H52   S    
C64   O22   S    
C44   C49   D    
C54   H49   S    
C61   O22   S    
C65   C66   S    
O3    P5    S    
C1    H14   S    
C40   H12   S    
C52   O17   S    
C9    C36   A    
C65   H57   S    
C73   C74   S    
Ba2   O28   S    
C30   P6    S    
C14   H40   S    
Ba1   O20   S    
O31   P4    S    
C76   N1    Am   
C46   C60   A    
C2    N1    Am   
Ba1   O1    S    
C17   C20   A    
C26   N2    Am   
C31   C32   D    
Ba1   P2    S    
C12   H1    S    
C10   C11   A    
O23   P3    S    
C8    N1    S    
C27   N2    Am   
C1    C12   S    
C67   H21   S    
C34   H13   S    
C5    C14   S    
Ba1   O4    S    
O2    P5    D    
C9    C13   A    
C67   O9    S    
C41   C42   A    
C29   C33   D    
C75   H25   S    
C52   H45   S    
C60   P3    S    
C40   H23   S    
C59   P2    S    
C25   C26   A    
C18   C41   A    
H61   O25   S    
C50   C51   S    
O32   P7    S    
C64   H53   S    
C43   H39   S    
C15   C30   S    
C44   C48   S    
Ba1   P1    S    
C57   C60   A    
O9    P8    S    
C65   H55   S    
C69   O26   S    
C29   C30   S    
C44   H44   S    
Ba2   O32   S    
C12   H7    S    
C39   H35   S    
C70   C71   S    
C55   C58   A    
Ba2   O5    S    
C46   H46   S    
O12   P2    S    
C9    C10   A    
C69   H62   S    
C28   H51   S    
C62   H78   S    
C76   O10   D    
O30   P8    S    
C54   C57   S    
C69   H63   S    
C71   H68   S    
C62   C63   S    
C2    C13   A    
C75   H27   S    
C33   N2    S    
C61   H77   S    
C3    C8    D    
O7    P7    S    
C16   H48   S    
C45   C56   S    
C63   H4    S    
O5    P2    S    
C47   C51   S    
Ba1   Ba2   S    
C74   H76   S    
C23   H8    S    
C45   H16   S    
C28   C40   S    
C5    P8    S    
C58   H43   S    
Ba2   O30   S    
C4    H37   S    
C55   C57   A    
C15   H41   S    
C23   C34   S    
C45   O3    S    
C67   H22   S    
C68   O25   S    
C22   C27   A    
C69   C70   S    
C18   C19   A    
Ba1   O5    S    
C47   C48   D    
C46   C59   A    
C73   H73   S    
C16   H15   S    
C39   C43   A    
C20   C21   A    
C58   C59   A    
C27   O11   D    
C61   H67   S    
O21   P3    D    
