data_mof_unit_55263.cif
_audit_creation_date              2012-12-10T18:58:44-0500
_audit_creation_method            fapswitch 2.2
_symmetry_space_group_name_H-M    P1
_symmetry_Int_Tables_number       1
_space_group_crystal_system       triclinic
_cell_length_a                    12.990214
_cell_length_b                    10.819883
_cell_length_c                    9.542759
_cell_angle_alpha                 90.016437
_cell_angle_beta                  96.155341
_cell_angle_gamma                 90.114894
_cell_volume                      1333.52412221

loop_
_atom_site_label
_atom_site_type_symbol
_atom_type_description
_atom_site_fract_x
_atom_site_fract_y
_atom_site_fract_z
_atom_type_partial_charge
C1    C     C_R   0.498051 0.262318 0.499663 0.800567
C2    C     C_R   0.028074 0.527321 0.566485 0.120313
C3    C     C_R   0.972778 0.483542 0.439749 0.159567
C4    C     C_R   0.865811 0.473636 0.428992 -0.275048
C5    C     C_R   0.865765 0.552038 0.666638 -0.211760
C6    C     C_R   0.974122 0.562570 0.682168 0.087063
C7    C     C_R   0.488032 0.063627 0.623901 0.119604
C8    C     C_R   0.487800 0.129207 0.497974 -0.096491
C9    C     C_R   0.473147 0.064333 0.369644 -0.220723
C10   C     C_R   0.473413 0.935477 0.369675 -0.219477
C11   C     C_R   0.488297 0.870786 0.498037 -0.097260
C12   C     C_R   0.300592 0.499827 0.473732 0.799022
C13   C     C_R   0.488411 0.936437 0.623929 0.132057
C14   C     C_3   0.561862 0.930439 0.755369 -0.479291
C15   C     C_3   0.561153 0.070763 0.755602 -0.459902
C16   C     C_R   0.549828 0.591468 0.081023 0.257835
C17   C     C_R   0.442559 0.417096 0.066031 -0.087042
C18   C     C_R   0.442534 0.417102 0.917115 -0.085122
C19   C     C_R   0.550268 0.591009 0.933620 0.266986
C20   C     C_3   0.663282 0.618664 0.945419 -0.535780
C21   C     C_3   0.662397 0.621461 0.103932 -0.495534
C22   C     C_R   0.498337 0.737695 0.499704 0.799494
C23   C     C_R   0.699461 0.501424 0.526280 0.816182
C24   C     C_R   0.812207 0.507742 0.541690 -0.088773
C25   C     C_R   0.187909 0.497962 0.459141 -0.037288
C26   C     C_R   0.025008 0.449691 0.324618 -0.201206
C27   C     C_R   0.132179 0.456977 0.334242 -0.209831
C28   C     C_R   0.136103 0.533933 0.573669 -0.276175
Cu1   Cu    Cu3+1 0.499990 0.499980 0.640670 0.936639
Cu2   Cu    Cu3+1 0.500010 0.500020 0.359330 0.935996
H1    H     H_    0.824225 0.438469 0.332596 0.146554
H2    H     H_    0.638116 0.890596 0.736975 0.190925
H3    H     H_    0.524004 0.110735 0.844971 0.194167
H4    H     H_    0.637049 0.112388 0.737942 0.199678
H5    H     H_    0.397661 0.348475 0.115326 0.132419
H6    H     H_    0.397619 0.348472 0.854708 0.139288
H7    H     H_    0.708730 0.539823 0.910424 0.211275
H8    H     H_    0.680453 0.709909 0.899916 0.188413
H9    H     H_    0.709466 0.546294 0.157404 0.216040
H10   H     H_    0.676901 0.715002 0.150162 0.195056
H11   H     H_    0.821557 0.580541 0.749981 0.144390
H12   H     H_    0.982952 0.416937 0.227383 0.136746
H13   H     H_    0.171493 0.428603 0.245024 0.148232
H14   H     H_    0.181285 0.566764 0.668123 0.150152
H15   H     H_    0.466478 0.112449 0.269567 0.159539
H16   H     H_    0.466908 0.887266 0.269608 0.162625
H17   H     H_    0.525481 0.889410 0.844881 0.195668
N1    N     N_R   0.500660 0.500930 0.148010 -0.184199
N2    N     N_R   0.500660 0.500890 0.852110 -0.184187
O1    O     O_R   0.500000 0.319640 0.618810 -0.581013
O2    O     O_R   0.500010 0.319680 0.381230 -0.588321
O3    O     O_R   0.348990 0.499960 0.599490 -0.587926
O4    O     O_R   0.349000 0.500000 0.361910 -0.587634
O5    O     O_R   0.499990 0.680320 0.618770 -0.579110
O6    O     O_R   0.500000 0.680360 0.381190 -0.585080
O7    O     O_R   0.651000 0.500000 0.638090 -0.586477
O8    O     O_R   0.651010 0.500040 0.400510 -0.583402
C29   C     C_3   0.032703 0.611541 0.818552 -0.420253
C30   C     C_3   0.966612 0.646431 0.937118 -0.362526
C31   C     C_3   0.034083 0.696217 0.065649 -0.825991
H18   H     H_    0.094433 0.627886 0.103114 0.258655
H19   H     H_    0.072228 0.783760 0.038817 0.248825
H20   H     H_    0.985302 0.714678 0.152036 0.248908
H21   H     H_    0.909949 0.719309 0.899914 0.220637
H22   H     H_    0.924309 0.563559 0.969598 0.218077
H23   H     H_    0.088702 0.539533 0.860592 0.195481
H24   H     H_    0.076911 0.695031 0.792404 0.199743

loop_
_geom_bond_atom_site_label_1
_geom_bond_atom_site_label_2
_ccdc_geom_bond_type
C10   H16   S    
C2    C28   A    
C23   C24   S    
C15   H4    S    
C9    H15   S    
C16   C21   S    
Cu1   O7    S    
C25   C27   A    
C1    C8    S    
C20   H8    S    
C9    C10   A    
C6    C29   S    
C11   C22   S    
C12   O4    A    
C21   H9    S    
C17   N1    A    
C7    C13   A    
C12   C25   S    
Cu2   O2    S    
Cu1   O5    S    
C16   N1    A    
C19   C20   S    
C7    C15   S    
C17   C18   A    
C30   H21   S    
C22   O6    A    
C30   C31   S    
C22   O5    A    
Cu1   N2    S    
C13   C14   S    
C30   H22   S    
C25   C28   A    
C20   H7    S    
C11   C13   A    
C26   C27   A    
Cu1   Cu2   S    
C5    C24   A    
C31   H20   S    
Cu2   N1    S    
C12   O3    A    
C15   H3    S    
C2    C3    A    
Cu1   O1    S    
C16   C19   A    
C5    C6    A    
C4    C24   A    
Cu2   O4    S    
C4    H1    S    
C7    C8    A    
C10   C11   A    
C3    C4    A    
Cu2   O8    S    
C27   H13   S    
C29   H24   S    
C23   O7    A    
C20   C21   S    
C26   H12   S    
C28   H14   S    
C31   H19   S    
C1    O1    A    
C23   O8    A    
C19   N2    A    
C14   C15   S    
C8    C9    A    
C5    H11   S    
C1    O2    A    
C17   H5    S    
C29   C30   S    
C14   H17   S    
C18   H6    S    
Cu2   O6    S    
C29   H23   S    
C3    C26   A    
C2    C6    A    
C18   N2    A    
C14   H2    S    
C31   H18   S    
Cu1   O3    S    
C21   H10   S    
