data_mof_unit_11631.cif
_audit_creation_date              2013-03-05T15:49:09-0500
_audit_creation_method            fapswitch 2.2
_symmetry_space_group_name_H-M    P1
_symmetry_Int_Tables_number       1
_space_group_crystal_system       triclinic
_cell_length_a                    22.457658
_cell_length_b                    12.97885
_cell_length_c                    27.015495
_cell_angle_alpha                 89.998227
_cell_angle_beta                  90.298208
_cell_angle_gamma                 89.999275
_cell_volume                      7874.22325281

loop_
_atom_site_label
_atom_site_type_symbol
_atom_site_description
_atom_site_fract_x
_atom_site_fract_y
_atom_site_fract_z
_atom_type_partial_charge
O1    O     O_R   0.769900 0.064540 0.196060 -0.456948
O2    O     O_R   0.230100 0.064540 0.803940 -0.457161
O3    O     O_R   0.269900 0.564540 0.196060 -0.457154
O4    O     O_R   0.730100 0.564540 0.803940 -0.457189
O5    O     O_R   0.750800 0.274080 0.199250 -0.512508
O6    O     O_R   0.249200 0.274080 0.800750 -0.512606
O7    O     O_R   0.250800 0.774080 0.199250 -0.512611
O8    O     O_R   0.749200 0.774080 0.800750 -0.512640
C1    C     C_R   0.720853 0.345263 0.178287 0.537581
C2    C     C_R   0.279148 0.345258 0.821715 0.537581
C3    C     C_R   0.220853 0.845263 0.178286 0.537600
C4    C     C_R   0.779152 0.845241 0.821720 0.537573
O9    O     O_R   0.669990 0.371670 0.194150 -0.475793
O10   O     O_R   0.330010 0.371670 0.805850 -0.475822
O11   O     O_R   0.169990 0.871670 0.194150 -0.475764
O12   O     O_R   0.830010 0.871670 0.805850 -0.475712
O13   O     O_R   0.574600 0.238480 0.197800 -0.432566
O14   O     O_R   0.425400 0.238480 0.802200 -0.432574
O15   O     O_R   0.074600 0.738480 0.197800 -0.432568
O16   O     O_R   0.925400 0.738480 0.802200 -0.432569
C5    C     C_R   0.553266 0.157625 0.177669 0.565928
C6    C     C_R   0.446728 0.157621 0.822334 0.565881
C7    C     C_R   0.053270 0.657625 0.177667 0.565846
C8    C     C_R   0.946731 0.657622 0.822332 0.565860
O17   O     O_R   0.566130 0.068680 0.194240 -0.535584
O18   O     O_R   0.433870 0.068680 0.805760 -0.535653
O19   O     O_R   0.066130 0.568680 0.194240 -0.535631
O20   O     O_R   0.933870 0.568680 0.805760 -0.535653
O21   O     O_R   0.680610 0.992490 0.199570 -0.515290
O22   O     O_R   0.319390 0.992490 0.800430 -0.515246
O23   O     O_R   0.180610 0.492490 0.199570 -0.515223
O24   O     O_R   0.819390 0.492490 0.800430 -0.515231
C9    C     C_R   0.731376 0.001468 0.179356 0.574556
C10   C     C_R   0.268637 0.001504 0.820659 0.574929
C11   C     C_R   0.231364 0.501505 0.179341 0.574937
C12   C     C_R   0.768637 0.501506 0.820660 0.574904
O25   O     O_R   0.770060 0.065440 0.307230 -0.515670
O26   O     O_R   0.229940 0.065440 0.692770 -0.515632
O27   O     O_R   0.270060 0.565440 0.307230 -0.515654
O28   O     O_R   0.729940 0.565440 0.692770 -0.515632
O29   O     O_R   0.750960 0.274920 0.302300 -0.511186
O30   O     O_R   0.249040 0.274920 0.697700 -0.511174
O31   O     O_R   0.250960 0.774920 0.302300 -0.511213
O32   O     O_R   0.749040 0.774920 0.697700 -0.511182
C13   C     C_R   0.721605 0.348365 0.321418 0.536765
C14   C     C_R   0.278395 0.348370 0.678583 0.536797
C15   C     C_R   0.221607 0.848364 0.321417 0.536784
C16   C     C_R   0.778394 0.848368 0.678583 0.536794
O33   O     O_R   0.670160 0.372580 0.305320 -0.525792
O34   O     O_R   0.329840 0.372580 0.694680 -0.525782
O35   O     O_R   0.170160 0.872580 0.305320 -0.525745
O36   O     O_R   0.829840 0.872580 0.694680 -0.525768
O37   O     O_R   0.574760 0.239320 0.300850 -0.496397
O38   O     O_R   0.425240 0.239320 0.699150 -0.496389
O39   O     O_R   0.074760 0.739320 0.300850 -0.496396
O40   O     O_R   0.925240 0.739320 0.699150 -0.496386
C17   C     C_R   0.554352 0.158885 0.321672 0.543703
C18   C     C_R   0.445649 0.158887 0.678329 0.543738
C19   C     C_R   0.054352 0.658885 0.321672 0.543649
C20   C     C_R   0.945649 0.658887 0.678329 0.543700
O41   O     O_R   0.566290 0.069580 0.305400 -0.525931
O42   O     O_R   0.433710 0.069580 0.694600 -0.525899
O43   O     O_R   0.066290 0.569580 0.305400 -0.525931
O44   O     O_R   0.933710 0.569580 0.694600 -0.525921
O45   O     O_R   0.680760 0.993330 0.302620 -0.507142
O46   O     O_R   0.319240 0.993330 0.697380 -0.507107
O47   O     O_R   0.180760 0.493330 0.302620 -0.507082
O48   O     O_R   0.819240 0.493330 0.697380 -0.507095
C21   C     C_R   0.731101 0.003337 0.323419 0.551277
C22   C     C_R   0.268896 0.003330 0.676583 0.551424
C23   C     C_R   0.231098 0.503347 0.323422 0.551374
C24   C     C_R   0.768899 0.503339 0.676581 0.551402
Cr1   Cr    Cr6+3 0.756570 0.170940 0.251190 1.050744
Cr2   Cr    Cr6+3 0.243430 0.170940 0.748810 1.050510
Cr3   Cr    Cr6+3 0.256570 0.670940 0.251190 1.050481
Cr4   Cr    Cr6+3 0.743430 0.670940 0.748810 1.050499
Cr5   Cr    Cr6+3 0.623740 0.299110 0.249580 1.100899
Cr6   Cr    Cr6+3 0.376260 0.299110 0.750420 1.100892
Cr7   Cr    Cr6+3 0.123740 0.799110 0.249580 1.100922
Cr8   Cr    Cr6+3 0.876260 0.799110 0.750420 1.100921
Cr9   Cr    Cr6+3 0.625990 0.036240 0.250480 1.022609
Cr10  Cr    Cr6+3 0.374010 0.036240 0.749520 1.022689
Cr11  Cr    Cr6+3 0.125990 0.536240 0.250480 1.022740
Cr12  Cr    Cr6+3 0.874010 0.536240 0.749520 1.022687
O49   O     O_3   0.668770 0.168760 0.250420 -0.264282
O50   O     O_3   0.331230 0.168760 0.749580 -0.264302
O51   O     O_3   0.168770 0.668760 0.250420 -0.264318
O52   O     O_3   0.831230 0.668760 0.749580 -0.264320
C25   C     C_R   0.515396 0.072862 0.102377 -0.171142
C26   C     C_R   0.484529 0.072845 0.897648 -0.171274
C27   C     C_R   0.015439 0.572856 0.102363 -0.171280
C28   C     C_R   0.984573 0.572854 0.897634 -0.171281
C29   C     C_R   0.506369 0.073509 0.051516 0.004792
C30   C     C_R   0.493537 0.073499 0.948511 0.004738
C31   C     C_R   0.006422 0.573504 0.051502 0.004721
C32   C     C_R   0.993590 0.573504 0.948495 0.004718
C33   C     C_R   0.496884 0.980216 0.974418 -0.127853
C34   C     C_R   0.502976 0.980221 0.025621 -0.127779
C35   C     C_R   0.996965 0.480218 0.974398 -0.127912
C36   C     C_R   0.003055 0.480218 0.025601 -0.127905
H1    H     H_    0.479956 0.999187 0.879057 0.142838
H2    H     H_    0.519950 0.999206 0.120976 0.142844
H3    H     H_    0.980016 0.499198 0.879039 0.142838
H4    H     H_    0.020001 0.499200 0.120960 0.142885
H5    H     H_    0.494183 0.907156 0.955102 0.115437
H6    H     H_    0.505645 0.907165 0.044945 0.115402
H7    H     H_    0.994283 0.407160 0.955079 0.115485
H8    H     H_    0.005744 0.407161 0.044922 0.115566
C37   C     C_R   0.475705 0.164998 0.871464 -0.011978
C38   C     C_R   0.524267 0.165014 0.128548 -0.011965
C39   C     C_R   0.975718 0.665006 0.871456 -0.011974
C40   C     C_R   0.024285 0.665009 0.128539 -0.011971
C41   C     C_R   0.516783 0.260781 0.103951 0.205071
C42   C     C_R   0.483210 0.260765 0.896052 0.205052
C43   C     C_R   0.016791 0.760774 0.103943 0.204837
C44   C     C_R   0.983205 0.760774 0.896050 0.205060
C45   C     C_R   0.507327 0.262165 0.052164 0.005924
C46   C     C_R   0.492653 0.262156 0.947841 0.005920
C47   C     C_R   0.007337 0.762159 0.052157 0.005789
C48   C     C_R   0.992656 0.762160 0.947835 0.005941
C49   C     C_R   0.503410 0.168086 0.025962 0.031530
C50   C     C_R   0.496529 0.168081 0.974055 0.031544
C51   C     C_R   0.003443 0.668083 0.025950 0.031593
C52   C     C_R   0.996560 0.668083 0.974044 0.031553
C53   C     C_R   0.503056 0.355166 0.025666 -0.114888
C54   C     C_R   0.496958 0.355161 0.974330 -0.114890
C55   C     C_R   0.003043 0.855163 0.025663 -0.115139
C56   C     C_R   0.996940 0.855163 0.974328 -0.114815
H9    H     H_    0.495329 0.428983 0.955844 0.195020
H10   H     H_    0.504718 0.428993 0.044144 0.194981
H11   H     H_    0.995288 0.928989 0.955845 0.195027
H12   H     H_    0.004687 0.928987 0.044146 0.194884
C57   C     C_R   0.739114 0.956796 0.129576 0.008006
C58   C     C_R   0.260975 0.956978 0.870478 0.008087
C59   C     C_R   0.239029 0.456973 0.129525 0.008080
C60   C     C_R   0.760974 0.456985 0.870480 0.008058
C61   C     C_R   0.795100 0.953837 0.105769 0.195336
C62   C     C_R   0.204968 0.953468 0.894247 0.195097
C63   C     C_R   0.295037 0.453451 0.105759 0.195100
C64   C     C_R   0.704970 0.453489 0.894254 0.195041
C65   C     C_R   0.797023 0.939354 0.054353 -0.105331
C66   C     C_R   0.203070 0.939065 0.945675 -0.105400
C67   C     C_R   0.296939 0.439030 0.054333 -0.105406
C68   C     C_R   0.703075 0.439089 0.945681 -0.105431
C69   C     C_R   0.744463 0.925617 0.026750 -0.010637
C70   C     C_R   0.255654 0.925917 0.973311 -0.010705
C71   C     C_R   0.244356 0.425880 0.026696 -0.010711
C72   C     C_R   0.755661 0.425932 0.973314 -0.010731
C73   C     C_R   0.689828 0.920695 0.051145 -0.134061
C74   C     C_R   0.310329 0.921550 0.948959 -0.134101
C75   C     C_R   0.189679 0.421528 0.051045 -0.134084
C76   C     C_R   0.810333 0.421553 0.948958 -0.134108
C77   C     C_R   0.687205 0.935540 0.101922 -0.163206
C78   C     C_R   0.312941 0.936358 0.898182 -0.163198
C79   C     C_R   0.187064 0.436352 0.101821 -0.163177
C80   C     C_R   0.812941 0.436356 0.898181 -0.163198
C81   C     C_R   0.712222 0.840609 0.948318 -0.112763
C82   C     C_R   0.287987 0.841071 0.051753 -0.112758
C83   C     C_R   0.212027 0.341032 0.948255 -0.112753
C84   C     C_R   0.787984 0.341062 0.051752 -0.112712
C85   C     C_R   0.718822 0.824091 0.897763 -0.124110
C86   C     C_R   0.281344 0.824467 0.102301 -0.124138
C87   C     C_R   0.218666 0.324438 0.897705 -0.124124
C88   C     C_R   0.781339 0.324450 0.102299 -0.124041
C89   C     C_R   0.791637 0.961798 0.894188 -0.089561
C90   C     C_R   0.208301 0.961825 0.105829 -0.089593
C91   C     C_R   0.291709 0.461796 0.894176 -0.089638
C92   C     C_R   0.708316 0.461844 0.105833 -0.089635
C93   C     C_R   0.784872 0.978534 0.944764 -0.104933
C94   C     C_R   0.215089 0.978613 0.055259 -0.104989
C95   C     C_R   0.284924 0.478575 0.944746 -0.105007
C96   C     C_R   0.715108 0.478641 0.055265 -0.105011
C97   C     C_R   0.746753 0.915513 0.972507 0.033079
C98   C     C_R   0.253347 0.915802 0.027546 0.033023
C99   C     C_R   0.246667 0.415761 0.972460 0.033023
C100  C     C_R   0.753356 0.415814 0.027549 0.032983
C101  C     C_R   0.760470 0.881649 0.870709 0.017871
C102  C     C_R   0.239560 0.881791 0.129323 0.017809
C103  C     C_R   0.260446 0.381770 0.870681 0.017810
C104  C     C_R   0.739563 0.381791 0.129324 0.017746
H13   H     H_    0.682527 0.790967 0.968907 0.117196
H14   H     H_    0.317801 0.791617 0.031180 0.117277
H15   H     H_    0.182213 0.291576 0.968828 0.117291
H16   H     H_    0.817790 0.291596 0.031177 0.117464
H17   H     H_    0.694377 0.761351 0.880733 0.154834
H18   H     H_    0.305875 0.761839 0.119345 0.154781
H19   H     H_    0.194134 0.261812 0.880661 0.154786
H20   H     H_    0.805860 0.261805 0.119340 0.155238
H21   H     H_    0.839701 0.937891 0.035840 0.148107
H22   H     H_    0.160387 0.937155 0.964174 0.148375
H23   H     H_    0.339622 0.437111 0.035835 0.148352
H24   H     H_    0.660395 0.437186 0.964185 0.148375
H25   H     H_    0.810695 0.038755 0.962477 0.118311
H26   H     H_    0.189174 0.038700 0.037527 0.118359
H27   H     H_    0.310841 0.538659 0.962478 0.118344
H28   H     H_    0.689203 0.538744 0.037534 0.118275
H29   H     H_    0.823468 0.008058 0.874012 0.170599
H30   H     H_    0.176375 0.007931 0.125983 0.170848
H31   H     H_    0.323635 0.507905 0.874022 0.170818
H32   H     H_    0.676397 0.507961 0.125990 0.170765
H33   H     H_    0.648682 0.910071 0.030670 0.125394
H34   H     H_    0.351496 0.911379 0.969470 0.125514
H35   H     H_    0.148514 0.411358 0.030532 0.125543
H36   H     H_    0.851500 0.411373 0.969468 0.125557
H37   H     H_    0.643606 0.937402 0.118860 0.146950
H38   H     H_    0.356560 0.938661 0.881279 0.146966
H39   H     H_    0.143443 0.438668 0.118721 0.146998
H40   H     H_    0.856559 0.438650 0.881275 0.146989
C105  C     C_R   0.527746 0.168826 0.370999 0.025047
C106  C     C_R   0.472259 0.168834 0.629003 0.025072
C107  C     C_R   0.027746 0.668826 0.370999 0.025006
C108  C     C_R   0.972258 0.668833 0.629003 0.025048
C109  C     C_R   0.537086 0.259639 0.398266 -0.123211
C110  C     C_R   0.462903 0.259635 0.601729 -0.123210
C111  C     C_R   0.037087 0.759637 0.398267 -0.123214
C112  C     C_R   0.962902 0.759634 0.601728 -0.123205
C113  C     C_R   0.525748 0.261920 0.448813 -0.122104
C114  C     C_R   0.474246 0.261914 0.551183 -0.122097
C115  C     C_R   0.025749 0.761916 0.448814 -0.122092
C116  C     C_R   0.974245 0.761912 0.551182 -0.122084
C117  C     C_R   0.503901 0.174021 0.472897 0.035403
C118  C     C_R   0.496115 0.174025 0.527108 0.035413
C119  C     C_R   0.003900 0.674019 0.472896 0.035394
C120  C     C_R   0.996113 0.674022 0.527107 0.035406
C121  C     C_R   0.490532 0.085559 0.444952 -0.122331
C122  C     C_R   0.509502 0.085578 0.555060 -0.122311
C123  C     C_R   0.990529 0.585559 0.444951 -0.122360
C124  C     C_R   0.009499 0.585574 0.555060 -0.122337
C125  C     C_R   0.502706 0.082756 0.394438 -0.130001
C126  C     C_R   0.497321 0.082775 0.605573 -0.129955
C127  C     C_R   0.002703 0.582756 0.394437 -0.130041
C128  C     C_R   0.997319 0.582772 0.605573 -0.129988
H41   H     H_    0.557007 0.326927 0.381359 0.133943
H42   H     H_    0.442965 0.326912 0.618629 0.133928
H43   H     H_    0.057010 0.826923 0.381360 0.133968
H44   H     H_    0.942964 0.826912 0.618628 0.133942
H45   H     H_    0.528102 0.017725 0.537669 0.098386
H46   H     H_    0.471949 0.017698 0.462350 0.098414
H47   H     H_    0.028098 0.517720 0.537668 0.098372
H48   H     H_    0.971944 0.517698 0.462348 0.098401
H49   H     H_    0.505083 0.011933 0.625798 0.125789
H50   H     H_    0.494957 0.011904 0.374220 0.125805
H51   H     H_    0.005081 0.511929 0.625798 0.125801
H52   H     H_    0.994953 0.511905 0.374218 0.125827
H53   H     H_    0.536829 0.330973 0.469379 0.099556
H54   H     H_    0.463151 0.330955 0.530611 0.099546
H55   H     H_    0.036831 0.830968 0.469380 0.099578
H56   H     H_    0.963150 0.830954 0.530610 0.099560
C129  C     C_R   0.736225 0.965843 0.373983 0.027448
C130  C     C_R   0.263752 0.965788 0.626027 0.027441
C131  C     C_R   0.236202 0.465912 0.373996 0.027455
C132  C     C_R   0.763775 0.465850 0.626017 0.027451
C133  C     C_R   0.683675 0.956136 0.401551 -0.124553
C134  C     C_R   0.316300 0.955868 0.598475 -0.124564
C135  C     C_R   0.183649 0.456425 0.401580 -0.124556
C136  C     C_R   0.816325 0.456163 0.598446 -0.124563
C137  C     C_R   0.686268 0.947245 0.452404 -0.124150
C138  C     C_R   0.313715 0.946990 0.547621 -0.124122
C139  C     C_R   0.186252 0.447527 0.452432 -0.124175
C140  C     C_R   0.813728 0.447263 0.547594 -0.124153
C141  C     C_R   0.741475 0.943421 0.476575 0.036247
C142  C     C_R   0.258514 0.943372 0.523432 0.036264
C143  C     C_R   0.241464 0.443498 0.476586 0.036220
C144  C     C_R   0.758519 0.443413 0.523426 0.036241
C145  C     C_R   0.794267 0.946537 0.448765 -0.116629
C146  C     C_R   0.205718 0.946674 0.551230 -0.116620
C147  C     C_R   0.294250 0.446428 0.448763 -0.116643
C148  C     C_R   0.705729 0.446515 0.551239 -0.116631
C149  C     C_R   0.791641 0.959361 0.397660 -0.128651
C150  C     C_R   0.208339 0.959493 0.602335 -0.128581
C151  C     C_R   0.291620 0.459248 0.397657 -0.128690
C152  C     C_R   0.708358 0.459347 0.602344 -0.128635
C153  C     C_R   0.788631 0.983946 0.557610 -0.128400
C154  C     C_R   0.211411 0.983989 0.442379 -0.128385
C155  C     C_R   0.288668 0.483922 0.557607 -0.128413
C156  C     C_R   0.711358 0.483923 0.442391 -0.128402
C157  C     C_R   0.795830 0.962891 0.607519 -0.137773
C158  C     C_R   0.204212 0.962936 0.392469 -0.137778
C159  C     C_R   0.295867 0.462856 0.607514 -0.137760
C160  C     C_R   0.704162 0.462873 0.392482 -0.137777
C161  C     C_R   0.707028 0.854584 0.605826 -0.006830
C162  C     C_R   0.292952 0.854479 0.394188 -0.006834
C163  C     C_R   0.207014 0.354671 0.605836 -0.006826
C164  C     C_R   0.792966 0.354569 0.394178 -0.006842
C165  C     C_R   0.701644 0.873946 0.555282 -0.095135
C166  C     C_R   0.298324 0.873821 0.444734 -0.095131
C167  C     C_R   0.201618 0.374067 0.555294 -0.095132
C168  C     C_R   0.798349 0.373932 0.444723 -0.095131
C169  C     C_R   0.743687 0.934615 0.530623 0.024413
C170  C     C_R   0.256312 0.934572 0.469382 0.024411
C171  C     C_R   0.243687 0.434672 0.530630 0.024410
C172  C     C_R   0.756304 0.434597 0.469380 0.024414
C173  C     C_R   0.757907 0.892715 0.631410 0.036922
C174  C     C_R   0.242102 0.892694 0.368591 0.036910
C175  C     C_R   0.257916 0.392731 0.631410 0.036937
C176  C     C_R   0.742089 0.392703 0.368593 0.036920
H57   H     H_    0.640154 0.963279 0.384387 0.141266
H58   H     H_    0.359822 0.962844 0.615651 0.141234
H59   H     H_    0.140130 0.463735 0.384429 0.141297
H60   H     H_    0.859846 0.463326 0.615607 0.141267
H61   H     H_    0.819847 0.035314 0.539723 0.105641
H62   H     H_    0.180225 0.035425 0.460255 0.105653
H63   H     H_    0.319908 0.535235 0.539713 0.105632
H64   H     H_    0.680140 0.535287 0.460277 0.105637
H65   H     H_    0.833677 0.996634 0.626528 0.133814
H66   H     H_    0.166393 0.996742 0.373448 0.133819
H67   H     H_    0.333737 0.496544 0.626515 0.133819
H68   H     H_    0.666314 0.496616 0.373472 0.133806
H69   H     H_    0.644876 0.947311 0.472781 0.101280
H70   H     H_    0.355117 0.946909 0.527258 0.101233
H71   H     H_    0.144870 0.447740 0.472825 0.101343
H72   H     H_    0.855119 0.447342 0.527215 0.101294
H73   H     H_    0.666164 0.836665 0.534727 0.099286
H74   H     H_    0.333769 0.836457 0.465297 0.099288
H75   H     H_    0.166106 0.336863 0.534743 0.099292
H76   H     H_    0.833831 0.336656 0.465279 0.099294
H77   H     H_    0.837468 0.940889 0.466541 0.104121
H78   H     H_    0.162517 0.941181 0.533443 0.104084
H79   H     H_    0.337452 0.440627 0.466528 0.104163
H80   H     H_    0.662527 0.440848 0.533466 0.104129
H81   H     H_    0.832539 0.967538 0.376940 0.129291
H82   H     H_    0.167442 0.967828 0.623041 0.129316
H83   H     H_    0.332519 0.467262 0.376924 0.129295
H84   H     H_    0.667460 0.467510 0.623066 0.129306
C177  C     C_3   0.659429 0.789822 0.629896 -0.372828
H85   H     H_    0.618941 0.784165 0.606233 0.099867
H86   H     H_    0.676028 0.710348 0.636057 0.176436
H87   H     H_    0.645541 0.825290 0.665414 0.145925
C178  C     C_3   0.340528 0.789645 0.370135 -0.372797
H88   H     H_    0.381003 0.783925 0.393811 0.099857
H89   H     H_    0.323893 0.710196 0.363974 0.176492
H90   H     H_    0.354451 0.825090 0.334620 0.145935
C179  C     C_3   0.159400 0.289957 0.629914 -0.372863
H91   H     H_    0.118904 0.284335 0.606258 0.099883
H92   H     H_    0.175975 0.210468 0.636075 0.176384
H93   H     H_    0.145533 0.325444 0.665434 0.145906
C180  C     C_3   0.840566 0.289808 0.370110 -0.372815
H94   H     H_    0.881052 0.284140 0.393776 0.099883
H95   H     H_    0.823966 0.210337 0.363947 0.176443
H96   H     H_    0.854458 0.325283 0.334594 0.145938
N1    N     N_R   0.479519 0.355666 0.868879 0.096530
O53   O     O_R   0.436991 0.420953 0.877912 -0.359169
O54   O     O_R   0.514570 0.371531 0.831461 -0.248239
N2    N     N_R   0.520515 0.355687 0.131112 0.096502
O55   O     O_R   0.563071 0.420914 0.122071 -0.359206
O56   O     O_R   0.485470 0.371616 0.168528 -0.248241
N3    N     N_R   0.979478 0.855679 0.868882 0.096498
O57   O     O_R   0.936923 0.920913 0.877921 -0.359067
O58   O     O_R   0.014528 0.871606 0.831472 -0.248231
N4    N     N_R   0.020507 0.855683 0.131102 0.096143
O59   O     O_R   0.063069 0.920910 0.122078 -0.359011
O60   O     O_R   0.985391 0.871674 0.168464 -0.248533
N5    N     N_R   0.849877 0.965083 0.132956 0.095202
O61   O     O_R   0.856069 0.922040 0.176186 -0.283296
O62   O     O_R   0.896079 0.006920 0.112107 -0.323246
N6    N     N_R   0.150151 0.963940 0.867018 0.095106
O63   O     O_R   0.144321 0.921392 0.823643 -0.283708
O64   O     O_R   0.103585 0.004239 0.887976 -0.322789
N7    N     N_R   0.349852 0.463934 0.132989 0.095106
O65   O     O_R   0.355682 0.421398 0.176368 -0.283718
O66   O     O_R   0.396417 0.504234 0.112030 -0.322806
N8    N     N_R   0.650150 0.463972 0.867027 0.095109
O67   O     O_R   0.644319 0.421452 0.823647 -0.283652
O68   O     O_R   0.603583 0.504245 0.887995 -0.322837

loop_
_geom_bond_atom_site_label_1
_geom_bond_atom_site_label_2
_geom_bond_distance
_ccdc_geom_bond_type
C160  H68   1.083247 S    
O4    C12   1.272097 A    
C57   C61   1.415750 A    
O39   C19   1.272389 A    
C66   C70   1.404254 A    
C91   C103  1.403562 A    
C119  C120  1.475838 S    
C60   C64   1.415932 A    
Cr7   O51   1.971055 S    
C5    C38   1.478298 S    
C149  H81   1.083291 S    
C179  H91   1.111217 S    
C129  C133  1.404452 A    
C7    C40   1.478300 S    
C137  C141  1.399135 A    
C113  H53   1.082790 S    
C79   H39   1.083356 S    
C108  C128  1.403125 A    
C32   C35   1.400264 A    
C117  C121  1.405702 A    
C162  C178  1.509696 S    
C144  C172  1.465157 S    
C15   C174  1.470020 S    
C73   C77   1.386776 A    
O44   Cr12  2.051048 S    
C70   C74   1.397179 A    
C3    O11   1.269244 A    
C82   C98   1.402934 A    
C76   C80   1.386692 A    
C105  C109  1.405095 A    
C70   C98   1.472243 S    
C130  C134  1.404417 A    
C75   C79   1.386703 A    
C140  C144  1.399140 A    
C33   H5    1.083899 S    
O2    C10   1.272102 A    
C116  H56   1.082793 S    
O17   Cr9   2.066776 S    
C146  H78   1.082766 S    
C153  C169  1.397366 A    
C109  H41   1.083308 S    
C154  H62   1.083008 S    
C23   C131  1.454045 S    
N5    O62   1.301842 A    
C180  H94   1.111211 S    
O9    Cr5   2.055298 S    
C89   C93   1.392606 A    
C17   C105  1.468928 S    
O16   Cr8   1.943644 S    
C95   H27   1.083267 S    
C138  H70   1.082803 S    
C93   H25   1.083215 S    
C30   C33   1.400257 A    
C92   C104  1.403561 A    
O13   C5    1.274317 A    
O28   Cr4   2.062542 S    
O12   Cr8   2.055332 S    
O22   Cr10  1.932925 S    
C143  C147  1.407480 A    
C90   H30   1.082897 S    
O46   Cr10  1.946594 S    
C159  H67   1.083261 S    
O48   C24   1.266536 A    
C6    C37   1.478288 S    
C150  H82   1.083284 S    
C20   C108  1.468927 S    
C30   C50   1.409683 A    
C67   C71   1.404252 A    
C110  C114  1.390705 A    
C96   H28   1.083273 S    
C85   C101  1.405048 A    
C84   C88   1.391261 A    
C180  H96   1.110422 S    
C8    O20   1.270869 A    
C94   C98   1.403578 A    
C179  H93   1.110421 S    
C143  C171  1.465092 S    
Cr12  O52   1.970088 S    
C29   C49   1.409691 A    
C88   H20   1.083334 S    
C28   C39   1.403082 A    
C17   O41   1.268792 A    
C47   C51   1.413914 A    
C19   O43   1.268790 A    
C34   H6    1.083899 S    
C20   O44   1.268792 A    
Cr8   O52   1.971079 S    
C125  H50   1.083192 S    
O46   C22   1.266563 A    
C159  C175  1.406135 A    
C123  H48   1.082984 S    
C166  H74   1.082945 S    
N4    O59   1.300843 A    
C80   H40   1.083357 S    
C16   O36   1.271805 A    
C139  C143  1.399115 A    
N7    O65   1.301406 A    
O27   C23   1.269023 A    
O31   C15   1.270221 A    
O32   C16   1.270256 A    
C123  C127  1.393647 A    
O47   Cr11  1.946562 S    
O21   C9    1.272032 A    
C128  H51   1.083199 S    
C89   C101  1.403506 A    
C33   C34   1.389308 A    
C51   C52   1.409962 A    
C72   C100  1.472227 S    
C2    C103  1.468590 S    
O24   C12   1.272020 A    
C119  C123  1.405700 A    
N8    O67   1.301378 A    
C10   C58   1.475575 S    
C158  C174  1.406087 A    
C165  C169  1.400650 A    
O8    Cr4   1.943168 S    
C46   C50   1.413924 A    
C167  H75   1.082972 S    
O32   Cr4   1.935286 S    
C1    O9    1.269250 A    
C41   N2    1.436009 S    
C161  C173  1.421271 A    
C63   C67   1.402726 A    
O11   Cr7   2.055298 S    
C148  C152  1.391577 A    
C163  C175  1.421262 A    
C152  H84   1.083301 S    
O27   Cr3   2.062476 S    
C133  H57   1.083582 S    
Cr5   O49   1.971055 S    
C122  H45   1.082972 S    
C140  H72   1.082821 S    
C44   N3    1.436041 S    
C178  H89   1.109025 S    
C138  C142  1.399151 A    
C19   C107  1.468929 S    
N1    O54   1.300819 A    
C36   H8    1.083902 S    
C145  H77   1.082786 S    
O22   C10   1.272007 A    
C4    O12   1.269283 A    
C2    O10   1.269249 A    
C11   C59   1.475580 S    
C122  C126  1.393645 A    
C25   C38   1.403077 A    
C24   C132  1.454085 S    
C44   C48   1.414041 A    
C27   C40   1.403091 A    
C71   C75   1.397183 A    
O5    C1    1.273799 A    
C117  C118  1.475845 S    
O25   C21   1.269030 A    
O3    C11   1.272110 A    
O8    C4    1.273777 A    
N6    O64   1.301513 A    
C156  H64   1.083028 S    
C154  C170  1.397380 A    
Cr1   O49   1.971985 S    
C37   C42   1.418973 A    
C41   C45   1.414098 A    
Cr3   O51   1.971985 S    
C90   C94   1.392582 A    
C43   C47   1.414059 A    
C87   C103  1.405062 A    
C77   H37   1.083218 S    
C45   C49   1.413912 A    
C56   H11   1.081000 S    
O26   Cr2   2.062542 S    
C31   C51   1.409690 A    
C5    O17   1.270880 A    
O29   C13   1.270253 A    
O28   C24   1.269018 A    
C164  C180  1.509703 S    
O14   C6    1.274311 A    
C72   C76   1.397175 A    
C69   C97   1.472434 S    
C163  C179  1.509705 S    
C21   C129  1.454083 S    
O40   Cr8   1.935585 S    
C127  H52   1.083192 S    
C156  C160  1.384372 A    
O41   Cr9   2.051060 S    
C62   N6    1.437247 S    
C136  C140  1.379580 A    
C160  C176  1.406112 A    
C130  C150  1.398831 A    
O33   Cr5   2.060916 S    
C167  C171  1.400653 A    
C25   C29   1.387889 A    
O35   Cr7   2.060916 S    
C86   C102  1.405048 A    
O29   Cr1   1.935346 S    
C133  C137  1.379578 A    
N2    O55   1.300836 A    
C91   H31   1.082913 S    
C26   C37   1.403085 A    
C45   C53   1.406352 A    
Cr9   O49   1.970110 S    
C96   C100  1.403590 A    
C47   C55   1.406359 A    
C18   O42   1.268793 A    
Cr11  O51   1.970110 S    
O26   C22   1.269021 A    
O20   Cr12  2.066803 S    
C116  C120  1.403128 A    
C157  H65   1.083251 S    
N5    O61   1.301399 A    
C107  C127  1.403128 A    
C168  C172  1.400646 A    
C136  H60   1.083581 S    
C148  H80   1.082793 S    
C71   C99   1.472247 S    
C164  C176  1.421264 A    
C66   H22   1.083603 S    
C120  C124  1.405708 A    
O30   C14   1.270289 A    
C145  C149  1.391571 A    
C85   H17   1.083290 S    
C147  C151  1.391580 A    
C141  C169  1.465158 S    
O6    Cr2   1.943168 S    
C39   C44   1.418987 A    
C90   C102  1.403550 A    
C22   C130  1.454135 S    
C88   C104  1.405064 A    
O42   Cr10  2.051048 S    
O18   Cr10  2.066803 S    
O31   Cr3   1.935346 S    
C121  H46   1.082987 S    
C110  H42   1.083294 S    
C81   H13   1.083086 S    
C12   C60   1.475575 S    
C180  H95   1.109032 S    
C26   C30   1.387880 A    
C179  H92   1.109039 S    
C161  C165  1.393057 A    
O24   Cr12  1.932925 S    
O30   Cr2   1.935286 S    
C166  C170  1.400640 A    
C163  C167  1.393085 A    
O48   Cr12  1.946594 S    
C129  C149  1.398828 A    
C164  C168  1.393063 A    
C65   H21   1.083573 S    
C113  C117  1.403133 A    
C62   C66   1.402723 A    
N3    O57   1.300855 A    
C94   H26   1.083253 S    
O37   C17   1.272389 A    
C31   C36   1.400261 A    
C162  C174  1.421274 A    
C15   O35   1.271833 A    
C68   H24   1.083606 S    
Cr10  O50   1.970088 S    
C153  C157  1.384373 A    
O40   C20   1.272392 A    
O43   Cr11  2.051060 S    
C155  C159  1.384346 A    
C141  C145  1.407468 A    
C134  H58   1.083562 S    
C89   H29   1.082877 S    
O39   Cr7   1.935563 S    
C131  C135  1.404477 A    
C13   O33   1.271794 A    
C151  H83   1.083296 S    
O13   Cr5   1.943688 S    
C106  C126  1.403116 A    
O15   Cr7   1.943688 S    
C42   N1    1.436024 S    
C49   C50   1.410002 A    
C53   C54   1.392925 A    
C112  H44   1.083303 S    
C13   C176  1.470019 S    
C115  H55   1.082786 S    
C161  C177  1.509708 S    
C74   H34   1.083434 S    
C55   C56   1.392905 A    
C81   C85   1.391194 A    
C124  C128  1.393648 A    
C61   C65   1.402578 A    
C92   H32   1.082909 S    
C64   C68   1.402705 A    
O6    C2    1.273825 A    
C91   C95   1.392584 A    
C48   C56   1.406362 A    
C35   H7    1.083899 S    
C59   C63   1.415909 A    
C43   N4    1.435996 S    
C147  H79   1.082803 S    
C54   H9    1.080988 S    
O1    Cr1   2.054167 S    
C64   N8    1.437273 S    
O19   Cr11  2.066776 S    
C155  C171  1.397330 A    
C58   C78   1.408775 A    
N8    O68   1.301514 A    
O45   C21   1.266542 A    
C65   C69   1.404272 A    
O47   C23   1.266521 A    
C177  H85   1.111216 S    
C121  C125  1.393645 A    
O1    C9    1.272097 A    
C115  C119  1.403132 A    
C92   C96   1.392588 A    
C6    O18   1.270862 A    
C134  C138  1.379591 A    
C76   H36   1.083431 S    
C61   N5    1.436890 S    
O36   Cr8   2.060864 S    
C69   C73   1.397247 A    
C16   C173  1.470011 S    
C81   C97   1.402954 A    
O38   Cr6   1.935585 S    
C107  C111  1.405093 A    
C25   H2    1.084535 S    
C178  H88   1.111209 S    
O15   C7    1.274314 A    
C28   C32   1.387865 A    
C27   H4    1.084532 S    
C68   C72   1.404243 A    
O23   Cr11  1.932944 S    
N1    O53   1.300841 A    
O7    C3    1.273805 A    
C57   C77   1.408609 A    
C114  H54   1.082781 S    
C87   H19   1.083325 S    
C153  H61   1.083033 S    
C111  C115  1.390707 A    
C60   C80   1.408774 A    
C155  H63   1.083043 S    
C118  C122  1.405699 A    
C59   C79   1.408776 A    
C177  H86   1.109031 S    
C137  H69   1.082820 S    
C55   H12   1.081002 S    
C63   N7    1.437245 S    
C28   H3    1.084533 S    
O45   Cr9   1.946562 S    
C53   H10   1.080990 S    
O16   C8    1.274298 A    
C78   H38   1.083352 S    
C67   H23   1.083595 S    
C7    O19   1.270885 A    
Cr4   O52   1.971986 S    
O2    Cr2   2.054112 S    
O14   Cr6   1.943644 S    
C158  H66   1.083230 S    
Cr6   O50   1.971079 S    
C4    C101  1.468552 S    
C165  H73   1.082960 S    
C83   C99   1.402946 A    
O5    Cr1   1.943105 S    
C84   C100  1.402937 A    
C8    C39   1.478259 S    
C139  H71   1.082839 S    
C142  C146  1.407448 A    
C114  C118  1.403122 A    
C18   C106  1.468925 S    
C135  C139  1.379576 A    
C32   C52   1.409695 A    
C108  C112  1.405092 A    
C111  H43   1.083308 S    
C124  H47   1.082984 S    
C146  C150  1.391573 A    
C131  C151  1.398822 A    
C86   H18   1.083311 S    
C109  C113  1.390710 A    
C132  C152  1.398836 A    
O7    Cr3   1.943105 S    
C106  C110  1.405086 A    
C95   C99   1.403588 A    
C142  C170  1.465229 S    
C177  H87   1.110419 S    
N4    O60   1.300797 A    
C26   H1    1.084532 S    
N3    O58   1.300785 A    
C35   C36   1.389299 A    
C144  C148  1.407476 A    
N7    O66   1.301513 A    
C3    C102  1.468586 S    
C105  C125  1.403129 A    
Cr2   O50   1.971986 S    
C82   H14   1.083074 S    
C38   C41   1.418975 A    
C42   C46   1.414106 A    
C1    C104  1.468588 S    
N2    O56   1.300824 A    
O21   Cr9   1.932944 S    
C162  C166  1.393033 A    
O37   Cr5   1.935563 S    
C178  H90   1.110416 S    
C83   C87   1.391278 A    
C14   C175  1.470015 S    
C168  H76   1.082954 S    
C135  H59   1.083592 S    
C73   H33   1.083293 S    
O34   Cr6   2.060864 S    
O3    Cr3   2.054167 S    
O38   C18   1.272389 A    
O25   Cr1   2.062476 S    
C93   C97   1.403658 A    
C154  C158  1.384405 A    
C75   H35   1.083442 S    
C58   C62   1.415908 A    
C14   O34   1.271772 A    
C132  C136  1.404451 A    
C126  H49   1.083189 S    
N6    O63   1.301408 A    
O23   C11   1.272011 A    
O10   Cr6   2.055332 S    
O4    Cr4   2.054112 S    
C82   C86   1.391264 A    
C156  C172  1.397352 A    
C9    C57   1.475607 S    
C157  C173  1.406114 A    
C27   C31   1.387879 A    
C74   C78   1.386697 A    
C46   C54   1.406356 A    
C83   H15   1.083087 S    
C112  C116  1.390709 A    
C29   C34   1.400253 A    
C84   H16   1.083083 S    
C40   C43   1.418978 A    
C48   C52   1.413934 A    
