data_mof_unit_47190.cif
_audit_creation_date              2012-12-10T17:46:13-0500
_audit_creation_method            fapswitch 2.2
_symmetry_space_group_name_H-M    P1
_symmetry_Int_Tables_number       1
_space_group_crystal_system       triclinic
_cell_length_a                    14.142497
_cell_length_b                    10.697314
_cell_length_c                    9.952201
_cell_angle_alpha                 88.675282
_cell_angle_beta                  90.092528
_cell_angle_gamma                 94.120007
_cell_volume                      1501.34365159

loop_
_atom_site_label
_atom_site_type_symbol
_atom_type_description
_atom_site_fract_x
_atom_site_fract_y
_atom_site_fract_z
_atom_type_partial_charge
C1    C     C_R   0.506077 0.261072 0.501408 0.869719
C2    C     C_R   0.466987 0.062508 0.402538 -0.217288
C3    C     C_R   0.467776 0.935280 0.400558 -0.218539
C4    C     C_R   0.329412 0.500942 0.499822 0.905645
C5    C     C_R   0.523026 0.873711 0.492740 -0.076971
C6    C     C_R   0.359447 0.360879 0.149794 -0.145219
C7    C     C_R   0.274400 0.322809 0.092259 -0.256908
C8    C     C_R   0.265256 0.330196 0.955169 -0.313714
C9    C     C_R   0.346098 0.360236 0.872150 0.517285
C10   C     C_R   0.426709 0.431049 0.930890 0.066431
C11   C     C_R   0.429604 0.431024 0.075697 0.118374
C12   C     C_1   0.771812 0.493338 0.500233 -0.165071
C13   C     C_R   0.567978 0.565919 0.069583 -0.095892
C14   C     C_R   0.568279 0.565395 0.926925 -0.119808
C15   C     C_R   0.507441 0.739987 0.498390 0.910180
C16   C     C_R   0.670379 0.495998 0.500108 0.918371
C17   C     C_1   0.227852 0.499945 0.499386 -0.212532
C18   C     C_1   0.142481 0.498133 0.499377 -0.024141
C19   C     C_1   0.042443 0.495681 0.499680 0.004221
C20   C     C_1   0.957064 0.493969 0.499972 0.006562
C21   C     C_1   0.857079 0.492912 0.500204 -0.005567
C22   C     C_3   0.270012 0.232798 0.705852 0.090915
C23   C     C_R   0.631304 0.136149 0.692922 -0.180747
C24   C     C_3   0.284708 0.170158 0.573158 -0.844767
C25   C     C_2   0.706204 0.776574 0.604568 0.369905
C26   C     C_R   0.690750 0.074107 0.779041 -0.135744
C27   C     C_R   0.705694 0.949226 0.759132 -0.219784
C28   C     C_R   0.659528 0.884867 0.654335 0.006632
C29   C     C_R   0.585983 0.940646 0.581432 0.099175
C30   C     C_R   0.576833 0.070156 0.594039 0.072906
C31   C     C_R   0.516619 0.129317 0.502300 -0.097896
H1    H     H_    0.421928 0.108129 0.331130 0.163902
H2    H     H_    0.216722 0.281286 0.153707 0.172434
H3    H     H_    0.209763 0.293293 0.692347 0.140199
H4    H     H_    0.251882 0.155274 0.780080 0.144659
H5    H     H_    0.334494 0.095855 0.588358 0.257051
H6    H     H_    0.216202 0.125122 0.537951 0.209292
H7    H     H_    0.311427 0.239479 0.495358 0.235919
H8    H     H_    0.738734 0.713306 0.674640 0.052459
H9    H     H_    0.197020 0.295963 0.916673 0.137218
H10   H     H_    0.624004 0.619293 0.872369 0.129584
H11   H     H_    0.631136 0.235840 0.705028 0.167366
H12   H     H_    0.730630 0.125501 0.855472 0.147657
H13   H     H_    0.759992 0.906407 0.817602 0.131423
H14   H     H_    0.421949 0.884335 0.329939 0.165912
H15   H     H_    0.623515 0.620320 0.121571 0.157521
H16   H     H_    0.367027 0.335926 0.253090 0.201831
N1    N     N_R   0.499190 0.498800 0.142780 -0.106840
N2    N     N_R   0.499160 0.498720 0.857170 -0.104339
O1    O     O_R   0.500000 0.316780 0.614690 -0.551931
O2    O     O_2   0.715881 0.763767 0.483891 -0.589674
O3    O     O_R   0.499990 0.316750 0.385360 -0.646226
O4    O     O_R   0.373720 0.500010 0.614690 -0.544866
O5    O     O_R   0.373710 0.499990 0.385360 -0.626113
O6    O     O_R   0.500010 0.683250 0.614640 -0.629071
O7    O     O_R   0.500000 0.683220 0.385310 -0.593372
O8    O     O_R   0.626290 0.500010 0.614640 -0.637447
O9    O     O_R   0.626280 0.499990 0.385310 -0.578292
O10   O     O_3   0.352849 0.306148 0.746176 -0.558238
Zn1   Zn    Zn3+2 0.500010 0.500020 0.653130 0.972249
Zn2   Zn    Zn3+2 0.499990 0.499980 0.346870 0.953997

loop_
_geom_bond_atom_site_label_1
_geom_bond_atom_site_label_2
_ccdc_geom_bond_type
C13   N1    A    
C24   H7    S    
C25   O2    D    
C6    C7    A    
O5    Zn2   S    
C4    O4    A    
C9    C10   A    
C5    C29   A    
C19   C20   T    
C24   H5    S    
C1    C31   S    
C16   O8    A    
O1    Zn1   S    
C15   O7    A    
O9    Zn2   S    
C24   H6    S    
C11   N1    A    
N2    Zn1   S    
C7    C8    A    
C16   O9    A    
C13   C14   A    
C25   H8    S    
C25   C28   S    
C22   H4    S    
C7    H2    S    
O6    Zn1   S    
C26   C27   A    
C29   C30   A    
C23   H11   S    
C14   H10   S    
C4    C17   S    
C27   H13   S    
C27   C28   A    
C28   C29   A    
O4    Zn1   S    
C26   H12   S    
C17   C18   T    
C2    C3    A    
O3    Zn2   S    
C30   C31   A    
C22   H3    S    
C1    O3    A    
C22   C24   S    
C5    C15   S    
C14   N2    A    
C1    O1    A    
C6    H16   S    
C23   C30   A    
C6    C11   A    
C20   C21   S    
C2    H1    S    
C18   C19   S    
C10   C11   A    
C23   C26   A    
N1    Zn2   S    
C22   O10   S    
C13   H15   S    
C8    C9    A    
O8    Zn1   S    
C8    H9    S    
C4    O5    A    
O7    Zn2   S    
C10   N2    A    
C9    O10   S    
C12   C21   T    
C3    H14   S    
C12   C16   S    
C2    C31   A    
C3    C5    A    
C15   O6    A    
