data_mof_unit_26507.cif
_audit_creation_date              2012-12-11T14:45:55-0500
_audit_creation_method            fapswitch 2.2
_symmetry_space_group_name_H-M    P1
_symmetry_Int_Tables_number       1
_space_group_crystal_system       triclinic
_cell_length_a                    10.913775
_cell_length_b                    10.97194
_cell_length_c                    18.922478
_cell_angle_alpha                 90.656776
_cell_angle_beta                  90.431499
_cell_angle_gamma                 119.564257
_cell_volume                      1970.51082034

loop_
_atom_site_label
_atom_site_type_symbol
_atom_type_description
_atom_site_fract_x
_atom_site_fract_y
_atom_site_fract_z
_atom_type_partial_charge
C1    C     C_R   0.866076 0.639637 0.603550 0.531309
C2    C     C_R   0.260459 0.527958 0.799313 -0.094611
C3    C     C_R   0.227298 0.506544 0.727524 -0.111367
C4    C     C_R   0.229639 0.613854 0.687338 0.013944
C5    C     C_R   0.797347 0.093699 0.815296 -0.017714
C6    C     C_R   0.047531 0.134556 0.815129 -0.093188
C7    C     C_R   0.155252 0.133757 0.777134 -0.123170
C8    C     C_R   0.143818 0.116551 0.704076 -0.127713
C9    C     C_R   0.031758 0.116323 0.668734 -0.092488
C10   C     C_R   0.930975 0.134469 0.706879 -0.005169
C11   C     C_R   0.924525 0.118927 0.780643 -0.005040
C12   C     C_R   0.206202 0.594112 0.610343 0.563118
C13   C     C_R   0.744420 0.193616 0.717052 -0.037697
C14   C     C_R   0.694508 0.115238 0.777298 0.038377
C15   C     C_R   0.682773 0.274621 0.697555 -0.101133
C16   C     C_R   0.538860 0.216505 0.701694 -0.115722
C17   C     C_R   0.470411 0.107960 0.747268 -0.087759
C18   C     C_R   0.550458 0.077704 0.794786 0.291054
C19   C     C_R   0.845911 0.182370 0.675809 -0.017270
C20   C     C_R   0.704576 0.572150 0.706397 -0.145267
C21   C     C_R   0.693974 0.561856 0.780324 -0.000283
C22   C     C_R   0.810466 0.656848 0.822947 -0.024307
C23   C     C_R   0.864082 0.232182 0.603671 0.536898
C24   C     C_R   0.936737 0.750819 0.790355 -0.137839
C25   C     C_R   0.945990 0.756720 0.718234 -0.125637
C26   C     C_R   0.833268 0.662551 0.675553 0.000657
C27   C     C_R   0.250428 0.538458 0.274719 -0.125389
C28   C     C_R   0.267527 0.555472 0.202628 -0.128400
C29   C     C_R   0.338267 0.690184 0.174567 0.029318
C30   C     C_R   0.380702 0.807836 0.219392 -0.131283
C31   C     C_R   0.359644 0.790252 0.292144 -0.134898
C32   C     C_R   0.299348 0.655451 0.320214 0.033418
C33   C     C_R   0.769490 0.233412 0.276922 -0.130203
C34   C     C_R   0.865446 0.638290 0.397371 0.549755
C35   C     C_R   0.770681 0.221864 0.204566 -0.136605
C36   C     C_R   0.850248 0.168392 0.173096 0.026868
C37   C     C_R   0.941022 0.141334 0.214752 -0.142742
C38   C     C_R   0.943177 0.157386 0.287967 -0.149589
C39   C     C_R   0.853559 0.199106 0.319347 0.033687
C40   C     C_R   0.922576 0.778929 0.291424 -0.129180
C41   C     C_R   0.918289 0.784528 0.219278 -0.127315
C42   C     C_R   0.811647 0.673303 0.179928 0.034479
C43   C     C_R   0.708654 0.554939 0.214620 -0.137052
C44   C     C_R   0.717219 0.546298 0.287853 -0.137426
C45   C     C_R   0.265079 0.629891 0.394773 0.556934
C46   C     C_R   0.826989 0.657296 0.326231 0.032574
C47   C     C_R   0.770678 0.046631 0.887887 0.580167
C48   C     C_R   0.387159 0.696598 0.898249 0.547031
C49   C     C_R   0.795922 0.690983 0.896552 0.528777
C50   C     C_R   0.809304 0.108462 0.102215 0.549516
C51   C     C_R   0.396008 0.705840 0.103767 0.538791
C52   C     C_R   0.796774 0.698278 0.105898 0.547423
C53   C     C_R   0.863797 0.233934 0.394143 0.550338
C54   C     C_R   0.245963 0.734525 0.722373 -0.135833
C55   C     C_R   0.273888 0.752673 0.795097 -0.124135
C56   C     C_R   0.300987 0.658573 0.831899 0.019630
Cr1   Cr    Cr6+3 0.791660 0.390250 0.499930 1.004833
Cr2   Cr    Cr6+3 0.098520 0.708290 0.500540 1.011962
Cr3   Cr    Cr6+3 0.109770 0.401430 0.499480 1.006154
Cr4   Cr    Cr6+3 0.874790 0.925890 0.000070 1.004782
Cr5   Cr    Cr6+3 0.574120 0.948670 0.999300 1.052811
Cr6   Cr    Cr6+3 0.551420 0.625320 0.000920 1.054500
H1    H     H_    0.240686 0.816086 0.693446 0.122817
H2    H     H_    0.482573 0.258311 0.672669 0.130700
H3    H     H_    0.742096 0.369388 0.669805 0.170266
H4    H     H_    0.358307 0.059199 0.752528 0.074108
H5    H     H_    0.616857 0.501346 0.672774 0.138491
H6    H     H_    0.028750 0.825565 0.820471 0.139671
H7    H     H_    0.045257 0.831907 0.696105 0.135860
H8    H     H_    0.197359 0.432908 0.294823 0.139467
H9    H     H_    0.232447 0.463004 0.169180 0.132116
H10   H     H_    0.436832 0.913013 0.198907 0.133996
H11   H     H_    0.273677 0.839027 0.821816 0.135376
H12   H     H_    0.393417 0.881258 0.326478 0.122072
H13   H     H_    0.703486 0.271272 0.299497 0.131471
H14   H     H_    0.701431 0.245759 0.173631 0.129647
H15   H     H_    0.004458 0.101317 0.191229 0.121651
H16   H     H_    0.012898 0.135894 0.319915 0.114461
H17   H     H_    0.007540 0.867610 0.319257 0.132657
H18   H     H_    0.997784 0.878971 0.194755 0.130892
H19   H     H_    0.622766 0.469922 0.185343 0.122752
H20   H     H_    0.641448 0.452033 0.313973 0.119421
H21   H     H_    0.261889 0.444541 0.828473 0.186652
H22   H     H_    0.205263 0.408219 0.702966 0.165580
H23   H     H_    0.247267 0.147639 0.805631 0.153345
H24   H     H_    0.224274 0.109833 0.674183 0.106900
H25   H     H_    0.071327 0.159499 0.870326 0.155198
H26   H     H_    0.027794 0.105913 0.611835 0.140788
O1    O     O_R   0.766500 0.250040 0.579790 -0.518877
O2    O     O_R   0.218690 0.701900 0.425960 -0.495067
O3    O     O_R   0.249490 0.516440 0.419420 -0.519733
O4    O     O_R   0.982880 0.281910 0.424890 -0.508225
O5    O     O_3   0.999980 0.499990 0.499980 -0.270949
O6    O     O_R   0.895110 0.806860 0.920430 -0.531166
O7    O     O_R   0.872260 0.046970 0.925000 -0.532221
O8    O     O_R   0.691430 0.085060 0.918550 -0.443727
O9    O     O_R   0.451490 0.822460 0.925250 -0.453589
O10   O     O_R   0.413330 0.603360 0.920440 -0.510587
O11   O     O_R   0.676110 0.626250 0.926750 -0.470638
O12   O     O_R   0.798570 0.516780 0.574780 -0.526098
O13   O     O_R   0.895350 0.809870 0.080950 -0.528908
O14   O     O_R   0.872490 0.049760 0.073800 -0.506074
O15   O     O_R   0.691680 0.088070 0.079070 -0.521420
O16   O     O_R   0.451720 0.825250 0.074050 -0.509923
O17   O     O_R   0.413580 0.606370 0.080960 -0.523243
O18   O     O_R   0.676340 0.629040 0.075550 -0.498922
O19   O     O_3   0.666780 0.833290 0.000090 -0.272126
O20   O     O_R   0.984000 0.732950 0.581090 -0.532939
O21   O     O_R   0.218600 0.700890 0.574760 -0.499180
O22   O     O_R   0.249390 0.515350 0.579940 -0.509383
O23   O     O_R   0.982790 0.280900 0.573700 -0.533719
O24   O     O_R   0.766600 0.251130 0.419260 -0.521614
O25   O     O_R   0.798660 0.517790 0.425980 -0.504031
O26   O     O_R   0.984100 0.734040 0.420570 -0.524153
C57   C     C_2   0.564107 0.445726 0.810197 0.595769
O27   O     O_2   0.451010 0.410416 0.781476 -0.541902
O28   O     O_R   0.568777 0.368000 0.867225 -0.666597
H27   H     H_    0.668075 0.392315 0.881413 0.302145
O29   O     O_3   0.487288 0.021093 0.856987 -0.659189
H28   H     H_    0.417703 0.051594 0.868672 0.314248

loop_
_geom_bond_atom_site_label_1
_geom_bond_atom_site_label_2
_ccdc_geom_bond_type
C55   C56   A    
Cr2   O21   S    
C41   C42   A    
C14   C18   A    
C20   H5    S    
C35   C36   A    
C21   C57   S    
C41   H18   S    
C12   O22   A    
Cr5   O8    S    
C7    C8    A    
Cr6   O17   S    
C39   C53   S    
C34   O25   A    
C40   C46   A    
C48   O9    A    
C5    C47   S    
C17   H4    S    
C33   C39   A    
Cr1   O1    S    
C36   C37   A    
Cr5   O15   S    
Cr2   O5    S    
C5    C11   A    
C44   H20   S    
C9    H26   S    
C30   C31   A    
Cr1   O24   S    
C54   H1    S    
C15   C16   A    
C15   H3    S    
Cr3   O22   S    
C32   C45   S    
Cr6   O10   S    
C33   H13   S    
C8    C9    A    
C57   O28   S    
Cr3   O23   S    
C47   O8    A    
C23   O1    A    
C34   C46   S    
C49   O6    A    
C4    C12   S    
C29   C30   A    
C9    C10   A    
C8    H24   S    
C27   H8    S    
C52   O18   A    
C50   O15   A    
Cr1   O5    S    
C21   C22   A    
C2    H21   S    
Cr4   O14   S    
C1    O12   A    
C12   O21   A    
C25   C26   A    
C44   C46   A    
C38   C39   A    
C52   O13   A    
C35   H14   S    
C13   C19   A    
Cr5   O16   S    
C24   C25   A    
C6    C11   A    
C16   C17   A    
C31   H12   S    
Cr1   O25   S    
Cr6   O19   S    
C38   H16   S    
C51   O16   A    
Cr1   O12   S    
C37   H15   S    
C6    H25   S    
C19   C23   S    
C43   C44   A    
C37   C38   A    
C16   H2    S    
C49   O11   A    
C31   C32   A    
C10   C19   A    
C51   O17   A    
C53   O4    A    
C17   C18   A    
C40   H17   S    
Cr3   O3    S    
C45   O2    A    
Cr2   O2    S    
C5    C14   A    
Cr4   O19   S    
C22   C49   S    
C53   O24   A    
C40   C41   A    
C50   O14   A    
C13   C15   A    
C1    C26   S    
C43   H19   S    
C22   C24   A    
C28   H9    S    
C25   H7    S    
C42   C43   A    
Cr4   O13   S    
C27   C28   A    
C36   C50   S    
C29   C51   S    
C48   C56   S    
C54   C55   A    
C28   C29   A    
C4    C54   A    
C27   C32   A    
Cr5   O9    S    
C30   H10   S    
O29   H28   S    
C6    C7    A    
Cr6   O18   S    
C34   O26   A    
C48   O10   A    
C2    C3    A    
C23   O23   A    
C2    C56   A    
O28   H27   S    
C57   O27   D    
C7    H23   S    
C20   C26   A    
C33   C35   A    
Cr2   O20   S    
Cr3   O4    S    
C45   O3    A    
C10   C11   A    
C24   H6    S    
C1    O20   A    
Cr6   O11   S    
C55   H11   S    
Cr4   O7    S    
C20   C21   A    
Cr5   O19   S    
C3    H22   S    
Cr2   O26   S    
C47   O7    A    
Cr3   O5    S    
C13   C14   A    
C18   O29   S    
C3    C4    A    
C42   C52   S    
Cr4   O6    S    
