data_mof_unit_26277.cif
_audit_creation_date              2012-12-10T19:06:29-0500
_audit_creation_method            fapswitch 2.2
_symmetry_space_group_name_H-M    P1
_symmetry_Int_Tables_number       1
_space_group_crystal_system       triclinic
_cell_length_a                    23.522598
_cell_length_b                    10.854147
_cell_length_c                    9.568902
_cell_angle_alpha                 90.797405
_cell_angle_beta                  89.609643
_cell_angle_gamma                 91.008219
_cell_volume                      2442.44288358

loop_
_atom_site_label
_atom_site_type_symbol
_atom_type_description
_atom_site_fract_x
_atom_site_fract_y
_atom_site_fract_z
_atom_type_partial_charge
C1    C     C_R   0.498452 0.262577 0.499069 0.808228
C2    C     C_R   0.969971 0.273446 0.571577 0.410152
C3    C     C_R   0.029355 0.276937 0.570616 -0.175133
C4    C     C_R   0.059666 0.384857 0.537173 -0.088461
C5    C     C_R   0.029954 0.491570 0.503421 -0.009660
C6    C     C_R   0.060351 0.600433 0.469502 -0.014262
C7    C     C_R   0.030624 0.706690 0.435412 -0.128483
C8    C     C_R   0.971434 0.705110 0.434673 -0.106324
C9    C     C_R   0.119357 0.388598 0.535986 0.614311
C10   C     C_R   0.119980 0.600067 0.470376 0.607038
C11   C     C_R   0.239086 0.487590 0.374017 0.437219
C12   C     C_R   0.390959 0.499652 0.500386 0.817259
C13   C     C_R   0.298420 0.489114 0.374302 -0.243601
C14   C     C_R   0.328329 0.498716 0.500814 -0.109427
C15   C     C_R   0.297865 0.506852 0.627319 -0.174887
C16   C     C_R   0.238600 0.505636 0.627177 -0.149529
C17   C     C_R   0.209008 0.496224 0.500957 0.263006
C18   C     C_R   0.761372 0.430673 0.397520 -0.135554
C19   C     C_R   0.702101 0.430533 0.393709 0.398748
C20   C     C_R   0.671468 0.494003 0.498782 -0.212062
C21   C     C_R   0.701194 0.553892 0.607506 -0.214371
C22   C     C_R   0.760412 0.552435 0.613292 0.498956
C23   C     C_R   0.499349 0.737873 0.500598 0.829502
C24   C     C_R   0.790864 0.491239 0.505692 0.141573
C25   C     C_R   0.490533 0.066667 0.623289 0.025537
C26   C     C_R   0.492338 0.129706 0.497686 -0.064068
C27   C     C_R   0.487113 0.062359 0.371873 -0.168975
C28   C     C_R   0.487931 0.933741 0.373233 -0.179744
C29   C     C_R   0.494169 0.871298 0.500317 -0.084415
C30   C     C_R   0.491600 0.939675 0.625087 0.024695
C31   C     C_3   0.529645 0.943555 0.750675 0.225866
C32   C     C_3   0.527443 0.083102 0.748322 -0.447547
C33   C     C_R   0.547273 0.537413 0.073563 0.266917
C34   C     C_R   0.608934 0.497524 0.499380 0.897251
C35   C     C_R   0.455956 0.450386 0.075522 -0.082183
C36   C     C_R   0.456140 0.447341 0.927611 0.455666
C37   C     C_R   0.547351 0.536590 0.926187 0.112180
C38   C     C_3   0.575697 0.659528 0.921161 -0.432891
C39   C     C_3   0.575184 0.661798 0.079635 0.179676
C40   C     C_R   0.881201 0.595027 0.468591 0.569293
C41   C     C_R   0.879082 0.384430 0.538722 0.597741
C42   C     C_R   0.939176 0.380643 0.538374 -0.114843
C43   C     C_R   0.969848 0.489675 0.503548 -0.061324
C44   C     C_R   0.940670 0.597385 0.468586 -0.014189
Cu1   Cu    Cu3+1 0.500000 0.499980 0.640670 0.972830
Cu2   Cu    Cu3+1 0.500000 0.500020 0.359330 0.998207
H1    H     H_    0.678295 0.602720 0.688782 0.197263
H2    H     H_    0.485264 0.108473 0.272394 0.170164
H3    H     H_    0.486237 0.884097 0.274376 0.159228
H4    H     H_    0.508935 0.905171 0.845464 0.122247
H5    H     H_    0.503856 0.123111 0.838719 0.178507
H6    H     H_    0.568789 0.129708 0.724193 0.224533
H7    H     H_    0.420265 0.410485 0.131759 0.172204
H8    H     H_    0.051819 0.194007 0.596266 0.220330
H9    H     H_    0.618723 0.655919 0.873371 0.250051
H10   H     H_    0.547109 0.726909 0.875892 0.203725
H11   H     H_    0.547671 0.734035 0.126030 0.112553
H12   H     H_    0.052968 0.791395 0.408955 0.202795
H13   H     H_    0.949872 0.788815 0.407780 0.214106
H14   H     H_    0.320981 0.482101 0.275529 0.188493
H15   H     H_    0.319737 0.514498 0.726338 0.211609
H16   H     H_    0.215533 0.512180 0.725251 0.183890
H17   H     H_    0.784896 0.382566 0.316454 0.202806
N1    N     N_R   0.851894 0.490260 0.504489 -0.483602
N2    N     N_R   0.148073 0.494983 0.502587 -0.456152
N3    N     N_R   0.500360 0.500930 0.147930 -0.254177
N4    N     N_R   0.500360 0.500890 0.852020 -0.238720
O1    O     O_R   0.500000 0.319640 0.618810 -0.608116
O2    O     O_2   0.847622 0.284489 0.573765 -0.425785
O3    O     O_2   0.148539 0.286743 0.567204 -0.499555
O4    O     O_2   0.149728 0.703681 0.439354 -0.497276
O5    O     O_R   0.500010 0.319680 0.381230 -0.570350
O6    O     O_R   0.417880 0.499940 0.618820 -0.569855
O7    O     O_R   0.417880 0.499980 0.381240 -0.598830
O8    O     O_R   0.499990 0.680320 0.618770 -0.571834
O9    O     O_R   0.500000 0.680360 0.381190 -0.594739
O10   O     O_R   0.582120 0.500020 0.618760 -0.585894
O11   O     O_R   0.582120 0.500060 0.381180 -0.499644
O12   O     O_2   0.852663 0.696713 0.433334 -0.463331
Cl1   Cl    Cl    0.937977 0.130410 0.614375 -0.470450
Cl2   Cl    Cl    0.668438 0.343805 0.259810 -0.514650
O13   O     O_3   0.786433 0.611030 0.725466 -0.653724
H18   H     H_    0.827592 0.593844 0.724038 0.342197
O14   O     O_3   0.584461 0.897832 0.724139 -0.690670
H19   H     H_    0.599236 0.933784 0.635845 0.355545
O15   O     O_3   0.410878 0.388655 0.864226 -0.731550
H20   H     H_    0.426154 0.341323 0.784275 0.360752
Cl3   Cl    Cl    0.644950 0.658220 0.151317 -0.482196
Cl4   Cl    Cl    0.203207 0.472945 0.213786 -0.551815

loop_
_geom_bond_atom_site_label_1
_geom_bond_atom_site_label_2
_ccdc_geom_bond_type
C27   H2    S    
C12   O7    A    
C35   H7    S    
C41   C42   A    
C19   C20   A    
C23   O9    A    
Cu2   O9    S    
C36   N4    A    
C7    C8    A    
C13   H14   S    
Cu1   Cu2   S    
C26   C27   A    
C29   C30   A    
C18   C24   A    
C5    C6    A    
C23   C29   S    
C28   C29   A    
Cu2   N3    S    
C8    H13   S    
C30   C31   S    
C3    H8    S    
C18   H17   S    
C15   C16   A    
C39   H11   S    
C1    O1    A    
Cu1   O6    S    
C18   C19   A    
C32   H6    S    
C38   H9    S    
C35   C36   A    
C16   C17   A    
Cu1   N4    S    
C7    H12   S    
Cu2   O5    S    
C20   C34   S    
C10   O4    S    
C25   C32   S    
C5    C43   A    
C24   N1    S    
C21   C22   A    
C16   H16   S    
C39   Cl3   S    
C12   O6    A    
C33   N3    A    
C1    O5    A    
C9    O3    S    
Cu2   O11   S    
O15   H20   S    
C35   N3    A    
C36   O15   S    
C25   C26   A    
C33   C37   A    
C31   O14   S    
C43   C44   A    
C32   H5    S    
C37   C38   S    
C28   H3    S    
C11   Cl4   S    
C31   C32   S    
Cu1   O1    S    
C15   H15   S    
C40   O12   S    
C33   C39   S    
O14   H19   S    
C12   C14   S    
C1    C26   S    
C22   C24   A    
C42   C43   A    
C31   H4    S    
C3    C4    A    
C22   O13   S    
Cu2   O7    S    
C41   O2    S    
C10   N2    A    
C25   C30   A    
C11   C17   A    
C8    C44   A    
C23   O8    A    
C4    C5    A    
C6    C10   A    
C6    C7    A    
C17   N2    S    
C40   N1    A    
Cu1   O8    S    
C2    C3    A    
C34   O10   A    
C19   Cl2   S    
C34   O11   A    
C11   C13   A    
C38   C39   S    
C2    C42   A    
C37   N4    A    
C9    N2    A    
C2    Cl1   S    
C40   C44   A    
C38   H10   S    
C20   C21   A    
O13   H18   S    
C27   C28   A    
C14   C15   A    
Cu1   O10   S    
C41   N1    A    
C4    C9    A    
C13   C14   A    
C21   H1    S    
