data_mof_unit_59064.cif
_audit_creation_date              2013-03-05T16:35:31-0500
_audit_creation_method            fapswitch 2.2
_symmetry_space_group_name_H-M    P1
_symmetry_Int_Tables_number       1
_space_group_crystal_system       triclinic
_cell_length_a                    15.86221
_cell_length_b                    9.123447
_cell_length_c                    7.821233
_cell_angle_alpha                 90.4538
_cell_angle_beta                  91.363879
_cell_angle_gamma                 92.659615
_cell_volume                      1130.2877515

loop_
_atom_site_label
_atom_site_type_symbol
_atom_site_description
_atom_site_fract_x
_atom_site_fract_y
_atom_site_fract_z
_atom_type_partial_charge
O1    O     O_R   0.500000 0.288400 0.642760 -0.577390
O2    O     O_R   0.500000 0.711600 0.357240 -0.576063
O3    O     O_R   0.500000 0.288400 0.357240 -0.575924
O4    O     O_R   0.500000 0.711600 0.642760 -0.575943
C1    C     C_1   0.500014 0.065336 0.499443 -0.168700
C2    C     C_1   0.500139 0.934676 0.500577 -0.168827
C3    C     C_R   0.499852 0.220092 0.499582 0.833973
C4    C     C_R   0.500230 0.779914 0.500425 0.837135
O5    O     O_R   0.379080 0.500000 0.642760 -0.560093
O6    O     O_R   0.620920 0.500000 0.357240 -0.564712
O7    O     O_R   0.379070 0.500000 0.357190 -0.576961
O8    O     O_R   0.620930 0.500000 0.642810 -0.576461
C5    C     C_R   0.339442 0.491788 0.497812 0.802689
C6    C     C_R   0.660593 0.507717 0.502215 0.801622
Cu1   Cu    Cu3+1 0.500010 0.500000 0.669080 1.026974
Cu2   Cu    Cu3+1 0.499990 0.500000 0.330920 1.025776
N1    N     N_1   0.499990 0.500000 0.076820 -0.037651
N2    N     N_1   0.500010 0.500000 0.923180 -0.037693
C7    C     C_3   0.962253 0.363575 0.577144 0.256062
C8    C     C_3   0.036783 0.596342 0.425753 0.256412
C9    C     C_3   0.010260 0.358819 0.406698 0.306316
C10   C     C_3   0.990003 0.602207 0.595710 0.379092
C11   C     C_1   0.249828 0.471837 0.491889 -0.129054
C12   C     C_1   0.750441 0.518065 0.508489 -0.165477
C13   C     C_3   0.034445 0.464358 0.655801 0.215697
C14   C     C_3   0.965026 0.497353 0.346455 0.137356
C15   C     C_3   0.082383 0.459473 0.487456 -0.229507
C16   C     C_3   0.917001 0.503033 0.516672 -0.223281
C17   C     C_1   0.174247 0.458401 0.487282 0.133892
C18   C     C_1   0.826075 0.519502 0.514750 0.106346
O9    O     O_3   0.026212 0.236211 0.302708 -0.518512
C19   C     C_3   0.952204 0.145005 0.282196 0.125070
H1    H     H_    0.895821 0.208100 0.249217 0.158884
H2    H     H_    0.940143 0.082851 0.400828 0.166197
C20   C     C_3   0.963656 0.033837 0.139973 -0.680904
H3    H     H_    0.016860 0.964169 0.173071 0.254870
H4    H     H_    0.905432 0.962323 0.123556 0.220701
H5    H     H_    0.976511 0.090675 0.017925 0.290154
O10   O     O_3   0.977850 0.730537 0.692605 -0.546117
C21   C     C_3   0.056170 0.806037 0.732104 0.108713
H6    H     H_    0.113191 0.749918 0.690397 0.177726
H7    H     H_    0.061702 0.820952 0.871864 0.161593
C22   C     C_3   0.058155 0.958550 0.656554 -0.696174
H8    H     H_    0.005752 0.018538 0.709125 0.288360
H9    H     H_    0.118628 0.018444 0.692368 0.218433
H10   H     H_    0.051885 0.952886 0.515451 0.283691
O11   O     O_3   0.932796 0.239423 0.669606 -0.551620
C23   C     C_3   0.844555 0.216262 0.653289 0.069772
H11   H     H_    0.822005 0.224113 0.518027 0.108594
H12   H     H_    0.813139 0.296498 0.735117 0.200646
C24   C     C_3   0.819253 0.063101 0.714971 -0.758638
H13   H     H_    0.838443 0.051278 0.851225 0.260535
H14   H     H_    0.749677 0.044546 0.702460 0.205053
H15   H     H_    0.849740 0.979024 0.637207 0.262675
O12   O     O_3   0.077488 0.721343 0.354365 -0.593033
C25   C     C_3   0.112103 0.685338 0.196179 0.145392
H16   H     H_    0.061871 0.686161 0.096087 0.208077
H17   H     H_    0.139337 0.575333 0.193793 0.199978
C26   C     C_3   0.182714 0.797586 0.155852 -0.796479
H18   H     H_    0.233940 0.793614 0.254821 0.250136
H19   H     H_    0.209067 0.772681 0.029220 0.235712
H20   H     H_    0.158792 0.909876 0.153235 0.252447
N3    N     N_R   0.924880 0.524670 0.180592 0.141439
O13   O     O_R   0.920712 0.424666 0.061235 -0.313858
O14   O     O_R   0.890583 0.649331 0.153283 -0.357629
N4    N     N_R   0.076946 0.442517 0.820613 0.162832
O15   O     O_R   0.144054 0.523268 0.862021 -0.445841
O16   O     O_R   0.060937 0.323091 0.905651 -0.274477

loop_
_geom_bond_atom_site_label_1
_geom_bond_atom_site_label_2
_geom_bond_distance
_ccdc_geom_bond_type
Cu1   N2    1.987375 S    
N4    O16   1.299183 A    
C22   H8    1.102036 S    
N3    O14   1.300325 A    
O1    Cu1   1.939837 S    
C8    C15   1.546645 S    
C25   H17   1.111107 S    
C13   C15   1.537426 S    
O2    Cu2   1.939836 S    
O7    Cu2   1.933887 S    
C14   C16   1.551199 S    
C20   H3    1.106902 S    
O8    Cu1   1.933888 S    
O4    C4    1.280133 A    
C24   H15   1.110506 S    
C19   H1    1.112174 S    
O12   C25   1.408091 S    
C16   C18   1.456758 S    
N4    O15   1.299145 A    
O5    Cu1   1.924352 S    
C26   H18   1.110842 S    
C22   H9    1.110547 S    
C10   C16   1.549683 S    
C7    C16   1.560732 S    
C9    O9    1.413675 S    
C14   N3    1.459804 S    
C8    C14   1.535566 S    
O4    Cu1   1.943093 S    
C8    O12   1.410016 S    
C2    C4    1.412021 S    
C10   O10   1.412842 S    
C11   C17   1.199112 T    
C21   H7    1.101381 S    
C21   H6    1.114002 S    
C7    C9    1.552216 S    
C9    C14   1.552995 S    
O8    C6    1.280632 A    
C23   H12   1.111495 S    
O3    C3    1.280152 A    
C21   C22   1.515296 S    
C9    C15   1.552412 S    
C1    C2    1.192265 T    
C7    C13   1.547588 S    
C22   H10   1.106295 S    
C7    O11   1.415705 S    
C26   H19   1.110064 S    
C12   C18   1.199010 T    
C15   C17   1.457684 S    
C13   N4    1.459790 S    
C24   H14   1.110609 S    
Cu1   Cu2   2.644821 S    
O9    C19   1.412275 S    
C19   C20   1.519164 S    
O7    C5    1.280706 A    
C20   H5    1.108586 S    
C24   H13   1.108775 S    
C25   H16   1.103965 S    
C5    C11   1.424296 S    
N1    N2    1.201662 T    
O6    C6    1.283481 A    
C6    C12   1.423579 S    
O10   C21   1.418539 S    
C1    C3    1.412020 S    
C25   C26   1.522577 S    
O5    C5    1.283160 A    
C23   H11   1.112570 S    
C26   H20   1.109044 S    
O6    Cu2   1.924355 S    
C20   H4    1.110073 S    
O1    C3    1.277141 A    
C23   C24   1.521277 S    
O2    C4    1.277159 A    
O3    Cu2   1.943094 S    
N3    O13   1.298555 A    
C8    C10   1.539475 S    
Cu2   N1    1.987375 S    
O11   C23   1.408455 S    
C10   C13   1.541235 S    
C19   H2    1.107143 S    
