data_mof_unit_8821.cif
_audit_creation_date              2012-12-11T14:28:30-0500
_audit_creation_method            fapswitch 2.2
_symmetry_space_group_name_H-M    P1
_symmetry_Int_Tables_number       1
_space_group_crystal_system       triclinic
_cell_length_a                    11.141803
_cell_length_b                    19.607963
_cell_length_c                    18.712198
_cell_angle_alpha                 90.012651
_cell_angle_beta                  91.545277
_cell_angle_gamma                 89.973395
_cell_volume                      4086.53038267

loop_
_atom_site_label
_atom_site_type_symbol
_atom_type_description
_atom_site_fract_x
_atom_site_fract_y
_atom_site_fract_z
_atom_type_partial_charge
C1    C     C_R   0.312127 0.938848 0.637188 0.549041
C2    C     C_R   0.313339 0.937250 0.862298 0.537424
C3    C     C_R   0.313017 0.064249 0.361724 0.538336
C4    C     C_R   0.311289 0.062952 0.137612 0.551805
C5    C     C_R   0.811465 0.437829 0.637462 0.553800
C6    C     C_R   0.813205 0.436801 0.862155 0.535875
C7    C     C_R   0.813346 0.563568 0.362137 0.544285
C8    C     C_R   0.811106 0.562448 0.137539 0.544096
C9    C     C_3   0.173793 0.708953 0.476010 0.207064
C10   C     C_3   0.202626 0.727878 0.047774 0.208310
C11   C     C_3   0.194522 0.273894 0.544947 0.210052
C12   C     C_3   0.188198 0.285272 0.970489 0.209814
C13   C     C_3   0.678771 0.210095 0.475073 0.208612
C14   C     C_3   0.696457 0.224429 0.045835 0.206364
C15   C     C_3   0.663996 0.789226 0.536762 0.225112
C16   C     C_3   0.695525 0.780262 0.965857 0.206833
C17   C     C_3   0.074331 0.741684 0.430111 0.074584
C18   C     C_3   0.078375 0.747141 0.071878 0.075395
C19   C     C_3   0.070976 0.255483 0.569336 0.088096
C20   C     C_3   0.087248 0.254618 0.924478 0.099616
C21   C     C_3   0.585848 0.245169 0.426185 0.076513
C22   C     C_3   0.573931 0.245699 0.070792 0.077603
C23   C     C_3   0.542175 0.767092 0.563119 0.073152
C24   C     C_3   0.587094 0.753143 0.924499 0.095224
C25   C     C_R   0.302955 0.043232 0.436994 -0.042062
C26   C     C_R   0.300922 0.040877 0.061855 -0.037980
C27   C     C_R   0.303730 0.963051 0.561881 -0.029184
C28   C     C_R   0.302510 0.960459 0.937293 -0.039766
C29   C     C_R   0.803558 0.541661 0.437476 -0.036765
C30   C     C_R   0.799766 0.539739 0.061922 -0.037358
C31   C     C_R   0.801190 0.460834 0.561865 -0.023103
C32   C     C_R   0.801897 0.459660 0.937130 -0.039930
C33   C     C_R   0.518946 0.054543 0.453577 -0.081189
C34   C     C_R   0.517958 0.053809 0.050232 -0.085706
C35   C     C_R   0.520520 0.950206 0.549701 -0.079981
C36   C     C_R   0.520944 0.946889 0.956990 -0.083619
C37   C     C_R   0.022439 0.549364 0.454624 -0.080746
C38   C     C_R   0.014574 0.556101 0.048772 -0.086710
C39   C     C_R   0.014993 0.442982 0.548259 -0.085808
C40   C     C_R   0.020837 0.448388 0.956577 -0.082957
C41   C     C_R   0.625994 0.029238 0.479448 -0.128326
C42   C     C_R   0.625319 0.022096 0.036804 -0.122690
C43   C     C_R   0.627262 0.977448 0.528595 -0.130844
C44   C     C_R   0.627470 0.969093 0.988895 -0.123163
C45   C     C_R   0.127556 0.524605 0.485514 -0.123341
C46   C     C_R   0.122769 0.525853 0.035278 -0.121850
C47   C     C_R   0.123676 0.470834 0.532423 -0.127107
C48   C     C_R   0.126463 0.471727 0.988716 -0.123245
C49   C     C_R   0.410244 0.978713 0.528028 -0.020300
C50   C     C_R   0.409646 0.976486 0.974098 -0.017899
C51   C     C_R   0.409660 0.026421 0.473214 -0.022670
C52   C     C_R   0.408303 0.025033 0.027899 -0.013927
C53   C     C_R   0.907543 0.474348 0.527029 -0.014659
C54   C     C_R   0.908788 0.476870 0.973612 -0.017242
C55   C     C_R   0.910265 0.522690 0.472938 -0.019366
C56   C     C_R   0.906420 0.525503 0.027214 -0.015417
C57   C     C_R   0.190115 0.983626 0.529439 0.050837
C58   C     C_R   0.186044 0.980544 0.966508 0.052556
C59   C     C_R   0.188058 0.026034 0.468032 0.032440
C60   C     C_R   0.185841 0.022937 0.028323 0.045803
C61   C     C_R   0.687545 0.481633 0.529640 0.057686
C62   C     C_R   0.685029 0.478663 0.966661 0.048881
C63   C     C_R   0.687665 0.524340 0.468355 0.041033
C64   C     C_R   0.684952 0.520791 0.028851 0.046620
C65   C     C_R   0.076561 0.963362 0.556733 0.323926
C66   C     C_R   0.068104 0.963489 0.935013 0.327485
C67   C     C_R   0.069043 0.045565 0.439856 0.305741
C68   C     C_R   0.068690 0.045159 0.052734 0.300192
C69   C     C_R   0.572122 0.460632 0.555430 0.304891
C70   C     C_R   0.566563 0.461416 0.935399 0.322078
C71   C     C_R   0.569766 0.543177 0.438598 0.316048
C72   C     C_R   0.568388 0.542141 0.054349 0.300539
C73   C     C_R   0.970591 0.992892 0.535147 -0.066050
C74   C     C_R   0.962949 0.993707 0.956420 -0.064325
C75   C     C_R   0.966622 0.029579 0.475088 -0.068287
C76   C     C_R   0.963221 0.032061 0.014962 -0.072556
C77   C     C_R   0.465346 0.482150 0.524900 -0.085500
C78   C     C_R   0.461090 0.488460 0.960184 -0.063776
C79   C     C_R   0.464328 0.519431 0.465664 -0.068241
C80   C     C_R   0.461939 0.525966 0.019321 -0.072434
C81   C     C_R   0.132522 0.757851 0.644176 0.555292
C82   C     C_R   0.186579 0.771556 0.863923 0.546517
C83   C     C_R   0.183179 0.228932 0.363992 0.542166
C84   C     C_R   0.147647 0.237395 0.138375 0.572506
C85   C     C_R   0.634618 0.259171 0.642771 0.572560
C86   C     C_R   0.685358 0.271283 0.864010 0.544239
C87   C     C_R   0.674364 0.731469 0.364216 0.550015
C88   C     C_R   0.672752 0.730546 0.136198 0.564295
C89   C     C_R   0.505458 0.783699 0.636428 0.528591
C90   C     C_R   0.546869 0.768873 0.852352 0.568698
C91   C     C_R   0.548013 0.231299 0.352460 0.547004
C92   C     C_R   0.536174 0.228277 0.143100 0.564572
C93   C     C_R   0.029535 0.274346 0.639495 0.555657
C94   C     C_R   0.048354 0.268585 0.851685 0.565958
C95   C     C_R   0.043787 0.729895 0.354745 0.550916
C96   C     C_R   0.038189 0.729023 0.143759 0.561750
C97   C     C_3   0.089214 0.808267 0.470768 0.241401
C98   C     C_3   0.092449 0.816048 0.036107 0.227077
C99   C     C_3   0.083233 0.186237 0.535065 0.224848
C100  C     C_3   0.101893 0.187323 0.962199 0.197779
C101  C     C_3   0.605901 0.311304 0.465639 0.206753
C102  C     C_3   0.592007 0.314748 0.036401 0.221443
C103  C     C_3   0.564479 0.696463 0.531900 0.235881
C104  C     C_3   0.601251 0.684913 0.960260 0.195596
C105  C     C_3   0.193071 0.777140 0.515578 -0.070284
C106  C     C_3   0.219212 0.798099 0.012193 -0.106234
C107  C     C_3   0.209217 0.203574 0.510163 -0.111984
C108  C     C_3   0.206935 0.215969 0.008188 -0.103904
C109  C     C_3   0.702774 0.277870 0.514276 -0.075869
C110  C     C_3   0.717189 0.294700 0.011883 -0.109711
C111  C     C_3   0.689189 0.717898 0.507497 -0.116275
C112  C     C_3   0.714153 0.709776 0.001478 -0.118629
C113  C     C_3   0.098695 0.752042 0.568419 -0.004235
C114  C     C_3   0.160419 0.766916 0.942153 -0.012491
C115  C     C_3   0.149962 0.234090 0.440367 -0.008661
C116  C     C_3   0.113496 0.239962 0.062633 0.013732
C117  C     C_3   0.602806 0.257362 0.565969 0.026542
C118  C     C_3   0.656288 0.266030 0.941467 -0.010249
C119  C     C_3   0.628692 0.741328 0.436290 0.001286
C120  C     C_3   0.631490 0.734784 0.060960 0.017209
C121  C     C_3   0.996197 0.785461 0.524626 -0.049155
C122  C     C_3   0.035066 0.787390 0.966254 -0.039249
C123  C     C_3   0.024140 0.213872 0.464714 -0.050219
C124  C     C_3   0.009986 0.208018 0.017492 -0.023366
C125  C     C_3   0.507802 0.294014 0.517978 -0.011084
C126  C     C_3   0.532327 0.288570 0.966130 -0.041962
C127  C     C_3   0.504666 0.718301 0.459719 -0.040008
C128  C     C_3   0.519131 0.706759 0.020240 -0.008035
C129  C     C_3   0.981111 0.717021 0.484043 -0.184877
C130  C     C_3   0.022762 0.716869 0.002028 -0.213683
C131  C     C_3   0.013781 0.284971 0.499867 -0.219845
C132  C     C_3   0.995637 0.277396 0.979311 -0.173100
C133  C     C_3   0.487506 0.225958 0.478443 -0.176782
C134  C     C_3   0.515581 0.217672 0.000637 -0.212937
C135  C     C_3   0.483552 0.790515 0.491106 -0.228339
C136  C     C_3   0.504930 0.776938 0.983683 -0.170229
C137  C     C_3   0.082940 0.684142 0.529752 -0.146758
C138  C     C_3   0.148803 0.696168 0.978381 -0.147456
C139  C     C_3   0.139566 0.305059 0.475589 -0.148983
C140  C     C_3   0.098507 0.308896 0.025417 -0.152044
C141  C     C_3   0.582105 0.189711 0.527197 -0.152242
C142  C     C_3   0.640180 0.195018 0.976172 -0.147130
C143  C     C_3   0.606961 0.813247 0.465556 -0.141785
C144  C     C_3   0.615497 0.804949 0.025409 -0.142446
Cr1   Cr    Cr6+3 0.488160 0.884660 0.750000 1.032404
Cr2   Cr    Cr6+3 0.488160 0.115340 0.250000 1.023529
Cr3   Cr    Cr6+3 0.988160 0.384660 0.750000 1.026709
Cr4   Cr    Cr6+3 0.988160 0.615340 0.250000 1.022248
Cr5   Cr    Cr6+3 0.173480 0.883120 0.750000 1.041917
Cr6   Cr    Cr6+3 0.173480 0.116880 0.250000 1.063849
Cr7   Cr    Cr6+3 0.673480 0.383120 0.750000 1.051421
Cr8   Cr    Cr6+3 0.673480 0.616880 0.250000 1.053889
Cr9   Cr    Cr6+3 0.333410 0.727260 0.750000 1.051083
Cr10  Cr    Cr6+3 0.333410 0.272740 0.250000 1.040907
Cr11  Cr    Cr6+3 0.833410 0.227260 0.750000 1.051920
Cr12  Cr    Cr6+3 0.833410 0.772740 0.250000 1.044139
H1    H     H_    0.267246 0.805071 0.542198 0.086897
H2    H     H_    0.288214 0.836930 0.026678 0.111576
H3    H     H_    0.278309 0.163668 0.520899 0.099142
H4    H     H_    0.277556 0.183064 0.031637 0.073178
H5    H     H_    0.780489 0.303011 0.539835 0.083792
H6    H     H_    0.789075 0.331178 0.027852 0.112734
H7    H     H_    0.760129 0.681164 0.523745 0.097795
H8    H     H_    0.780080 0.671223 0.018003 0.070335
H9    H     H_    0.889566 0.981728 0.561953 0.079203
H10   H     H_    0.878129 0.983732 0.928960 0.096482
H11   H     H_    0.883551 0.047966 0.454409 0.108697
H12   H     H_    0.880334 0.054777 0.030628 0.067499
H13   H     H_    0.382275 0.463797 0.544269 0.065295
H14   H     H_    0.376208 0.478237 0.933141 0.102666
H15   H     H_    0.380298 0.531567 0.439217 0.103866
H16   H     H_    0.379060 0.547197 0.036722 0.069093
H17   H     H_    0.941752 0.814271 0.561227 0.196122
H18   H     H_    0.975246 0.808816 0.925019 0.236785
H19   H     H_    0.960191 0.191513 0.426024 0.228377
H20   H     H_    0.943492 0.169515 0.030360 0.200387
H21   H     H_    0.443756 0.335795 0.526154 0.184555
H22   H     H_    0.471961 0.312773 0.926899 0.238259
H23   H     H_    0.448841 0.692492 0.419250 0.229730
H24   H     H_    0.450216 0.669622 0.033582 0.205547
H25   H     H_    0.904458 0.690169 0.458647 0.080687
H26   H     H_    0.950932 0.680565 0.988811 0.118596
H27   H     H_    0.940094 0.321807 0.490200 0.115702
H28   H     H_    0.918944 0.305432 0.956030 0.078277
H29   H     H_    0.406933 0.203641 0.453212 0.085937
H30   H     H_    0.441373 0.182759 0.986478 0.119272
H31   H     H_    0.409559 0.826229 0.477600 0.121003
H32   H     H_    0.428188 0.806984 0.964464 0.078504
H33   H     H_    0.081014 0.635713 0.560488 0.151548
H34   H     H_    0.167581 0.645670 0.954242 0.153055
H35   H     H_    0.158748 0.355024 0.450601 0.154483
H36   H     H_    0.100392 0.356736 0.056720 0.151569
H37   H     H_    0.573063 0.141309 0.557356 0.150238
H38   H     H_    0.656039 0.144583 0.951192 0.152538
H39   H     H_    0.622393 0.862152 0.437428 0.158838
H40   H     H_    0.623477 0.853097 0.055899 0.157354
H41   H     H_    0.705641 0.050647 0.460954 0.159224
H42   H     H_    0.704469 0.036579 0.066466 0.097477
H43   H     H_    0.709033 0.959493 0.552017 0.125517
H44   H     H_    0.710679 0.944335 0.977649 0.129618
H45   H     H_    0.210227 0.548512 0.474945 0.149053
H46   H     H_    0.200735 0.542639 0.064345 0.094676
H47   H     H_    0.202080 0.452530 0.559725 0.096090
H48   H     H_    0.209665 0.446696 0.978960 0.139985
H49   H     H_    0.522201 0.098623 0.420799 0.179704
H50   H     H_    0.519728 0.099354 0.080337 0.158287
H51   H     H_    0.525297 0.906385 0.582287 0.173974
H52   H     H_    0.526240 0.903980 0.922506 0.171394
H53   H     H_    0.029608 0.593004 0.421144 0.183320
H54   H     H_    0.014497 0.601577 0.079062 0.154528
H55   H     H_    0.014387 0.398099 0.579330 0.153711
H56   H     H_    0.027312 0.405117 0.922586 0.175840
O1    O     O_R   0.575450 0.828820 0.667950 -0.472698
O2    O     O_R   0.575450 0.828820 0.832050 -0.505118
O3    O     O_R   0.575450 0.171180 0.332050 -0.507416
O4    O     O_R   0.575450 0.171180 0.167950 -0.516285
O5    O     O_R   0.075450 0.328820 0.667950 -0.508767
O6    O     O_R   0.075450 0.328820 0.832050 -0.508021
O7    O     O_R   0.075450 0.671180 0.332050 -0.501033
O8    O     O_R   0.075450 0.671180 0.167950 -0.521672
O9    O     O_R   0.416860 0.942890 0.674680 -0.514605
O10   O     O_R   0.416860 0.942890 0.825320 -0.500575
O11   O     O_R   0.416860 0.057110 0.325320 -0.501009
O12   O     O_R   0.416860 0.057110 0.174680 -0.502631
O13   O     O_R   0.916860 0.442890 0.674680 -0.506781
O14   O     O_R   0.916860 0.442890 0.825320 -0.500297
O15   O     O_R   0.916860 0.557110 0.325320 -0.501478
O16   O     O_R   0.916860 0.557110 0.174680 -0.501095
O17   O     O_R   0.213790 0.953680 0.668330 -0.466280
O18   O     O_R   0.213790 0.953680 0.831670 -0.461690
O19   O     O_R   0.213790 0.046320 0.331670 -0.451129
O20   O     O_R   0.213790 0.046320 0.168330 -0.458613
O21   O     O_R   0.713790 0.453680 0.668330 -0.463229
O22   O     O_R   0.713790 0.453680 0.831670 -0.462337
O23   O     O_R   0.713790 0.546320 0.331670 -0.457757
O24   O     O_R   0.713790 0.546320 0.168330 -0.462043
O25   O     O_R   0.121360 0.817890 0.672660 -0.473175
O26   O     O_R   0.121360 0.817890 0.827340 -0.462568
O27   O     O_R   0.121360 0.182110 0.327340 -0.451208
O28   O     O_R   0.121360 0.182110 0.172660 -0.442436
O29   O     O_R   0.621360 0.317890 0.672660 -0.456312
O30   O     O_R   0.621360 0.317890 0.827340 -0.457878
O31   O     O_R   0.621360 0.682110 0.327340 -0.457223
O32   O     O_R   0.621360 0.682110 0.172660 -0.439090
O33   O     O_R   0.206850 0.711370 0.665820 -0.518623
O34   O     O_R   0.206850 0.711370 0.834180 -0.507211
O35   O     O_R   0.206850 0.288630 0.334180 -0.507304
O36   O     O_R   0.206850 0.288630 0.165820 -0.518904
O37   O     O_R   0.706850 0.211370 0.665820 -0.521154
O38   O     O_R   0.706850 0.211370 0.834180 -0.507750
O39   O     O_R   0.706850 0.788630 0.334180 -0.509556
O40   O     O_R   0.706850 0.788630 0.165820 -0.512288
O41   O     O_R   0.457710 0.733190 0.672630 -0.469912
O42   O     O_R   0.457710 0.733190 0.827370 -0.503246
O43   O     O_R   0.457710 0.266810 0.327370 -0.511648
O44   O     O_R   0.457710 0.266810 0.172630 -0.494712
O45   O     O_R   0.957710 0.233190 0.672630 -0.478648
O46   O     O_R   0.957710 0.233190 0.827370 -0.503253
O47   O     O_R   0.957710 0.766810 0.327370 -0.504396
O48   O     O_R   0.957710 0.766810 0.172630 -0.501176
O49   O     O_3   0.331690 0.831680 0.750000 -0.364812
O50   O     O_3   0.331690 0.168320 0.250000 -0.360843
O51   O     O_3   0.831690 0.331680 0.750000 -0.358754
O52   O     O_3   0.831690 0.668320 0.250000 -0.364449
O53   O     O_3   0.089074 0.871600 0.436259 -0.690514
H57   H     H_    0.149189 0.867754 0.398252 0.324571
O54   O     O_3   0.064162 0.877746 0.069483 -0.703372
H58   H     H_    0.125342 0.882949 0.109069 0.331480
O55   O     O_3   0.057300 0.127309 0.573453 -0.708292
H59   H     H_    0.128805 0.119030 0.605242 0.330520
O56   O     O_3   0.100070 0.126232 0.923587 -0.710101
H60   H     H_    0.175147 0.125669 0.896406 0.330778
O57   O     O_3   0.615141 0.373855 0.430320 -0.707117
H61   H     H_    0.673130 0.366485 0.391824 0.331656
O58   O     O_3   0.567791 0.376281 0.071165 -0.705892
H62   H     H_    0.629520 0.379673 0.110595 0.331869
O59   O     O_3   0.542695 0.635304 0.567897 -0.696480
H63   H     H_    0.614460 0.627548 0.599565 0.329657
O60   O     O_3   0.589079 0.624052 0.921771 -0.708819
H64   H     H_    0.660935 0.621014 0.891872 0.333518
O61   O     O_3   0.260058 0.666049 0.448880 -0.729576
H65   H     H_    0.303764 0.648211 0.491943 0.336653
O62   O     O_3   0.283434 0.697350 0.096821 -0.668795
H66   H     H_    0.273240 0.645322 0.087326 0.299675
O63   O     O_3   0.275395 0.304019 0.593980 -0.672278
H67   H     H_    0.277614 0.353831 0.578078 0.294755
O64   O     O_3   0.274232 0.328423 0.943089 -0.716006
H68   H     H_    0.313345 0.349430 0.986380 0.325421
O65   O     O_3   0.766151 0.166134 0.451384 -0.733850
H69   H     H_    0.806843 0.149773 0.495967 0.331107
O66   O     O_3   0.775928 0.191605 0.093670 -0.676908
H70   H     H_    0.767693 0.140979 0.080747 0.299996
O67   O     O_3   0.742966 0.830340 0.576074 -0.692762
H71   H     H_    0.777400 0.861447 0.539084 0.296848
O68   O     O_3   0.777813 0.822751 0.933858 -0.709877
H72   H     H_    0.814547 0.849020 0.974406 0.321963
O69   O     O_3   0.046145 0.085968 0.382299 -0.662429
H73   H     H_    0.974526 0.069177 0.354675 0.320328
O70   O     O_3   0.051659 0.088787 0.107685 -0.667604
H74   H     H_    0.986424 0.070557 0.137748 0.322210
O71   O     O_3   0.064881 0.905940 0.595628 -0.673402
H75   H     H_    0.996916 0.911583 0.628543 0.323369
O72   O     O_3   0.049516 0.912070 0.887162 -0.671841
H76   H     H_    0.984252 0.924472 0.851669 0.325311
O73   O     O_3   0.550926 0.590098 0.386812 -0.669361
H77   H     H_    0.484644 0.575393 0.353229 0.321872
O74   O     O_3   0.552651 0.588456 0.107087 -0.674877
H78   H     H_    0.488996 0.571656 0.139169 0.322638
O75   O     O_3   0.559103 0.408473 0.601951 -0.672154
H79   H     H_    0.490639 0.418124 0.633610 0.321822
O76   O     O_3   0.546888 0.413667 0.883484 -0.668100
H80   H     H_    0.483376 0.429713 0.848536 0.323728

loop_
_geom_bond_atom_site_label_1
_geom_bond_atom_site_label_2
_ccdc_geom_bond_type
C6    C32   S    
C7    C29   S    
C119  C143  S    
O66   H70   S    
C120  C144  S    
C110  C118  S    
C138  H34   S    
O71   H75   S    
Cr5   O18   S    
C4    O20   A    
C16   C144  S    
Cr8   O32   S    
C12   O64   S    
C57   C59   A    
Cr1   O9    S    
C58   C60   A    
O56   H60   S    
Cr6   O20   S    
C62   C70   A    
C1    O9    A    
C61   C63   A    
C91   O3    A    
C23   C103  S    
C49   C51   A    
C34   C42   A    
C50   C52   A    
C23   C89   S    
C128  H24   S    
C88   O40   A    
C97   C105  S    
C73   C75   A    
C42   C44   A    
C20   C132  S    
C21   C133  S    
Cr3   O14   S    
C83   O27   A    
Cr10  O43   S    
C45   C47   A    
C112  H8    S    
C46   C48   A    
C66   O72   S    
C115  C123  S    
C16   O68   S    
C42   H42   S    
C27   C57   A    
C57   C65   A    
C112  C120  S    
Cr11  O46   S    
C19   C99   S    
C29   C55   A    
C96   O8    A    
Cr7   O22   S    
C30   C56   A    
C100  C124  S    
Cr3   O5    S    
C15   C111  S    
C91   O43   A    
O72   H76   S    
C104  C128  S    
C86   O30   A    
Cr9   O34   S    
C12   C20   S    
C120  C128  S    
C142  H38   S    
C13   C21   S    
C85   C117  S    
C93   O45   A    
C73   H9    S    
C63   C71   A    
C113  C137  S    
C36   C44   A    
C33   C51   A    
C80   H16   S    
C37   C45   A    
C130  C138  S    
C70   O76   S    
C90   O2    A    
C36   C50   A    
C39   C47   A    
C40   C48   A    
C20   C94   S    
C133  C141  S    
C24   C90   S    
Cr8   O24   S    
C28   C58   A    
C98   C106  S    
C61   C69   A    
C33   C41   A    
C4    O12   A    
C7    O15   A    
C10   C18   S    
C5    O13   A    
C76   H12   S    
Cr4   O7    S    
C32   C62   A    
Cr1   O2    S    
C129  C137  S    
C126  C134  S    
Cr6   O27   S    
C83   O35   A    
C10   C138  S    
C100  O56   S    
C14   C142  S    
C85   O37   A    
C134  H30   S    
C69   C77   A    
Cr4   O16   S    
C71   C79   A    
Cr11  O37   S    
Cr12  O39   S    
C87   O39   A    
C33   H49   S    
C74   C76   A    
C105  C113  S    
C78   C80   A    
C79   H15   S    
C66   C74   A    
C78   H14   S    
C124  C132  S    
C93   O5    A    
C36   H52   S    
C97   C121  S    
C59   C67   A    
Cr12  O52   S    
C87   O31   A    
C35   C49   A    
C62   C64   A    
Cr2   O50   S    
C35   C43   A    
C133  H29   S    
C24   C136  S    
C135  C143  S    
C90   O42   A    
C84   C116  S    
O59   H63   S    
C136  H32   S    
C9    C137  S    
C135  H31   S    
C121  H17   S    
C100  C108  S    
C82   O34   A    
C9    O61   S    
C83   C115  S    
C103  C127  S    
C11   O63   S    
C41   H41   S    
C3    O19   A    
C104  C112  S    
C65   O71   S    
C122  H18   S    
C126  H22   S    
C38   H54   S    
C87   C119  S    
O67   H71   S    
Cr7   O29   S    
Cr2   O12   S    
C95   O7    A    
C37   H53   S    
O65   H69   S    
C141  H37   S    
Cr4   O52   S    
C15   C143  S    
C44   H44   S    
C40   C54   A    
Cr1   O49   S    
C10   C106  S    
C67   C75   A    
C14   C110  S    
C3    O11   A    
C69   O75   S    
Cr9   O41   S    
C102  C126  S    
C123  H19   S    
O54   H58   S    
C144  H40   S    
C68   C76   A    
C38   C56   A    
C48   H48   S    
C84   O36   A    
C127  H23   S    
C14   C22   S    
Cr11  O51   S    
C72   C80   A    
C11   C107  S    
C94   O46   A    
C81   O25   A    
C114  C138  S    
C38   C46   A    
C131  C139  S    
C2    O18   A    
C37   C55   A    
C113  C121  S    
Cr10  O35   S    
C14   O66   S    
C22   C92   S    
C25   C59   A    
C26   C60   A    
C27   C49   A    
C119  C127  S    
C29   C63   A    
C30   C64   A    
C41   C43   A    
C31   C61   A    
O58   H62   S    
O76   H80   S    
Cr3   O13   S    
C109  C117  S    
Cr10  O44   S    
C11   C19   S    
C127  C135  S    
C139  H35   S    
C128  C136  S    
Cr11  O45   S    
C101  C109  S    
Cr7   O21   S    
C2    O10   A    
C103  C111  S    
Cr5   O49   S    
C11   C139  S    
C131  H27   S    
C105  H1    S    
Cr9   O33   S    
O60   H64   S    
C12   C140  S    
C17   C95   S    
C13   C141  S    
C102  O58   S    
C88   C120  S    
Cr2   O3    S    
C19   C93   S    
Cr7   O51   S    
Cr12  O47   S    
Cr8   O52   S    
C77   C79   A    
C45   H45   S    
O55   H59   S    
C67   O69   S    
C104  O60   S    
C32   C54   A    
C110  H6    S    
C7    O23   A    
O74   H78   S    
C3    C25   S    
Cr8   O31   S    
O68   H72   S    
Cr1   O10   S    
C99   O55   S    
Cr6   O19   S    
C10   O62   S    
C117  C141  S    
O70   H74   S    
O63   H67   S    
Cr10  O50   S    
C134  C142  S    
C107  H3    S    
O64   H68   S    
C20   C100  S    
C96   O48   A    
C143  H39   S    
C85   O29   A    
Cr5   O26   S    
C47   H47   S    
C86   C118  S    
Cr4   O8    S    
Cr6   O50   S    
Cr1   O1    S    
C8    O24   A    
C35   H51   S    
C106  C114  S    
Cr6   O28   S    
C102  C110  S    
C74   H10   S    
C16   C112  S    
C89   O1    A    
C21   C91   S    
C116  C124  S    
C123  C131  S    
C121  C129  S    
C88   O32   A    
C4    C26   S    
Cr12  O40   S    
C132  C140  S    
C99   C107  S    
C40   H56   S    
C34   C52   A    
C23   C135  S    
C8    C30   S    
C108  C116  S    
Cr5   O17   S    
C136  C144  S    
Cr3   O6    S    
C132  H28   S    
C39   C53   A    
C6    O14   A    
C92   O4    A    
C46   H46   S    
C60   C68   A    
O73   H77   S    
C81   C113  S    
Cr5   O25   S    
C124  H20   S    
C9    C105  S    
C86   O38   A    
Cr9   O42   S    
C13   O65   S    
C70   C78   A    
C18   C96   S    
O69   H73   S    
C71   O73   S    
Cr8   O23   S    
O75   H79   S    
C34   H50   S    
C95   O47   A    
C22   C134  S    
C111  C119  S    
C94   O6    A    
C65   C73   A    
C5    C31   S    
C72   O74   S    
C28   C50   A    
C58   C66   A    
C13   C109  S    
O53   H57   S    
C21   C101  S    
C15   C23   S    
C12   C108  S    
C16   C24   S    
C89   O41   A    
C101  O57   S    
C84   O28   A    
Cr4   O15   S    
Cr11  O38   S    
C53   C55   A    
C19   C131  S    
C68   O70   S    
C54   C56   A    
C17   C129  S    
C81   O33   A    
C111  H7    S    
C82   C114  S    
C130  H26   S    
O61   H65   S    
C106  H2    S    
C24   C104  S    
C25   C51   A    
C26   C52   A    
C75   H11   S    
C101  C125  S    
C98   O54   S    
C125  C133  S    
O57   H61   S    
C39   H55   S    
C31   C53   A    
C107  C115  S    
C137  H33   S    
C9    C17   S    
Cr10  O36   S    
C125  H21   S    
C140  H36   S    
C103  O59   S    
C92   O44   A    
O62   H66   S    
Cr9   O49   S    
C99   C123  S    
C97   O53   S    
C129  H25   S    
C15   O67   S    
C115  C139  S    
C118  C142  S    
C2    C28   S    
C108  H4    S    
C118  C126  S    
C22   C102  S    
C43   H43   S    
C109  H5    S    
Cr7   O30   S    
Cr2   O11   S    
C17   C97   S    
C8    O16   A    
C82   O26   A    
C64   C72   A    
C6    O22   A    
C18   C130  S    
C114  C122  S    
C1    O17   A    
C98   C122  S    
C77   H13   S    
C1    C27   S    
C5    O21   A    
C18   C98   S    
C116  C140  S    
C117  C125  S    
Cr3   O51   S    
C122  C130  S    
Cr2   O4    S    
Cr12  O48   S    
