data_mof_unit_44980.cif
_audit_creation_date              2012-12-10T16:39:36-0500
_audit_creation_method            fapswitch 2.2
_symmetry_space_group_name_H-M    P1
_symmetry_Int_Tables_number       1
_space_group_crystal_system       triclinic
_cell_length_a                    16.786932
_cell_length_b                    16.786932
_cell_length_c                    16.786929
_cell_angle_alpha                 66.199323
_cell_angle_beta                  66.19932
_cell_angle_gamma                 66.199348
_cell_volume                      3792.94137159

loop_
_atom_site_label
_atom_site_type_symbol
_atom_type_description
_atom_site_fract_x
_atom_site_fract_y
_atom_site_fract_z
_atom_type_partial_charge
C1    C     C_R   0.328416 0.942304 0.460595 0.010385
C2    C     C_R   0.328416 0.460595 0.942304 0.010385
C3    C     C_R   0.547095 0.413403 0.985361 0.015449
C4    C     C_R   0.014639 0.452905 0.586597 0.015449
C5    C     C_R   0.985361 0.547095 0.413403 0.015449
C6    C     C_1   0.267905 0.031905 0.807466 0.186137
C7    C     C_1   0.732095 0.968095 0.192534 0.186136
C8    C     C_1   0.031905 0.807466 0.267905 0.186136
C9    C     C_1   0.968095 0.192534 0.732095 0.186136
C10   C     C_1   0.807466 0.267905 0.031905 0.186136
C11   C     C_1   0.192534 0.732095 0.968095 0.186136
C12   C     C_1   0.192534 0.968095 0.732095 0.186136
C13   C     C_R   0.057696 0.671584 0.539405 0.010385
C14   C     C_1   0.807466 0.031905 0.267904 0.186136
C15   C     C_1   0.732095 0.192534 0.968095 0.186136
C16   C     C_1   0.267905 0.807465 0.031905 0.186136
C17   C     C_1   0.968095 0.732095 0.192534 0.186136
C18   C     C_1   0.031905 0.267905 0.807466 0.186137
C19   C     C_1   0.388517 0.136386 0.753452 0.210697
C20   C     C_1   0.611483 0.863614 0.246548 0.210697
C21   C     C_1   0.136386 0.753452 0.388516 0.210697
C22   C     C_1   0.863614 0.246548 0.611483 0.210697
C23   C     C_1   0.753452 0.388516 0.136386 0.210697
C24   C     C_R   0.942304 0.328416 0.460595 0.010385
C25   C     C_1   0.246548 0.611483 0.863614 0.210697
C26   C     C_1   0.246548 0.863614 0.611483 0.210697
C27   C     C_1   0.753452 0.136386 0.388516 0.210697
C28   C     C_1   0.611483 0.246548 0.863614 0.210697
C29   C     C_1   0.388517 0.753452 0.136386 0.210697
C30   C     C_1   0.863614 0.611483 0.246548 0.210697
C31   C     C_1   0.136386 0.388517 0.753452 0.210697
C32   C     C_R   0.459747 0.972665 0.459747 -0.024337
C33   C     C_R   0.540253 0.027335 0.540253 -0.024337
C34   C     C_R   0.972665 0.459747 0.459747 -0.024337
C35   C     C_R   0.027335 0.540253 0.540253 -0.024337
C36   C     C_R   0.459747 0.459747 0.972665 -0.024337
C37   C     C_R   0.540253 0.540253 0.027335 -0.024337
C38   C     C_R   0.963314 0.179500 0.437432 0.898876
C39   C     C_R   0.671584 0.057696 0.539405 0.010385
C40   C     C_R   0.036686 0.820500 0.562568 0.898875
C41   C     C_R   0.179500 0.437432 0.963314 0.898875
C42   C     C_R   0.820500 0.562568 0.036686 0.898875
C43   C     C_R   0.437432 0.963314 0.179500 0.898876
C44   C     C_R   0.562568 0.036686 0.820500 0.898875
C45   C     C_R   0.562568 0.820500 0.036686 0.898876
C46   C     C_R   0.437432 0.179500 0.963314 0.898876
C47   C     C_R   0.036686 0.562568 0.820500 0.898875
C48   C     C_R   0.963314 0.437432 0.179500 0.898875
C49   C     C_R   0.820500 0.036686 0.562568 0.898875
C50   C     C_R   0.942304 0.460595 0.328416 0.010385
C51   C     C_R   0.179500 0.963314 0.437432 0.898875
C52   C     C_R   0.416086 0.953005 0.416086 0.038460
C53   C     C_R   0.583914 0.046995 0.583914 0.038460
C54   C     C_R   0.953005 0.416086 0.416086 0.038460
C55   C     C_R   0.046995 0.583914 0.583914 0.038460
C56   C     C_R   0.416086 0.416086 0.953004 0.038460
C57   C     C_R   0.583914 0.583914 0.046995 0.038460
C58   C     C_R   0.278629 0.941415 0.408735 -0.120150
C59   C     C_R   0.721371 0.058585 0.591265 -0.120150
C60   C     C_R   0.941415 0.408735 0.278629 -0.120150
C61   C     C_R   0.057696 0.539405 0.671584 0.010385
C62   C     C_R   0.058585 0.591265 0.721371 -0.120150
C63   C     C_R   0.408734 0.278629 0.941415 -0.120150
C64   C     C_R   0.591266 0.721371 0.058585 -0.120150
C65   C     C_R   0.591265 0.058585 0.721371 -0.120150
C66   C     C_R   0.408735 0.941415 0.278629 -0.120150
C67   C     C_R   0.721371 0.591266 0.058585 -0.120150
C68   C     C_R   0.278629 0.408734 0.941415 -0.120150
C69   C     C_R   0.058585 0.721371 0.591265 -0.120150
C70   C     C_R   0.941415 0.278629 0.408735 -0.120150
C71   C     C_R   0.444655 0.069100 0.704703 -0.042425
C72   C     C_R   0.460595 0.328416 0.942304 0.010385
C73   C     C_R   0.555345 0.930900 0.295297 -0.042426
C74   C     C_R   0.069100 0.704703 0.444655 -0.042426
C75   C     C_R   0.930900 0.295297 0.555345 -0.042425
C76   C     C_R   0.704703 0.444655 0.069100 -0.042425
C77   C     C_R   0.295297 0.555345 0.930900 -0.042425
C78   C     C_R   0.295297 0.930900 0.555345 -0.042426
C79   C     C_R   0.704703 0.069100 0.444655 -0.042426
C80   C     C_R   0.555345 0.295297 0.930900 -0.042426
C81   C     C_R   0.444655 0.704703 0.069100 -0.042425
C82   C     C_R   0.930900 0.555345 0.295297 -0.042425
C83   C     C_R   0.539405 0.671584 0.057696 0.010385
C84   C     C_R   0.069100 0.444655 0.704703 -0.042425
C85   C     C_R   0.320826 0.936954 0.320826 -0.266313
C86   C     C_R   0.679174 0.063046 0.679174 -0.266313
C87   C     C_R   0.936954 0.320826 0.320826 -0.266313
C88   C     C_R   0.063046 0.679174 0.679174 -0.266313
C89   C     C_R   0.320826 0.320826 0.936954 -0.266312
C90   C     C_R   0.679174 0.679174 0.063046 -0.266312
C91   C     C_R   0.670737 0.034464 0.404251 -0.007716
C92   C     C_R   0.329263 0.965536 0.595749 -0.007716
C93   C     C_R   0.034464 0.404251 0.670737 -0.007716
C94   C     C_R   0.539405 0.057696 0.671584 0.010385
C95   C     C_R   0.965536 0.595749 0.329263 -0.007716
C96   C     C_R   0.404251 0.670737 0.034464 -0.007716
C97   C     C_R   0.595749 0.329263 0.965536 -0.007716
C98   C     C_R   0.595749 0.965536 0.329263 -0.007716
C99   C     C_R   0.404251 0.034464 0.670737 -0.007716
C100  C     C_R   0.329263 0.595749 0.965536 -0.007716
C101  C     C_R   0.670737 0.404251 0.034464 -0.007716
C102  C     C_R   0.965536 0.329263 0.595749 -0.007716
C103  C     C_R   0.034464 0.670737 0.404251 -0.007716
C104  C     C_R   0.718255 0.017992 0.317987 -0.061319
C105  C     C_R   0.460595 0.942304 0.328416 0.010385
C106  C     C_R   0.281745 0.982008 0.682013 -0.061319
C107  C     C_R   0.017992 0.317987 0.718255 -0.061319
C108  C     C_R   0.982008 0.682013 0.281745 -0.061319
C109  C     C_R   0.317987 0.718255 0.017992 -0.061319
C110  C     C_R   0.682013 0.281745 0.982008 -0.061319
C111  C     C_R   0.682013 0.982008 0.281745 -0.061319
C112  C     C_R   0.317987 0.017992 0.718255 -0.061319
C113  C     C_R   0.281745 0.682013 0.982008 -0.061319
C114  C     C_R   0.718255 0.317987 0.017991 -0.061319
C115  C     C_R   0.982009 0.281745 0.682013 -0.061319
C116  C     C_R   0.671584 0.539405 0.057696 0.010385
C117  C     C_R   0.017991 0.718255 0.317987 -0.061319
C118  C     C_R   0.547095 0.985361 0.413403 0.015449
C119  C     C_R   0.452905 0.014639 0.586597 0.015449
C120  C     C_R   0.985361 0.413403 0.547095 0.015449
C121  C     C_R   0.014639 0.586597 0.452905 0.015449
C122  C     C_R   0.413403 0.547095 0.985361 0.015449
C123  C     C_R   0.586597 0.452905 0.014639 0.015449
C124  C     C_R   0.586597 0.014639 0.452905 0.015449
C125  C     C_R   0.413403 0.985361 0.547095 0.015449
C126  C     C_R   0.452905 0.586597 0.014639 0.015449
H1    H     H_    0.282014 0.937830 0.282014 0.211557
H2    H     H_    0.717986 0.062170 0.717986 0.211557
H3    H     H_    0.937830 0.282014 0.282014 0.211557
H4    H     H_    0.062170 0.717986 0.717986 0.211557
H5    H     H_    0.282014 0.282014 0.937830 0.211557
H6    H     H_    0.717986 0.717986 0.062170 0.211557
N1    N     N_1   0.227567 0.043277 0.878337 -0.159596
N2    N     N_1   0.227567 0.878337 0.043278 -0.159596
N3    N     N_1   0.956722 0.772433 0.121663 -0.159596
N4    N     N_1   0.043278 0.227567 0.878337 -0.159596
N5    N     N_1   0.344649 0.190081 0.792495 -0.182126
N6    N     N_1   0.655351 0.809919 0.207505 -0.182126
N7    N     N_1   0.190081 0.792495 0.344649 -0.182126
N8    N     N_1   0.809919 0.207505 0.655351 -0.182126
N9    N     N_1   0.792494 0.344649 0.190081 -0.182126
N10   N     N_1   0.207505 0.655351 0.809919 -0.182126
N11   N     N_1   0.207505 0.809919 0.655351 -0.182126
N12   N     N_1   0.772433 0.956722 0.121663 -0.159596
N13   N     N_1   0.792495 0.190081 0.344649 -0.182126
N14   N     N_1   0.655351 0.207505 0.809919 -0.182126
N15   N     N_1   0.344649 0.792494 0.190081 -0.182126
N16   N     N_1   0.809919 0.655351 0.207505 -0.182126
N17   N     N_1   0.190081 0.344649 0.792494 -0.182126
N18   N     N_1   0.043277 0.878337 0.227567 -0.159596
N19   N     N_1   0.956723 0.121663 0.772433 -0.159596
N20   N     N_1   0.878337 0.227567 0.043277 -0.159596
N21   N     N_1   0.121663 0.772433 0.956723 -0.159596
N22   N     N_1   0.121663 0.956722 0.772433 -0.159596
N23   N     N_1   0.878337 0.043278 0.227567 -0.159596
N24   N     N_1   0.772433 0.121663 0.956722 -0.159596
O1    O     O_R   0.982940 0.138950 0.510160 -0.626521
O2    O     O_R   0.982940 0.510160 0.138950 -0.626521
O3    O     O_R   0.861050 0.017060 0.489840 -0.626521
O4    O     O_R   0.138950 0.982940 0.510160 -0.626521
O5    O     O_R   0.867700 0.025880 0.612340 -0.613462
O6    O     O_R   0.132300 0.974120 0.387660 -0.613463
O7    O     O_R   0.025880 0.612340 0.867700 -0.613463
O8    O     O_R   0.974120 0.387660 0.132300 -0.613463
O9    O     O_R   0.612340 0.867700 0.025880 -0.613463
O10   O     O_R   0.387660 0.132300 0.974120 -0.613463
O11   O     O_R   0.387660 0.974120 0.132300 -0.613463
O12   O     O_R   0.017060 0.861050 0.489840 -0.626521
O13   O     O_R   0.612340 0.025880 0.867700 -0.613463
O14   O     O_R   0.132300 0.387660 0.974120 -0.613463
O15   O     O_R   0.867700 0.612340 0.025880 -0.613463
O16   O     O_R   0.974120 0.132300 0.387660 -0.613462
O17   O     O_R   0.025880 0.867700 0.612340 -0.613462
O18   O     O_R   0.138950 0.510160 0.982940 -0.626521
O19   O     O_R   0.861050 0.489840 0.017060 -0.626521
O20   O     O_R   0.510160 0.982940 0.138950 -0.626521
O21   O     O_R   0.489840 0.017060 0.861050 -0.626521
O22   O     O_R   0.489840 0.861050 0.017060 -0.626521
O23   O     O_R   0.510160 0.138950 0.982940 -0.626521
O24   O     O_R   0.017060 0.489840 0.861050 -0.626521
Zn1   Zn    Zn3+2 0.004880 0.004880 0.583590 1.024180
Zn2   Zn    Zn3+2 0.995120 0.995120 0.416410 1.024180
Zn3   Zn    Zn3+2 0.004880 0.583590 0.004880 1.024180
Zn4   Zn    Zn3+2 0.995120 0.416410 0.995120 1.024180
Zn5   Zn    Zn3+2 0.583590 0.004880 0.004880 1.024180
Zn6   Zn    Zn3+2 0.416410 0.995120 0.995120 1.024180

loop_
_geom_bond_atom_site_label_1
_geom_bond_atom_site_label_2
_ccdc_geom_bond_type
C41   O18   A    
C38   C70   S    
C122  C126  A    
C1    C78   A    
C5    C121  A    
C14   N23   T    
C4    C120  A    
C19   C71   S    
C25   N10   T    
C64   C90   A    
C91   C104  A    
C16   N2    T    
C92   C125  A    
C66   C85   A    
C24   C70   A    
O20   Zn5   S    
C71   C94   A    
C106  C112  A    
C50   C54   A    
C13   C69   A    
C77   C100  A    
C25   C77   S    
O15   Zn3   S    
C80   C97   A    
O6    Zn2   S    
C6    N1    T    
C2    C68   A    
C42   O19   A    
C62   C88   A    
C40   O17   A    
C31   N17   T    
C24   C54   A    
C22   N8    T    
C51   O4    A    
C28   N14   T    
C51   O6    A    
C20   N6    T    
C44   O13   A    
C32   C52   A    
C10   N20   T    
C102  C115  A    
C5    C95   A    
C37   C123  A    
C73   C105  A    
C33   C119  A    
C27   N13   T    
C56   C72   A    
C17   N3    T    
C75   C102  A    
C57   C83   A    
C18   N4    T    
C98   C111  A    
C88   H4    S    
C41   C68   S    
O2    Zn3   S    
C110  C114  A    
C49   O5    A    
C10   C114  S    
C109  C113  A    
C47   O7    A    
C4    C35   A    
O17   Zn1   S    
O3    Zn2   S    
C34   C120  A    
C101  C114  A    
C15   C110  S    
C44   C65   S    
C103  C117  A    
O1    Zn1   S    
C22   C75   S    
C47   C62   S    
C11   C113  S    
C70   C87   A    
C46   O23   A    
C7    N12   T    
C81   C83   A    
C60   C87   A    
C3    C123  A    
C16   C109  S    
C48   C60   S    
C57   C116  A    
C33   C53   A    
C73   C98   A    
C40   C69   S    
C86   H2    S    
C9    C115  S    
C65   C86   A    
C8    C117  S    
O21   Zn6   S    
C95   C108  A    
C17   C108  S    
C32   C118  A    
C81   C96   A    
C78   C92   A    
O11   Zn6   S    
C48   O2    A    
C21   C74   S    
C35   C55   A    
O9    Zn5   S    
C31   C84   S    
C39   C79   A    
C32   C125  A    
C30   C82   S    
C8    N18   T    
C67   C116  A    
C64   C83   A    
C29   C81   S    
C47   O24   A    
O8    Zn4   S    
C33   C124  A    
C43   O20   A    
C3    C97   A    
C14   C104  S    
C35   C121  A    
C19   N5    T    
C39   C59   A    
C5    C34   A    
C63   C89   A    
C68   C89   A    
C96   C126  A    
C51   C58   S    
C118  C124  A    
C18   C107  S    
C30   N16   T    
C107  C115  A    
C15   N24   T    
C69   C88   A    
C45   O22   A    
C101  C123  A    
O23   Zn5   S    
C119  C125  A    
C92   C106  A    
C65   C94   A    
C52   C105  A    
C34   C54   A    
O12   Zn2   S    
C91   C124  A    
C42   C67   S    
C85   H1    S    
C21   N7    T    
C66   C105  A    
C26   N11   T    
C103  C121  A    
C58   C85   A    
O4    Zn1   S    
C102  C120  A    
C50   C82   A    
C37   C126  A    
C41   O14   A    
C76   C101  A    
C9    N19   T    
C82   C95   A    
C46   O10   A    
O14   Zn4   S    
C53   C94   A    
O10   Zn6   S    
C79   C91   A    
C108  C117  A    
C23   N9    T    
C100  C113  A    
C38   O1    A    
C12   N22   T    
C61   C84   A    
C49   C59   S    
C44   O21   A    
C29   N15   T    
C104  C111  A    
C24   C75   A    
C38   O16   A    
C48   O8    A    
C43   O11   A    
C99   C119  A    
C96   C109  A    
C45   C64   S    
C27   C79   S    
C89   H5    S    
C46   C63   S    
C50   C60   A    
C87   H3    S    
C59   C86   A    
C90   H6    S    
C72   C80   A    
C36   C122  A    
C2    C56   A    
C1    C58   A    
C93   C107  A    
C12   C106  S    
C97   C110  A    
C39   C53   A    
C71   C99   A    
C3    C36   A    
C43   C66   S    
C99   C112  A    
C55   C61   A    
C98   C118  A    
C36   C56   A    
C76   C116  A    
C7    C111  S    
C20   C73   S    
C100  C122  A    
C84   C93   A    
C67   C90   A    
O7    Zn3   S    
O5    Zn1   S    
C61   C62   A    
C28   C80   S    
C1    C52   A    
C40   O12   A    
C42   O15   A    
C11   N21   T    
O13   Zn5   S    
C4    C93   A    
O22   Zn6   S    
O16   Zn2   S    
C63   C72   A    
C13   C74   A    
C2    C77   A    
C23   C76   S    
C49   O3    A    
C6    C112  S    
C13   C55   A    
O18   Zn3   S    
C45   O9    A    
C37   C57   A    
O24   Zn4   S    
C26   C78   S    
C74   C103  A    
O19   Zn4   S    
