data_mof_unit_36856.cif
_audit_creation_date              2012-12-11T15:54:04-0500
_audit_creation_method            fapswitch 2.2
_symmetry_space_group_name_H-M    P1
_symmetry_Int_Tables_number       1
_space_group_crystal_system       triclinic
_cell_length_a                    10.69107
_cell_length_b                    10.704226
_cell_length_c                    17.010335
_cell_angle_alpha                 80.330603
_cell_angle_beta                  99.36042
_cell_angle_gamma                 118.903337
_cell_volume                      1672.46196688

loop_
_atom_site_label
_atom_site_type_symbol
_atom_type_description
_atom_site_fract_x
_atom_site_fract_y
_atom_site_fract_z
_atom_type_partial_charge
C1    C     C_R   0.384547 0.284349 0.631786 0.557897
C2    C     C_1   0.333519 0.186773 0.781512 -0.054985
C3    C     C_1   0.370206 0.636972 0.274857 -0.056426
C4    C     C_R   0.369502 0.654820 0.586048 0.548995
C5    C     C_1   0.342995 0.654845 0.204275 -0.040808
C6    C     C_R   0.842211 0.667358 0.161529 -0.007426
C7    C     C_R   0.904059 0.600402 0.220564 0.083079
C8    C     C_R   0.898166 0.600392 0.300239 -0.013718
C9    C     C_R   0.776191 0.745922 0.264702 -0.170672
C10   C     C_R   0.782949 0.745625 0.183770 -0.190118
C11   C     C_3   0.876229 0.447831 0.230614 0.012888
C12   C     C_R   0.394352 0.830547 0.674079 -0.135757
C13   C     C_3   0.876886 0.449696 0.319520 -0.247327
C14   C     C_R   0.826857 0.665994 0.323219 0.004113
C15   C     C_R   0.320505 0.163247 0.160864 0.017273
C16   C     C_R   0.781138 0.620999 0.626188 0.548255
C17   C     C_R   0.209176 0.163401 0.193785 0.008594
C18   C     C_R   0.217305 0.172700 0.273612 0.024381
C19   C     C_R   0.450942 0.183408 0.291898 -0.150559
C20   C     C_R   0.444171 0.176763 0.210100 -0.160572
C21   C     C_3   0.057110 0.046566 0.194884 -0.246173
C22   C     C_3   0.065700 0.062714 0.281938 -0.273879
C23   C     C_R   0.377821 0.852468 0.749801 -0.151588
C24   C     C_R   0.334795 0.177927 0.323917 0.021077
C25   C     C_R   0.947316 0.725153 0.851495 0.538718
C26   C     C_R   0.282382 0.750944 0.882650 0.549983
C27   C     C_R   0.286494 0.118534 0.858421 0.534268
C28   C     C_R   0.352006 0.226172 0.400257 0.549437
C29   C     C_R   0.884518 0.689116 0.082773 0.555193
C30   C     C_R   0.316140 0.697241 0.122728 0.570861
C31   C     C_R   0.285806 0.108510 0.084516 0.549323
C32   C     C_R   0.403383 0.625396 0.358909 0.564577
C33   C     C_R   0.771757 0.623178 0.399837 0.547751
C34   C     C_3   0.128754 0.458330 0.793574 -0.246831
C35   C     C_R   0.281177 0.737576 0.798416 0.000611
C36   C     C_R   0.181858 0.612949 0.762853 0.011257
C37   C     C_R   0.198741 0.590727 0.688347 0.012498
C38   C     C_3   0.955952 0.325296 0.157686 -0.273311
C39   C     C_3   0.147664 0.434147 0.711838 -0.251587
C40   C     C_R   0.315109 0.692983 0.646865 0.013765
C41   C     C_1   0.850515 0.669287 0.702571 -0.034352
C42   C     C_1   0.897514 0.704006 0.769152 -0.035767
C43   C     C_1   0.364920 0.233579 0.714226 -0.055965
Cr1   Cr    Cr6+3 0.608440 0.389080 0.519680 1.007842
Cr2   Cr    Cr6+3 0.288640 0.400090 0.490760 1.005110
Cr3   Cr    Cr6+3 0.602940 0.710800 0.489510 1.012156
Cr4   Cr    Cr6+3 0.052530 0.947560 0.964210 1.014240
Cr5   Cr    Cr6+3 0.059970 0.626800 0.992920 1.007888
Cr6   Cr    Cr6+3 0.373320 0.938440 0.995370 1.006118
H1    H     H_    0.479668 0.916648 0.641264 0.149147
H2    H     H_    0.055946 0.966253 0.322692 0.146312
H3    H     H_    0.448533 0.955034 0.772665 0.142699
H4    H     H_    0.014582 0.405639 0.806433 0.151131
H5    H     H_    0.203023 0.440217 0.842366 0.158900
H6    H     H_    0.233231 0.403103 0.713638 0.147885
H7    H     H_    0.044540 0.367026 0.677682 0.151217
H8    H     H_    0.722069 0.800067 0.280707 0.148853
H9    H     H_    0.743664 0.806626 0.139152 0.137336
H10   H     H_    0.072289 0.437564 0.255724 0.260088
H11   H     H_    0.054409 0.329522 0.141448 0.150664
H12   H     H_    0.769504 0.375424 0.201280 0.124466
H13   H     H_    0.894781 0.343217 0.101597 0.171307
H14   H     H_    0.888439 0.218131 0.188468 0.106838
H15   H     H_    0.771734 0.371188 0.341051 0.138308
H16   H     H_    0.970052 0.446118 0.357841 0.145900
H17   H     H_    0.545163 0.191203 0.329999 0.128480
H18   H     H_    0.530051 0.172324 0.186644 0.124000
H19   H     H_    0.050156 0.943207 0.185723 0.172872
H20   H     H_    0.979274 0.075043 0.155600 0.132494
H21   H     H_    0.999212 0.109735 0.294361 0.143607
N1    N     N_2   0.995548 0.434844 0.209716 -0.473223
O1    O     O_R   0.754020 0.497590 0.609930 -0.511833
O2    O     O_R   0.406180 0.826930 0.920660 -0.506559
O3    O     O_R   0.358620 0.062870 0.901950 -0.518171
O4    O     O_R   0.481420 0.271390 0.600630 -0.488212
O5    O     O_R   0.163910 0.085460 0.050210 -0.521283
O6    O     O_R   0.935200 0.815170 0.045770 -0.501453
O7    O     O_R   0.916120 0.596690 0.069430 -0.498818
O8    O     O_R   0.192310 0.631200 0.086170 -0.471878
O9    O     O_R   0.406770 0.819480 0.096420 -0.514521
O10   O     O_R   0.359170 0.055960 0.064880 -0.501222
O11   O     O_3   0.161940 0.837600 0.984160 -0.287215
O12   O     O_R   0.295080 0.533620 0.397890 -0.504231
O13   O     O_R   0.263810 0.254550 0.589590 -0.507828
O14   O     O_R   0.300820 0.531200 0.560890 -0.509540
O15   O     O_R   0.491480 0.744020 0.564270 -0.513963
O16   O     O_R   0.726290 0.693800 0.583010 -0.492716
O17   O     O_R   0.747830 0.500190 0.434090 -0.522248
O18   O     O_R   0.475680 0.273800 0.437630 -0.506802
O19   O     O_R   0.257620 0.257160 0.413750 -0.518872
O20   O     O_R   0.485280 0.746620 0.388440 -0.507950
O21   O     O_R   0.720550 0.696220 0.420010 -0.524601
O22   O     O_3   0.500010 0.499990 0.499980 -0.285205
O23   O     O_R   0.163320 0.092900 0.874450 -0.512164
O24   O     O_R   0.934650 0.822080 0.882840 -0.480214
O25   O     O_R   0.915520 0.604140 0.893670 -0.516457
O26   O     O_R   0.191760 0.638110 0.923230 -0.515654

loop_
_geom_bond_atom_site_label_1
_geom_bond_atom_site_label_2
_ccdc_geom_bond_type
C8    C13   S    
C41   C42   T    
C20   H18   S    
C19   C20   A    
C16   O1    A    
Cr2   O22   S    
C14   C33   S    
C23   H3    S    
C7    C8    A    
C13   H16   S    
C1    O13   A    
C7    C11   S    
Cr5   O26   S    
C13   H15   S    
C12   C23   A    
C18   C24   A    
Cr5   O8    S    
C36   C37   A    
C10   H9    S    
C33   O17   A    
Cr4   O5    S    
C38   H14   S    
C37   C40   A    
C11   N1    S    
C32   O20   A    
Cr3   O21   S    
Cr6   O10   S    
C26   O2    A    
C19   H17   S    
Cr4   O11   S    
Cr5   O7    S    
Cr1   O22   S    
C1    C43   S    
C39   H6    S    
C29   O7    A    
C4    C40   S    
C16   O16   A    
C2    C27   S    
C27   O3    A    
C9    C10   A    
C34   C36   S    
C30   O9    A    
C21   C22   S    
Cr2   O12   S    
C15   C20   A    
C34   C39   S    
C1    O4    A    
C33   O21   A    
C4    O14   A    
C11   H12   S    
C17   C21   S    
C21   H20   S    
C35   C36   A    
Cr6   O11   S    
C12   C40   A    
Cr1   O4    S    
Cr2   O14   S    
C9    C14   A    
C39   H7    S    
C2    C43   T    
C17   C18   A    
Cr2   O19   S    
C28   O18   A    
C25   O25   A    
C38   H11   S    
C30   O8    A    
C25   O24   A    
C23   C35   A    
C21   H19   S    
Cr6   O2    S    
Cr2   O13   S    
Cr4   O6    S    
C4    O15   A    
Cr3   O16   S    
C15   C17   A    
C32   O12   A    
C38   N1    S    
C8    C14   A    
Cr5   O25   S    
C18   C22   S    
C24   C28   S    
C3    C5    T    
C25   C42   S    
C6    C10   A    
C12   H1    S    
C15   C31   S    
C6    C7    A    
Cr3   O20   S    
C31   O10   A    
Cr6   O9    S    
C19   C24   A    
C37   C39   S    
C11   C13   S    
C34   H5    S    
C31   O5    A    
Cr3   O22   S    
Cr4   O23   S    
Cr5   O11   S    
Cr1   O1    S    
C9    H8    S    
C3    C32   S    
C26   O26   A    
C26   C35   S    
C6    C29   S    
C29   O6    A    
C34   H4    S    
C5    C30   S    
Cr4   O24   S    
Cr6   O3    S    
C27   O23   A    
C28   O19   A    
C38   H13   S    
Cr1   O17   S    
C16   C41   S    
C22   H21   S    
Cr1   O18   S    
H10   N1    S    
C22   H2    S    
Cr3   O15   S    
