data_mof_unit_51045.cif
_audit_creation_date              2012-12-10T17:16:16-0500
_audit_creation_method            fapswitch 2.2
_symmetry_space_group_name_H-M    P1
_symmetry_Int_Tables_number       1
_space_group_crystal_system       triclinic
_cell_length_a                    19.398526
_cell_length_b                    13.144047
_cell_length_c                    11.768396
_cell_angle_alpha                 99.026091
_cell_angle_beta                  92.947091
_cell_angle_gamma                 91.952789
_cell_volume                      2956.86924957

loop_
_atom_site_label
_atom_site_type_symbol
_atom_type_description
_atom_site_fract_x
_atom_site_fract_y
_atom_site_fract_z
_atom_type_partial_charge
C1    C     C_R   0.497538 0.299000 0.480354 0.827152
C2    C     C_R   0.500024 0.699767 0.520660 0.828973
C3    C     C_R   0.502221 0.811882 0.531940 -0.083332
C4    C     C_R   0.493156 0.184904 0.472922 -0.097665
C5    C     C_R   0.460479 0.016771 0.360674 -0.276092
C6    C     C_R   0.547693 0.976163 0.633495 -0.276409
C7    C     C_R   0.470265 0.122947 0.367408 0.128686
C8    C     C_R   0.545168 0.869646 0.620807 0.130522
C9    C     C_R   0.510703 0.135086 0.569824 -0.002649
C10   C     C_R   0.464287 0.862351 0.452658 -0.008810
C11   C     C_R   0.513705 0.026887 0.552145 0.081312
C12   C     C_R   0.479705 0.968121 0.453766 0.103479
C13   C     C_R   0.440723 0.391414 0.025723 -0.009973
C14   C     C_R   0.571561 0.595521 0.970957 0.001625
C15   C     C_R   0.446299 0.404415 0.147203 0.014824
C16   C     C_R   0.563726 0.581692 0.849300 0.014514
C17   C     C_R   0.526526 0.546412 0.155221 0.300238
C18   C     C_R   0.468426 0.464555 0.848025 0.289424
C19   C     C_R   0.527459 0.534114 0.032217 -0.038825
C20   C     C_R   0.479536 0.461060 0.967790 -0.031855
C21   C     C_R   0.367106 0.500794 0.499641 0.773091
C22   C     C_R   0.632747 0.498534 0.499218 0.788663
C23   C     C_R   0.256422 0.486248 0.595008 -0.242013
C24   C     C_R   0.738838 0.503194 0.390869 -0.231382
C25   C     C_R   0.184374 0.483040 0.598326 0.113239
C26   C     C_R   0.809986 0.496914 0.378248 0.106318
C27   C     C_R   0.144279 0.494086 0.497710 0.008596
C28   C     C_R   0.853053 0.481162 0.473534 0.001966
C29   C     C_R   0.176742 0.508934 0.398055 -0.195366
C30   C     C_R   0.824398 0.470779 0.577743 -0.186384
C31   C     C_R   0.248928 0.511624 0.393307 0.075825
C32   C     C_R   0.753259 0.477847 0.592273 0.082742
C33   C     C_R   0.289957 0.500541 0.495441 -0.101149
C34   C     C_R   0.709319 0.493950 0.495933 -0.107676
C35   C     C_R   0.928630 0.479878 0.471338 0.396197
C36   C     C_R   0.068361 0.489803 0.491057 0.397771
Cu1   Cu    Cu3+1 0.505120 0.507730 0.615930 0.918720
Cu2   Cu    Cu3+1 0.494880 0.492270 0.384070 0.924170
H1    H     H_    0.286384 0.475959 0.671180 0.146807
H2    H     H_    0.706256 0.515060 0.316875 0.155509
H3    H     H_    0.144061 0.515629 0.322692 0.147603
H4    H     H_    0.859392 0.459274 0.648510 0.145942
H5    H     H_    0.439221 0.972601 0.280382 0.148461
H6    H     H_    0.578854 0.018175 0.705527 0.168695
H7    H     H_    0.595995 0.624193 0.799792 0.155127
H8    H     H_    0.417075 0.354972 0.193661 0.154069
N1    N     N_R   0.033435 0.559470 0.439334 -0.249731
N2    N     N_R   0.963578 0.409681 0.522089 -0.245129
N3    N     N_R   0.964753 0.555125 0.430500 -0.242306
N4    N     N_R   0.032237 0.414009 0.530817 -0.244406
N5    N     N_R   0.512830 0.519350 0.790130 -0.209285
N6    N     N_R   0.487170 0.480650 0.209870 -0.203323
O1    O     O_R   0.503640 0.354460 0.582000 -0.612685
O2    O     O_R   0.496360 0.645540 0.418000 -0.616440
O3    O     O_R   0.494980 0.341410 0.386200 -0.539988
O4    O     O_R   0.505020 0.658590 0.613800 -0.543188
O5    O     O_R   0.404470 0.506520 0.597930 -0.593082
O6    O     O_R   0.595530 0.493480 0.402070 -0.589108
O7    O     O_R   0.395820 0.493460 0.402130 -0.602604
O8    O     O_R   0.604180 0.506540 0.597870 -0.601130
C37   C     C_3   0.394548 0.302978 0.958562 -0.387993
C38   C     C_3   0.383362 0.208178 0.017179 -0.402113
C39   C     C_3   0.345124 0.120210 0.935366 -0.852959
H9    H     H_    0.293897 0.144829 0.905909 0.258050
H10   H     H_    0.375693 0.095695 0.859263 0.248504
H11   H     H_    0.337147 0.053220 0.980868 0.242858
H12   H     H_    0.434457 0.181414 0.043140 0.233146
H13   H     H_    0.351834 0.227678 0.093034 0.217760
H14   H     H_    0.343327 0.332731 0.937267 0.216996
H15   H     H_    0.419325 0.273737 0.877906 0.224443
C40   C     C_3   0.626626 0.674337 0.033089 -0.386281
C41   C     C_3   0.674876 0.727440 0.958323 -0.412048
C42   C     C_3   0.728102 0.800353 0.032822 -0.844083
H16   H     H_    0.701938 0.861610 0.088675 0.254505
H17   H     H_    0.760446 0.757187 0.087655 0.258471
H18   H     H_    0.762195 0.837288 0.976695 0.245450
H19   H     H_    0.702832 0.669673 0.901423 0.225313
H20   H     H_    0.644245 0.773616 0.904696 0.223499
H21   H     H_    0.599724 0.737748 0.084148 0.228009
H22   H     H_    0.659732 0.634986 0.091239 0.219239
C43   C     C_3   0.152782 0.468994 0.710599 -0.409422
C44   C     C_3   0.120826 0.568120 0.767673 -0.330508
C45   C     C_3   0.083308 0.550109 0.874137 -0.848493
H23   H     H_    0.039351 0.493218 0.849216 0.260496
H24   H     H_    0.119100 0.520993 0.937154 0.251923
H25   H     H_    0.062835 0.623732 0.915922 0.243073
H26   H     H_    0.162372 0.628969 0.793516 0.214709
H27   H     H_    0.083299 0.596504 0.706753 0.230902
H28   H     H_    0.114126 0.403541 0.695668 0.222551
H29   H     H_    0.192824 0.447480 0.772670 0.185986
C46   C     C_3   0.837333 0.503097 0.261185 -0.404808
C47   C     C_3   0.843827 0.615324 0.240826 -0.323955
C48   C     C_3   0.880704 0.623849 0.130997 -0.849965
H30   H     H_    0.933793 0.595333 0.137537 0.264162
H31   H     H_    0.851723 0.578307 0.055070 0.258696
H32   H     H_    0.884469 0.705762 0.118395 0.240718
H33   H     H_    0.791494 0.646465 0.233744 0.203470
H34   H     H_    0.873487 0.663170 0.314729 0.242823
H35   H     H_    0.887952 0.466570 0.252290 0.210656
H36   H     H_    0.801680 0.458267 0.192956 0.186469
C49   C     C_3   0.281325 0.523933 0.279763 -0.364981
C50   C     C_3   0.232715 0.545937 0.179703 -0.403267
C51   C     C_3   0.273683 0.565305 0.077076 -0.851476
H37   H     H_    0.310648 0.632468 0.102279 0.252788
H38   H     H_    0.302706 0.496349 0.044816 0.257863
H39   H     H_    0.237890 0.581912 0.006307 0.245550
H40   H     H_    0.196193 0.478725 0.150928 0.221231
H41   H     H_    0.202987 0.615337 0.207800 0.231465
H42   H     H_    0.320268 0.589031 0.297327 0.220750
H43   H     H_    0.307341 0.451675 0.248445 0.212917
C52   C     C_3   0.724706 0.468826 0.708952 -0.371074
C53   C     C_3   0.776194 0.445393 0.804594 -0.384691
C54   C     C_3   0.741052 0.441870 0.917337 -0.868775
H44   H     H_    0.688746 0.404400 0.901173 0.267626
H45   H     H_    0.736036 0.520830 0.964290 0.256061
H46   H     H_    0.772661 0.398622 0.973294 0.241904
H47   H     H_    0.798565 0.369348 0.776658 0.226962
H48   H     H_    0.818423 0.506050 0.822083 0.219818
H49   H     H_    0.700935 0.542447 0.741132 0.205983
H50   H     H_    0.684671 0.405375 0.694831 0.204710
C55   C     C_3   0.401009 0.809786 0.381238 -0.408799
C56   C     C_3   0.334764 0.865777 0.415171 -0.348758
C57   C     C_3   0.269953 0.806800 0.357404 -0.865221
H51   H     H_    0.274398 0.789067 0.262705 0.259908
H52   H     H_    0.261786 0.734378 0.393055 0.262269
H53   H     H_    0.224282 0.854273 0.374896 0.248547
H54   H     H_    0.330996 0.874992 0.510197 0.224172
H55   H     H_    0.335784 0.943669 0.390082 0.227813
H56   H     H_    0.408335 0.806464 0.287798 0.185101
H57   H     H_    0.392263 0.729463 0.395842 0.213020
C58   C     C_3   0.512323 0.188449 0.695138 -0.364302
C59   C     C_3   0.584811 0.229506 0.743699 -0.323414
C60   C     C_3   0.595150 0.221593 0.871760 -0.888187
H58   H     H_    0.561592 0.275583 0.923246 0.265174
H59   H     H_    0.582878 0.141909 0.887119 0.248847
H60   H     H_    0.649844 0.240542 0.901612 0.247056
H61   H     H_    0.625420 0.185905 0.696321 0.213287
H62   H     H_    0.591603 0.311456 0.733387 0.236897
H63   H     H_    0.474331 0.248536 0.708015 0.191330
H64   H     H_    0.491195 0.133353 0.748631 0.188856
N7    N     N_3   0.585354 0.820637 0.700572 -0.591792
H65   H     H_    0.569710 0.847614 0.783201 0.210143
H66   H     H_    0.637249 0.843673 0.697276 0.209045
N8    N     N_3   0.453105 0.167346 0.267028 -0.586931
H67   H     H_    0.484620 0.134928 0.202714 0.213440
H68   H     H_    0.401691 0.145607 0.240874 0.203526
N9    N     N_3   0.402569 0.429293 0.795249 -0.644138
H69   H     H_    0.407278 0.382179 0.716619 0.249774
H70   H     H_    0.374763 0.494683 0.788619 0.234376
N10   N     N_3   0.560850 0.635957 0.220869 -0.640135
H71   H     H_    0.592830 0.619626 0.288429 0.262498
H72   H     H_    0.525076 0.691728 0.244934 0.236713

loop_
_geom_bond_atom_site_label_1
_geom_bond_atom_site_label_2
_ccdc_geom_bond_type
C37   H15   S    
C30   C32   A    
C39   H10   S    
C49   C50   S    
C32   C52   S    
C27   C29   A    
C14   C40   S    
N9    H69   S    
C16   N5    A    
C55   H57   S    
C10   C55   S    
C40   H21   S    
C43   C44   S    
C47   H34   S    
C57   H51   S    
N1    N3    A    
C41   H19   S    
C38   H12   S    
C31   C49   S    
N9    H70   S    
Cu1   Cu2   S    
C24   C26   A    
C21   O7    A    
N7    H66   S    
C22   O8    A    
C53   H47   S    
Cu1   N5    S    
C44   H27   S    
C57   H52   S    
C21   C33   S    
C59   H62   S    
C44   H26   S    
C36   N1    A    
C52   H49   S    
C42   H16   S    
C56   H54   S    
C1    O1    A    
C53   C54   S    
C41   H20   S    
C58   H64   S    
C17   C19   A    
Cu2   O6    S    
Cu1   O4    S    
Cu2   O3    S    
C52   C53   S    
C28   C35   S    
C59   C60   S    
C23   C33   A    
C35   N3    A    
C60   H60   S    
C31   C33   A    
C50   H41   S    
C8    N7    S    
C46   H36   S    
C18   C20   A    
C54   H46   S    
Cu1   O1    S    
N2    N4    A    
C5    H5    S    
C39   H11   S    
C48   H31   S    
C6    H6    S    
C25   C43   S    
C42   H17   S    
C50   C51   S    
C4    C7    A    
C35   N2    A    
C17   N6    A    
C7    N8    S    
C47   H33   S    
C9    C58   S    
C22   C34   S    
C5    C12   A    
N8    H68   S    
C3    C8    A    
C2    O2    A    
C6    C11   A    
C5    C7    A    
C41   C42   S    
C57   H53   S    
C6    C8    A    
C59   H61   S    
C24   C34   A    
C39   H9    S    
C52   H50   S    
C32   C34   A    
C21   O5    A    
C38   C39   S    
C45   H23   S    
Cu2   O2    S    
C13   C37   S    
C50   H40   S    
C51   H38   S    
C48   H30   S    
C15   N6    A    
C9    C11   A    
C55   C56   S    
C10   C12   A    
C43   H29   S    
C45   H24   S    
C18   N9    S    
C48   H32   S    
C13   C15   A    
C60   H58   S    
C27   C36   S    
C42   H18   S    
C14   C16   A    
C58   C59   S    
C46   C47   S    
C36   N4    A    
C54   H44   S    
C37   H14   S    
C13   C20   A    
C29   H3    S    
C14   C19   A    
C49   H43   S    
C55   H56   S    
N8    H67   S    
C16   H7    S    
C22   O6    A    
C40   H22   S    
C11   C12   A    
C56   H55   S    
C56   C57   S    
C18   N5    A    
C25   C27   A    
C26   C28   A    
C38   H13   S    
C1    C4    S    
C19   C20   A    
C28   C30   A    
C2    C3    S    
C26   C46   S    
C43   H28   S    
C40   C41   S    
C29   C31   A    
C3    C10   A    
C2    O4    A    
N7    H65   S    
C53   H48   S    
C23   H1    S    
C47   C48   S    
C24   H2    S    
C51   H39   S    
N10   H72   S    
C23   C25   A    
C1    O3    A    
C37   C38   S    
Cu1   O8    S    
C58   H63   S    
Cu2   O7    S    
C45   H25   S    
Cu2   N6    S    
C44   C45   S    
C51   H37   S    
C60   H59   S    
N10   H71   S    
C30   H4    S    
C15   H8    S    
C46   H35   S    
C4    C9    A    
C49   H42   S    
Cu1   O5    S    
C54   H45   S    
C17   N10   S    
