data_mof_unit_9602.cif
_audit_creation_date              2013-03-05T15:40:19-0500
_audit_creation_method            fapswitch 2.2
_symmetry_space_group_name_H-M    P1
_symmetry_Int_Tables_number       1
_space_group_crystal_system       triclinic
_cell_length_a                    11.182348
_cell_length_b                    11.254529
_cell_length_c                    18.701336
_cell_angle_alpha                 90.268751
_cell_angle_beta                  90.365956
_cell_angle_gamma                 120.000894
_cell_volume                      2038.13441647

loop_
_atom_site_label
_atom_site_type_symbol
_atom_site_description
_atom_site_fract_x
_atom_site_fract_y
_atom_site_fract_z
_atom_type_partial_charge
O1    O     O_R   0.434100 0.092480 0.829780 -0.454087
O2    O     O_R   0.907520 0.341620 0.829780 -0.451581
O3    O     O_R   0.658380 0.565900 0.829780 -0.447672
O4    O     O_R   0.092480 0.434100 0.170220 -0.449561
O5    O     O_R   0.341620 0.907520 0.170220 -0.447978
O6    O     O_R   0.565900 0.658380 0.170220 -0.456021
O7    O     O_R   0.477510 0.362730 0.824640 -0.464202
O8    O     O_R   0.637270 0.114780 0.824640 -0.456649
O9    O     O_R   0.885220 0.522490 0.824640 -0.460712
O10   O     O_R   0.362730 0.477510 0.175360 -0.459535
O11   O     O_R   0.114780 0.637270 0.175360 -0.465910
O12   O     O_R   0.522490 0.885220 0.175360 -0.463572
C1    C     C_R   0.541547 0.478864 0.852823 0.574482
C2    C     C_R   0.521736 0.063248 0.852966 0.582010
C3    C     C_R   0.937432 0.458679 0.852967 0.570086
C4    C     C_R   0.478394 0.541391 0.147018 0.574320
C5    C     C_R   0.062324 0.521015 0.147149 0.570127
C6    C     C_R   0.458392 0.937002 0.147155 0.580833
O13   O     O_R   0.432250 0.092620 0.670380 -0.430867
O14   O     O_R   0.907380 0.339630 0.670380 -0.453694
O15   O     O_R   0.660370 0.567750 0.670380 -0.454537
O16   O     O_R   0.092620 0.432250 0.329620 -0.444514
O17   O     O_R   0.339630 0.907380 0.329620 -0.453465
O18   O     O_R   0.567750 0.660370 0.329620 -0.450382
O19   O     O_R   0.475790 0.362860 0.676880 -0.487901
O20   O     O_R   0.637140 0.112930 0.676880 -0.441825
O21   O     O_R   0.887070 0.524210 0.676880 -0.494505
O22   O     O_R   0.362860 0.475790 0.323120 -0.469708
O23   O     O_R   0.112930 0.637140 0.323120 -0.495155
O24   O     O_R   0.524210 0.887070 0.323120 -0.470094
C7    C     C_R   0.539072 0.482268 0.650828 0.568227
C8    C     C_R   0.551125 0.137235 0.641408 0.565690
C9    C     C_R   0.935566 0.455109 0.647508 0.555178
C10   C     C_R   0.479938 0.546836 0.353625 0.588190
C11   C     C_R   0.058301 0.518109 0.349638 0.573933
C12   C     C_R   0.459882 0.941446 0.350370 0.598562
C13   C     C_2   0.983218 0.485530 0.574013 -0.124565
C14   C     C_2   0.486475 0.509109 0.585375 -0.098687
C15   C     C_2   0.555631 0.134114 0.562993 -0.154376
C16   C     C_2   0.511581 0.020603 0.416522 -0.054646
C17   C     C_2   0.495699 0.521748 0.428604 -0.118023
C18   C     C_2   0.986364 0.494321 0.416955 -0.099141
C19   C     C_2   0.953724 0.379505 0.453617 0.134229
C20   C     C_2   0.585931 0.626212 0.472174 0.123840
C21   C     C_2   0.460916 0.099199 0.440999 0.166130
C22   C     C_2   0.448500 0.109485 0.519127 0.130972
C23   C     C_2   0.565783 0.626715 0.550362 0.141587
C24   C     C_2   0.980324 0.385656 0.531558 0.123615
Cr1   Cr    Cr6+3 0.464030 0.233680 0.750360 1.187189
Cr2   Cr    Cr6+3 0.766320 0.230350 0.750360 1.199596
Cr3   Cr    Cr6+3 0.769650 0.535970 0.750360 1.173528
Cr4   Cr    Cr6+3 0.233680 0.464030 0.249640 1.203979
Cr5   Cr    Cr6+3 0.230350 0.766320 0.249640 1.187388
Cr6   Cr    Cr6+3 0.535970 0.769650 0.249640 1.202429
H1    H     H_    0.000977 0.587018 0.442500 0.114406
H2    H     H_    0.409473 0.429847 0.449362 0.134337
H3    H     H_    0.566658 0.988258 0.452224 0.132423
H4    H     H_    0.653848 0.157534 0.539860 0.111373
H5    H     H_    0.406203 0.418616 0.559112 0.143627
H6    H     H_    0.981190 0.573302 0.552330 0.112409
O25   O     O_3   0.666667 0.333333 0.749450 -0.364834
O26   O     O_3   0.333333 0.666667 0.250550 -0.343753
C25   C     C_2   0.005524 0.507207 0.922397 -0.134921
C26   C     C_2   0.493485 0.499448 0.921717 -0.133985
C27   C     C_2   0.502719 0.996507 0.922091 -0.133859
C28   C     C_2   0.506087 0.004773 0.078320 -0.130860
C29   C     C_2   0.497363 0.493310 0.077683 -0.131144
C30   C     C_2   0.993215 0.500565 0.077997 -0.132773
C31   C     C_2   0.007523 0.609035 0.039673 0.137212
C32   C     C_2   0.387500 0.401654 0.037838 0.137253
C33   C     C_2   0.600867 0.990973 0.039644 0.137806
C34   C     C_2   0.612350 0.013688 0.961837 0.137759
C35   C     C_2   0.398217 0.391352 0.959830 0.138138
C36   C     C_2   0.988520 0.599612 0.961462 0.137398
H7    H     H_    0.952755 0.400107 0.053266 0.140988
H8    H     H_    0.598966 0.551773 0.054195 0.136071
H9    H     H_    0.445781 0.045631 0.054165 0.135925
H10   H     H_    0.400965 0.953611 0.945503 0.133518
H11   H     H_    0.554133 0.600028 0.946420 0.137929
H12   H     H_    0.047520 0.448253 0.946630 0.139419
N1    N     N_R   0.910829 0.252399 0.415465 0.121097
O27   O     O_R   0.816379 0.213023 0.365693 -0.308263
O28   O     O_R   0.981248 0.189360 0.421449 -0.165836
N2    N     N_R   0.706811 0.742211 0.443395 0.148675
O29   O     O_R   0.802199 0.725238 0.413676 -0.262640
O30   O     O_R   0.720192 0.863860 0.445528 -0.226887
N3    N     N_R   0.399053 0.153742 0.392836 0.102102
O31   O     O_R   0.299278 0.172974 0.413792 -0.236030
O32   O     O_R   0.451665 0.196945 0.329923 -0.301407
N4    N     N_R   0.314110 0.071579 0.546206 0.143791
O33   O     O_R   0.208231 0.955033 0.526656 -0.239982
O34   O     O_R   0.293065 0.162447 0.577862 -0.248349
N5    N     N_R   0.648475 0.752039 0.590514 0.130397
O35   O     O_R   0.591822 0.787104 0.640749 -0.284609
O36   O     O_R   0.782146 0.820302 0.584022 -0.179375
N6    N     N_R   0.999475 0.278790 0.561830 0.147011
O37   O     O_R   0.898968 0.152060 0.560682 -0.201502
O38   O     O_R   0.112402 0.310511 0.597111 -0.264080
N7    N     N_R   0.039098 0.736826 0.073638 0.141242
O39   O     O_R   0.133066 0.852566 0.046982 -0.232034
O40   O     O_R   0.958573 0.738123 0.123224 -0.241321
N8    N     N_R   0.257017 0.308465 0.069917 0.139622
O41   O     O_R   0.142786 0.290825 0.041377 -0.240574
O42   O     O_R   0.251113 0.223772 0.118800 -0.223386
N9    N     N_R   0.696200 0.956685 0.072827 0.139864
O43   O     O_R   0.717029 0.862993 0.044277 -0.234066
O44   O     O_R   0.779255 0.035271 0.123280 -0.229479
N10   N     N_R   0.743338 0.051478 0.929843 0.139631
O45   O     O_R   0.856963 0.147445 0.959056 -0.239862
O46   O     O_R   0.750390 0.973508 0.880377 -0.224663
N11   N     N_R   0.301777 0.263114 0.925824 0.141016
O47   O     O_R   0.279560 0.147843 0.953249 -0.231333
O48   O     O_R   0.219825 0.260917 0.875432 -0.239180
N12   N     N_R   0.954214 0.694241 0.928335 0.141523
O49   O     O_R   0.858523 0.713798 0.955510 -0.236139
O50   O     O_R   0.034395 0.777553 0.879508 -0.239393

loop_
_geom_bond_atom_site_label_1
_geom_bond_atom_site_label_2
_geom_bond_distance
_ccdc_geom_bond_type
O19   C7    1.266365 A    
N3    O31   1.300600 A    
O20   C8    1.302587 A    
N5    O35   1.301460 A    
N11   O47   1.301292 A    
O9    Cr3   1.948839 S    
O10   Cr4   1.960573 S    
N12   O49   1.301219 A    
C21   C22   1.478020 S    
O21   C9    1.273650 A    
C30   H7    1.085243 S    
O16   C11   1.261134 A    
O24   Cr6   1.952201 S    
O4    Cr4   2.060584 S    
O5    Cr5   2.085172 S    
C21   N3    1.445176 S    
N2    O30   1.301142 A    
O20   Cr2   1.941650 S    
O18   Cr6   2.079352 S    
C36   N12   1.441154 S    
N10   O45   1.301017 A    
C8    C15   1.468503 S    
C11   C18   1.450646 S    
O14   Cr2   2.084545 S    
O2    Cr2   2.059743 S    
C34   N10   1.440481 S    
C30   C31   1.357901 D    
N6    O38   1.301432 A    
C26   C35   1.358214 D    
C35   N11   1.441037 S    
C16   H3    1.085762 S    
C19   C24   1.480121 S    
O3    C1    1.258357 A    
C20   C23   1.481325 S    
O22   C10   1.272060 A    
N5    O36   1.301552 A    
O1    C2    1.254958 A    
C10   C17   1.458529 S    
O6    Cr6   2.072266 S    
O13   C8    1.287244 A    
N1    O28   1.301634 A    
O21   Cr3   1.955774 S    
O17   Cr5   2.065233 S    
O19   Cr1   1.961940 S    
C25   H12   1.085280 S    
C16   C21   1.346724 D    
Cr1   O25   1.962634 S    
C12   C16   1.457337 S    
N2    O29   1.301344 A    
O7    Cr1   1.954824 S    
O3    Cr3   2.075016 S    
O5    C6    1.255589 A    
Cr6   O26   1.962774 S    
C15   H4    1.086522 S    
N1    O27   1.301458 A    
C17   H2    1.077686 S    
C18   H1    1.080356 S    
N9    O44   1.301765 A    
Cr5   O26   1.968724 S    
O13   Cr1   2.071379 S    
N4    O34   1.299420 A    
C28   C33   1.357926 D    
N6    O37   1.301643 A    
O15   C7    1.258751 A    
C32   C35   1.473297 S    
C23   N5    1.444031 S    
C31   C36   1.472341 S    
N11   O48   1.301777 A    
C4    C29   1.459743 S    
C13   C24   1.360082 D    
N8    O42   1.301772 A    
O2    C3    1.260035 A    
C14   C23   1.344924 D    
C15   C22   1.355793 D    
O14   C9    1.252483 A    
C31   N7    1.441305 S    
N7    O40   1.301789 A    
C33   N9    1.440726 S    
C19   N1    1.444089 S    
C17   C20   1.363252 D    
C18   C19   1.346463 D    
O4    C5    1.260431 A    
O8    Cr2   1.967099 S    
O15   Cr3   2.068141 S    
O16   Cr4   2.079481 S    
C28   H9    1.085556 S    
O11   C5    1.247550 A    
C5    C30   1.459193 S    
O8    C2    1.244351 A    
C27   H10   1.085573 S    
C24   N6    1.440601 S    
C20   N2    1.439554 S    
O11   Cr5   1.946895 S    
N12   O50   1.301781 A    
C32   N8    1.440694 S    
C22   N4    1.437878 S    
C25   C36   1.357892 D    
C6    C28   1.460999 S    
C27   C34   1.357474 D    
N9    O43   1.301203 A    
O23   C11   1.267063 A    
C7    C14   1.451714 S    
O24   C12   1.262406 A    
C29   C32   1.357340 D    
N3    O32   1.301915 A    
O9    C3    1.247476 A    
C33   C34   1.473833 S    
Cr4   O26   1.975114 S    
N7    O39   1.301315 A    
Cr3   O25   1.974973 S    
O22   Cr4   1.942755 S    
N4    O33   1.301114 A    
C1    C26   1.460505 S    
O23   Cr5   1.964405 S    
C26   H11   1.085402 S    
C2    C27   1.460651 S    
N10   O46   1.301752 A    
N8    O41   1.301027 A    
C9    C13   1.456573 S    
C13   H6    1.080184 S    
O6    C4    1.257050 A    
C14   H5    1.076888 S    
O7    C1    1.245652 A    
O17   C12   1.257838 A    
O12   C6    1.243939 A    
Cr2   O25   1.969006 S    
C3    C25   1.459056 S    
O18   C10   1.246887 A    
O10   C4    1.246246 A    
C29   H8    1.085469 S    
O1    Cr1   2.083264 S    
O12   Cr6   1.963301 S    
