data_mof_unit_66567.cif
_audit_creation_date              2012-12-10T16:46:47-0500
_audit_creation_method            fapswitch 2.2
_symmetry_space_group_name_H-M    P1
_symmetry_Int_Tables_number       1
_space_group_crystal_system       triclinic
_cell_length_a                    15.875206
_cell_length_b                    8.781088
_cell_length_c                    7.816807
_cell_angle_alpha                 104.162884
_cell_angle_beta                  96.426692
_cell_angle_gamma                 94.866188
_cell_volume                      1042.76902527

loop_
_atom_site_label
_atom_site_type_symbol
_atom_type_description
_atom_site_fract_x
_atom_site_fract_y
_atom_site_fract_z
_atom_type_partial_charge
C1    C     C_R   0.499069 0.200942 0.453496 0.817483
C2    C     C_3   0.959048 0.466418 0.683245 0.333078
C3    C     C_3   0.918226 0.529941 0.523186 0.099240
C4    C     C_3   0.962665 0.710057 0.540066 0.139045
C5    C     C_3   0.068232 0.709757 0.571560 0.127796
C6    C     C_1   0.825147 0.526622 0.519377 0.082172
C7    C     C_1   0.176720 0.509882 0.499084 0.065709
C8    C     C_1   0.251584 0.501775 0.495235 -0.057801
C9    C     C_2   0.496177 0.031330 0.433753 -0.360778
C10   C     C_2   0.525186 0.971420 0.571291 0.132843
C11   C     C_R   0.341153 0.498392 0.498184 0.788280
C12   C     C_R   0.508087 0.800138 0.547838 0.791994
C13   C     C_R   0.658837 0.506221 0.502811 0.767026
C14   C     C_3   0.055006 0.434006 0.648059 -0.181466
C15   C     C_3   0.032586 0.445715 0.333884 -0.562695
C16   C     C_3   0.937485 0.409266 0.351185 0.051140
C17   C     C_1   0.748934 0.519444 0.511248 -0.140162
C18   C     C_3   0.085900 0.527332 0.515295 -0.013422
Cu1   Cu    Cu3+1 0.509300 0.517380 0.684380 1.006770
Cu2   Cu    Cu3+1 0.490700 0.482620 0.315620 1.006548
H1    H     H_    0.462614 0.955455 0.309318 0.184597
H2    H     H_    0.050926 0.308879 0.568747 0.132940
H3    H     H_    0.039065 0.535242 0.266805 0.249317
H4    H     H_    0.058034 0.337551 0.261005 0.204726
H5    H     H_    0.932119 0.287270 0.367839 0.155906
N1    N     N_2   0.476670 0.456430 0.038530 -0.222033
N2    N     N_2   0.523330 0.543570 0.961470 -0.223065
O1    O     O_R   0.506050 0.286130 0.619770 -0.546800
O2    O     O_R   0.490330 0.256780 0.308370 -0.585733
O3    O     O_R   0.387300 0.514690 0.655770 -0.556882
O4    O     O_R   0.371580 0.485340 0.344370 -0.566836
O5    O     O_R   0.509670 0.743220 0.691630 -0.589434
O6    O     O_R   0.493950 0.713870 0.380230 -0.571927
O7    O     O_R   0.628420 0.514660 0.655630 -0.577841
O8    O     O_R   0.612700 0.485310 0.344230 -0.579425
N3    N     N_2   0.914177 0.314679 0.693895 -0.425111
H6    H     H_    0.928966 0.216147 0.606460 0.282834
C19   C     C_3   0.825535 0.289304 0.720582 -0.718690
H7    H     H_    0.783916 0.251657 0.590369 0.205207
H8    H     H_    0.803525 0.393138 0.807415 0.257761
H9    H     H_    0.817436 0.188998 0.782050 0.240752
C20   C     C_2   0.119756 0.417950 0.800600 0.870344
O9    O     O_2   0.183723 0.512287 0.857166 -0.566559
O10   O     O_R   0.104460 0.293599 0.879328 -0.777891
H10   H     H_    0.149533 0.297443 0.983543 0.331441
N4    N     N_2   0.953362 0.589442 0.842645 -0.413784
H11   H     H_    0.892597 0.597611 0.875105 0.301903
C21   C     C_3   0.013372 0.611873 0.996418 -0.661445
H12   H     H_    0.990116 0.690021 0.106968 0.249040
H13   H     H_    0.075136 0.671794 0.988930 0.293534
H14   H     H_    0.021385 0.493803 0.010600 0.253227
N5    N     N_2   0.936558 0.755453 0.373457 -0.470941
H15   H     H_    0.969907 0.858757 0.366327 0.282591
C22   C     C_3   0.847463 0.765497 0.312351 -0.652021
H16   H     H_    0.812117 0.647765 0.252612 0.302454
H17   H     H_    0.843816 0.828006 0.204429 0.224342
H18   H     H_    0.815201 0.832507 0.420748 0.222951
N6    N     N_2   0.580987 0.070599 0.722776 -0.397523
H19   H     H_    0.631852 0.135040 0.691655 0.244941
C23   C     C_3   0.598536 0.023456 0.886795 -0.513099
H20   H     H_    0.632249 0.125618 0.992149 0.205529
H21   H     H_    0.640058 0.926666 0.868526 0.212532
H22   H     H_    0.538157 0.987959 0.933458 0.282573
C24   C     C_2   0.412968 0.340347 0.929540 1.109589
O11   O     O_2   0.428632 0.204052 0.879617 -0.615080
O12   O     O_R   0.329900 0.376958 0.898914 -0.723024
H23   H     H_    0.289688 0.282314 0.824127 0.315077
C25   C     C_2   0.598342 0.632955 0.063707 1.101593
O13   O     O_2   0.666176 0.577421 0.055004 -0.645102
O14   O     O_R   0.596319 0.789164 0.158536 -0.799756
H24   H     H_    0.654578 0.842148 0.221719 0.293547
N7    N     N_2   0.878976 0.402895 0.191145 -0.392484
H25   H     H_    0.906833 0.405478 0.080214 0.306558
C26   C     C_3   0.807533 0.278873 0.146871 -0.716835
H26   H     H_    0.828599 0.164594 0.079337 0.223312
H27   H     H_    0.756371 0.310321 0.057703 0.262852
H28   H     H_    0.780454 0.262263 0.266491 0.225718
N8    N     N_2   0.112362 0.769656 0.755988 -0.438947
H29   H     H_    0.175218 0.747509 0.762154 0.288566
C27   C     C_3   0.111834 0.924382 0.875747 -0.592792
H30   H     H_    0.054222 0.929773 0.943561 0.248061
H31   H     H_    0.121765 0.018688 0.807968 0.318969
H32   H     H_    0.165805 0.946049 0.985799 0.192280
C28   C     C_2   0.113732 0.808747 0.461319 0.788358
O15   O     O_2   0.112162 0.951999 0.496406 -0.599474
O16   O     O_R   0.158238 0.739203 0.323187 -0.778174
H33   H     H_    0.185306 0.818819 0.265064 0.340663
C29   C     C_2   0.932476 0.840186 0.683130 0.875505
O17   O     O_2   0.871762 0.814986 0.759595 -0.646906
O18   O     O_R   0.966684 0.996261 0.706896 -0.756307
H34   H     H_    0.947822 0.069386 0.813970 0.347030

loop_
_geom_bond_atom_site_label_1
_geom_bond_atom_site_label_2
_ccdc_geom_bond_type
C15   C18   S    
C14   C18   S    
Cu1   Cu2   S    
C16   N7    S    
C3    C6    S    
C7    C8    T    
C2    N4    S    
N1    N2    D    
C26   H27   S    
C4    N5    S    
C23   H22   S    
N3    H6    S    
C10   N6    S    
C28   O16   S    
C13   O8    A    
C19   H7    S    
N8    C27   S    
N6    C23   S    
C15   C16   S    
C23   H21   S    
N1    C24   S    
N2    C25   S    
C22   H16   S    
Cu2   O8    S    
C21   H14   S    
C11   O3    A    
C25   O13   D    
C26   H28   S    
C1    O1    A    
O14   H24   S    
Cu1   N2    S    
C9    C10   D    
C14   C20   S    
C15   H3    S    
O12   H23   S    
C11   O4    A    
C12   O5    A    
C20   O10   S    
C27   H32   S    
Cu1   O5    S    
N5    C22   S    
N4    C21   S    
Cu2   O2    S    
C22   H17   S    
C26   H26   S    
C1    C9    S    
C28   O15   D    
C19   H9    S    
N7    C26   S    
C5    C28   S    
N8    H29   S    
C27   H30   S    
C5    C18   S    
N6    H19   S    
C23   H20   S    
C24   O12   S    
C7    C18   S    
C1    O2    A    
Cu1   O1    S    
C10   C12   S    
Cu2   O6    S    
C27   H31   S    
C21   H12   S    
C29   O18   S    
C20   O9    D    
C3    C4    S    
N5    H15   S    
C2    N3    S    
C16   H5    S    
C6    C17   T    
N4    H11   S    
C15   H4    S    
O16   H33   S    
O10   H10   S    
N7    H25   S    
Cu1   O7    S    
C4    C29   S    
C13   C17   S    
C24   O11   D    
C14   H2    S    
N3    C19   S    
C2    C3    S    
C12   O6    A    
C13   O7    A    
C19   H8    S    
C9    H1    S    
O18   H34   S    
Cu2   N1    S    
C8    C11   S    
C21   H13   S    
C2    C14   S    
C4    C5    S    
C29   O17   D    
C25   O14   S    
C5    N8    S    
Cu1   O3    S    
Cu2   O4    S    
C3    C16   S    
C22   H18   S    
