data_mof_unit_48209.cif
_audit_creation_date              2012-10-26T19:15:55-0400
_audit_creation_method            fapswitch 2.2
_symmetry_space_group_name_H-M    P1
_symmetry_Int_Tables_number       1
_space_group_crystal_system       triclinic
_cell_length_a                    7.770827
_cell_length_b                    9.075005
_cell_length_c                    17.143008
_cell_angle_alpha                 89.595702
_cell_angle_beta                  93.736792
_cell_angle_gamma                 90.00241
_cell_volume                      1206.32960614

loop_
_atom_site_label
_atom_site_type_symbol
_atom_type_description
_atom_site_fract_x
_atom_site_fract_y
_atom_site_fract_z
_atom_type_partial_charge
C1    C     C_R   0.499998 0.219987 0.500065 0.529217
C2    C     C_R   0.594775 0.441894 0.140039 -0.080828
C3    C     C_R   0.551401 0.471084 0.900541 0.162923
C4    C     C_R   0.444525 0.490862 0.097504 0.158282
C5    C     C_R   0.672834 0.397052 0.858303 0.268468
C6    C     C_R   0.303833 0.538884 0.137527 0.249524
C7    C     C_R   0.659153 0.399701 0.776397 0.229764
C8    C     C_R   0.317054 0.548884 0.219572 0.225110
C9    C     C_1   0.500157 0.065381 0.500494 -0.057500
C10   C     C_1   0.500201 0.934594 0.500700 -0.053605
C11   C     C_3   0.699721 0.193508 0.701972 0.025529
C12   C     C_R   0.500144 0.779990 0.500653 0.534777
C13   C     C_3   0.731449 0.058850 0.755328 -0.246823
C14   C     C_3   0.669973 0.917361 0.714625 -0.439269
C15   C     C_3   0.161663 0.756438 0.247780 0.047023
C16   C     C_3   0.207492 0.834972 0.324903 -0.279351
C17   C     C_3   0.174595 0.000536 0.317693 -0.442299
C18   C     C_R   0.520812 0.498447 0.651139 0.576056
C19   C     C_R   0.479174 0.499954 0.348479 0.578673
C20   C     C_R   0.531732 0.489291 0.736663 -0.033147
C21   C     C_R   0.467651 0.496933 0.262184 -0.027999
C22   C     C_R   0.413526 0.567696 0.779563 0.153834
C23   C     C_R   0.606169 0.442009 0.221162 0.155701
C24   C     C_R   0.422887 0.557069 0.860499 -0.078568
Cl1   Cl    Cl    0.796221 0.365898 0.267227 -0.521221
Cl2   Cl    Cl    0.255638 0.686565 0.735115 -0.563270
Cl3   Cl    Cl    0.842566 0.298778 0.908326 -0.467677
Cl4   Cl    Cl    0.108728 0.585547 0.084396 -0.485061
Cu1   Cu    Cu3+1 0.669080 0.500010 0.500000 1.094673
Cu2   Cu    Cu3+1 0.330920 0.499990 0.500000 1.096186
H1    H     H_    0.703936 0.401118 0.110419 0.235663
H2    H     H_    0.024501 0.779633 0.229393 0.201101
H3    H     H_    0.240946 0.804083 0.201691 0.141266
H4    H     H_    0.128945 0.788762 0.371163 0.207462
H5    H     H_    0.346042 0.816244 0.342126 0.158977
H6    H     H_    0.255585 0.049907 0.273278 0.175104
H7    H     H_    0.207691 0.053854 0.374788 0.174227
H8    H     H_    0.036491 0.022337 0.300708 0.195144
H9    H     H_    0.331387 0.619245 0.892162 0.219744
H10   H     H_    0.761278 0.173416 0.646339 0.174166
H11   H     H_    0.558659 0.205451 0.686500 0.103125
H12   H     H_    0.871505 0.049152 0.772347 0.233671
H13   H     H_    0.660812 0.072588 0.809094 0.204883
H14   H     H_    0.530175 0.924633 0.696880 0.186225
H15   H     H_    0.691421 0.822274 0.755225 0.190176
H16   H     H_    0.742862 0.898000 0.662010 0.169147
N1    N     N_1   0.076820 0.499970 0.500010 -0.049841
N2    N     N_1   0.923180 0.500030 0.499990 -0.047516
N3    N     N_2   0.565165 0.460726 0.983250 -0.164551
N4    N     N_2   0.430899 0.495865 0.014582 -0.162376
O1    O     O_R   0.642760 0.288400 0.500000 -0.501517
O2    O     O_3   0.179234 0.601846 0.258603 -0.486410
O3    O     O_R   0.357240 0.711600 0.500000 -0.503697
O4    O     O_R   0.357190 0.288380 0.500000 -0.506588
O5    O     O_R   0.642810 0.711620 0.500000 -0.509163
O6    O     O_R   0.658410 0.498660 0.613920 -0.476436
O7    O     O_R   0.341590 0.501340 0.386080 -0.464236
O8    O     O_R   0.372840 0.498650 0.613930 -0.454264
O9    O     O_R   0.627160 0.501350 0.386070 -0.454688
O10   O     O_3   0.777740 0.321026 0.736175 -0.497924

loop_
_geom_bond_atom_site_label_1
_geom_bond_atom_site_label_2
_ccdc_geom_bond_type
C2    C4    A    
C1    O4    A    
C5    C7    A    
Cu1   Cu2   S    
Cu1   O6    S    
C11   C13   S    
C9    C10   T    
C7    O10   S    
N1    N2    T    
C1    O1    A    
C18   O6    A    
C3    C5    A    
C19   O9    A    
C21   C23   A    
C8    C21   A    
C3    N3    S    
C15   O2    S    
C15   H2    S    
C14   H16   S    
C17   H7    S    
C13   C14   S    
C19   O7    A    
Cu2   O4    S    
C3    C24   A    
C10   C12   S    
Cu2   O8    S    
C14   H14   S    
C13   H12   S    
C17   H6    S    
C20   C22   A    
C11   H11   S    
C14   H15   S    
C18   C20   S    
C17   H8    S    
C23   Cl1   S    
C16   H5    S    
Cu1   O1    S    
C11   H10   S    
Cu2   O3    S    
C22   C24   A    
C12   O5    A    
C15   C16   S    
Cu1   N2    S    
C11   O10   S    
Cu2   O7    S    
Cu1   O9    S    
Cu2   N1    S    
C13   H13   S    
C24   H9    S    
C1    C9    S    
C4    C6    A    
C7    C20   A    
C22   Cl2   S    
C2    C23   A    
N3    N4    D    
C8    O2    S    
C2    H1    S    
C6    C8    A    
Cu1   O5    S    
C16   H4    S    
C5    Cl3   S    
C15   H3    S    
C6    Cl4   S    
C18   O8    A    
C12   O3    A    
C4    N4    S    
C16   C17   S    
C19   C21   S    
