data_mof_unit_23392.cif
_audit_creation_date              2012-12-11T15:27:33-0500
_audit_creation_method            fapswitch 2.2
_symmetry_space_group_name_H-M    P1
_symmetry_Int_Tables_number       1
_space_group_crystal_system       triclinic
_cell_length_a                    23.15937
_cell_length_b                    7.298164
_cell_length_c                    15.150674
_cell_angle_alpha                 89.484943
_cell_angle_beta                  107.994006
_cell_angle_gamma                 90.644932
_cell_volume                      2435.33432424

loop_
_atom_site_label
_atom_site_type_symbol
_atom_type_description
_atom_site_fract_x
_atom_site_fract_y
_atom_site_fract_z
_atom_type_partial_charge
O1    O     O_R   0.711000 0.648610 0.341170 -0.534268
O2    O     O_R   0.289000 0.351390 0.658830 -0.538024
O3    O     O_R   0.789000 0.148610 0.158830 -0.534366
O4    O     O_R   0.211000 0.851390 0.841170 -0.535224
O5    O     O_R   0.829650 0.322030 0.336650 -0.535470
O6    O     O_R   0.170350 0.677970 0.663350 -0.537442
O7    O     O_R   0.670350 0.822030 0.163350 -0.537520
O8    O     O_R   0.329650 0.177970 0.836650 -0.538121
C1    C     C_R   0.854286 0.486187 0.356756 0.719585
C2    C     C_R   0.145708 0.513815 0.643261 0.719832
C3    C     C_R   0.645702 0.985448 0.143262 0.716402
C4    C     C_R   0.354295 0.014534 0.856750 0.718988
O9    O     O_R   0.713950 0.319280 0.352070 -0.539805
O10   O     O_R   0.286050 0.680720 0.647930 -0.535215
O11   O     O_R   0.786050 0.819280 0.147930 -0.541326
O12   O     O_R   0.213950 0.180720 0.852070 -0.536728
O13   O     O_R   0.672470 0.142870 0.174360 -0.533620
O14   O     O_R   0.327530 0.857130 0.825640 -0.531310
O15   O     O_R   0.827530 0.642870 0.325640 -0.533674
O16   O     O_R   0.172470 0.357130 0.674360 -0.533388
C5    C     C_R   0.701352 0.486630 0.375664 0.681110
C6    C     C_R   0.298578 0.513809 0.624196 0.686909
C7    C     C_R   0.797808 0.988924 0.123553 0.682188
C8    C     C_R   0.202061 0.011075 0.876299 0.678872
O17   O     O_3   0.736530 0.478650 0.191680 -0.379256
O18   O     O_3   0.263470 0.521350 0.808320 -0.377945
O19   O     O_3   0.763470 0.978650 0.308320 -0.377048
O20   O     O_3   0.236530 0.021350 0.691680 -0.378893
V1    V     V_3+5 0.752500 0.206170 0.260820 1.428264
V2    V     V_3+5 0.247500 0.793830 0.739180 1.439423
V3    V     V_3+5 0.747500 0.706170 0.239180 1.420633
V4    V     V_3+5 0.252500 0.293830 0.760820 1.434802
C9    C     C_R   0.825979 0.005051 0.049947 -0.034666
C10   C     C_R   0.172421 0.994693 0.948159 -0.054709
C11   C     C_R   0.672168 0.495212 0.448323 -0.026723
C12   C     C_R   0.328039 0.514345 0.551610 -0.053376
C13   C     C_R   0.827179 0.149033 0.906645 -0.152870
C14   C     C_R   0.169000 0.847711 0.089612 -0.144194
C15   C     C_R   0.679162 0.522490 0.609816 -0.148610
C16   C     C_R   0.324386 0.596777 0.395435 -0.144790
C17   C     C_R   0.795853 0.097880 0.967965 -0.167048
C18   C     C_R   0.201793 0.904120 0.031155 -0.156963
C19   C     C_R   0.707242 0.502055 0.541451 -0.168392
C20   C     C_R   0.294752 0.563236 0.461096 -0.158165
C21   C     C_R   0.886464 0.954104 0.067786 -0.214632
C22   C     C_R   0.111069 0.038793 0.926529 -0.151769
C23   C     C_R   0.609048 0.510268 0.423646 -0.215976
C24   C     C_R   0.391235 0.499901 0.576369 -0.160027
C25   C     C_R   0.918277 0.994146 0.003919 0.082051
C26   C     C_R   0.077449 0.992884 0.987373 0.092044
C27   C     C_R   0.579938 0.547308 0.490803 0.081643
C28   C     C_R   0.423000 0.552676 0.513757 0.095739
C29   C     C_R   0.888817 0.106022 0.926555 0.113482
C30   C     C_R   0.106612 0.883308 0.065894 0.065456
C31   C     C_R   0.615910 0.543338 0.585283 0.114191
C32   C     C_R   0.388040 0.592942 0.421070 0.063481
C33   C     C_R   0.980221 0.944092 0.019867 -0.045072
C34   C     C_R   0.014682 0.036980 0.968458 0.021784
C35   C     C_R   0.516101 0.579466 0.467527 -0.042984
C36   C     C_R   0.487907 0.564263 0.539343 0.023193
C37   C     C_R   0.985156 0.171969 0.901474 0.198499
C38   C     C_R   0.009533 0.806334 0.085699 0.191820
C39   C     C_R   0.525867 0.574429 0.633403 0.194421
C40   C     C_R   0.479464 0.635556 0.376989 0.199000
C41   C     C_R   0.922326 0.191011 0.875806 -0.251531
C42   C     C_R   0.072389 0.792388 0.113800 -0.172655
C43   C     C_R   0.588823 0.563382 0.654646 -0.253193
C44   C     C_R   0.416590 0.638207 0.355400 -0.171895
H1    H     H_    0.900589 0.288804 0.821703 0.125118
H2    H     H_    0.093968 0.693202 0.167272 0.139595
H3    H     H_    0.616785 0.570612 0.726684 0.125322
H4    H     H_    0.389692 0.681639 0.286399 0.139038
H5    H     H_    0.089353 0.089605 0.857335 0.142183
H6    H     H_    0.909377 0.899945 0.135780 0.114113
H7    H     H_    0.414149 0.447875 0.644878 0.146272
H8    H     H_    0.583627 0.488295 0.351968 0.110892
H9    H     H_    0.249060 0.866259 0.047478 0.108270
H10   H     H_    0.749234 0.140554 0.954375 0.106557
H11   H     H_    0.245914 0.577962 0.441739 0.104215
H12   H     H_    0.756206 0.491224 0.561084 0.101760
H13   H     H_    0.804212 0.231826 0.846544 0.111757
H14   H     H_    0.191618 0.766466 0.150490 0.110202
H15   H     H_    0.706969 0.523641 0.681971 0.110491
H16   H     H_    0.297601 0.632365 0.325204 0.109800
C45   C     C_1   0.416786 0.007735 0.918723 -0.183600
C46   C     C_1   0.583209 0.992161 0.081296 -0.188719
C47   C     C_1   0.083215 0.506035 0.581346 -0.189294
C48   C     C_1   0.916770 0.493966 0.418706 -0.191225
C49   C     C_1   0.469149 0.002708 0.969958 0.006662
C50   C     C_1   0.530845 0.997102 0.030062 0.005910
C51   C     C_1   0.030840 0.501931 0.530104 0.001820
C52   C     C_1   0.969140 0.498066 0.469969 0.002199
N1    N     N_3   0.018535 0.304364 0.865795 -0.682377
H17   H     H_    0.002697 0.299618 0.793274 0.219883
H18   H     H_    0.009410 0.434708 0.886106 0.246550
N2    N     N_3   0.977554 0.658652 0.114058 -0.672200
H19   H     H_    0.934586 0.636481 0.066469 0.245004
H20   H     H_    0.975459 0.682861 0.180866 0.224724
N3    N     N_3   0.502136 0.618922 0.707357 -0.690234
H21   H     H_    0.515953 0.518053 0.758873 0.223925
H22   H     H_    0.521245 0.743769 0.736012 0.238102
N4    N     N_3   0.503654 0.724443 0.310926 -0.677068
H23   H     H_    0.506610 0.630551 0.260894 0.225977
H24   H     H_    0.545151 0.789509 0.343172 0.243449

loop_
_geom_bond_atom_site_label_1
_geom_bond_atom_site_label_2
_ccdc_geom_bond_type
O17   V3    S    
C25   C29   A    
O1    C5    A    
N1    H17   S    
C38   N2    S    
O19   V1    S    
C9    C21   A    
C16   H16   S    
O3    C7    A    
C10   C18   A    
O15   V3    S    
C25   C33   A    
C33   C38   A    
C40   N4    S    
C35   C40   A    
C26   C30   A    
C4    C45   S    
C36   C39   A    
C40   C44   A    
O9    V1    S    
C23   H8    S    
C14   C18   A    
C47   C51   T    
C1    C48   S    
O4    C8    A    
C37   N1    S    
C3    C46   S    
O1    V3    S    
O13   V1    S    
O2    V4    S    
O3    V1    S    
C39   N3    S    
C28   C36   A    
C1    O15   A    
C15   C31   A    
C48   C52   T    
C2    O16   A    
C7    C9    S    
N2    H20   S    
O2    C6    A    
C10   C22   A    
C11   C19   A    
C16   C20   A    
C43   H3    S    
C44   H4    S    
C13   C29   A    
C34   C37   A    
O11   C7    A    
C11   C23   A    
C35   C36   A    
O12   C8    A    
C14   H14   S    
C24   H7    S    
C13   H13   S    
O10   V2    S    
O5    V1    S    
C39   C43   A    
C2    C47   S    
O7    V3    S    
C38   C42   A    
O8    V4    S    
C46   C50   T    
C17   H10   S    
C45   C49   T    
O18   V4    S    
C23   C27   A    
C16   C32   A    
C19   H12   S    
C32   C44   A    
C8    C10   S    
C21   H6    S    
C26   C34   A    
O7    C3    A    
O5    C1    A    
C31   C43   A    
N3    H21   S    
C14   C30   A    
C21   C25   A    
O8    C4    A    
N2    H19   S    
O9    C5    A    
N4    H24   S    
O14   V2    S    
O6    V2    S    
C12   C20   A    
C27   C35   A    
C51   C52   S    
C29   C41   A    
O16   V4    S    
C3    O13   A    
N3    H22   S    
C20   H11   S    
O6    C2    A    
C15   C19   A    
O11   V3    S    
C30   C42   A    
O12   V4    S    
C6    C12   S    
C22   C26   A    
C9    C17   A    
O10   C6    A    
O20   V2    S    
C5    C11   S    
C15   H15   S    
C33   C34   A    
C42   H2    S    
C41   H1    S    
C12   C24   A    
C27   C31   A    
C13   C17   A    
N4    H23   S    
C37   C41   A    
C24   C28   A    
C18   H9    S    
N1    H18   S    
C4    O14   A    
C49   C50   S    
C22   H5    S    
O4    V2    S    
C28   C32   A    
