data_mof_unit_43884.cif
_audit_creation_date              2012-12-11T14:52:38-0500
_audit_creation_method            fapswitch 2.2
_symmetry_space_group_name_H-M    P1
_symmetry_Int_Tables_number       1
_space_group_crystal_system       triclinic
_cell_length_a                    8.267819
_cell_length_b                    15.101893
_cell_length_c                    26.971407
_cell_angle_alpha                 97.14233
_cell_angle_beta                  93.036039
_cell_angle_gamma                 80.665002
_cell_volume                      3295.40803796

loop_
_atom_site_label
_atom_site_type_symbol
_atom_type_description
_atom_site_fract_x
_atom_site_fract_y
_atom_site_fract_z
_atom_type_partial_charge
Ba1   Ba    Ba6+2 0.860900 0.457020 0.523210 1.675453
Ba2   Ba    Ba6+2 0.328940 0.542910 0.476780 1.696866
C1    C     C_3   0.602235 0.158906 0.642714 -0.351906
C2    C     C_3   0.544315 0.260470 0.654018 0.695980
C3    C     C_3   0.479924 0.685747 0.629194 0.298444
C4    C     C_3   0.452096 0.721963 0.683800 -0.364923
C5    C     C_3   0.034455 0.736097 0.341021 0.332545
C6    C     C_3   0.050536 0.760818 0.288728 -0.313733
C7    C     C_3   0.488475 0.786588 0.366234 0.350257
C8    C     C_3   0.433777 0.879542 0.349362 -0.375964
C9    C     C_R   0.020019 0.436407 0.177818 0.598218
C10   C     C_R   0.906147 0.593057 0.179240 0.578444
C11   C     C_2   0.753276 0.561908 0.272717 -0.111695
C12   C     C_3   0.052399 0.243979 0.648956 0.389126
C13   C     C_3   0.730589 0.588979 0.327951 -0.038536
C14   C     C_1   0.983255 0.484523 0.342806 -0.010714
C15   C     C_2   0.024951 0.482119 0.295266 -0.112741
C16   C     C_2   0.902038 0.519775 0.256512 0.198741
C17   C     C_R   0.020728 0.510714 0.101971 -0.079351
C18   C     C_R   0.060807 0.433055 0.126949 -0.034439
C19   C     C_R   0.140143 0.353472 0.100389 -0.056462
C20   C     C_R   0.944415 0.591256 0.128611 -0.023988
C21   C     C_2   0.840941 0.527756 0.359737 -0.249453
C22   C     C_2   0.350305 0.480834 0.641304 -0.238037
C23   C     C_3   0.045234 0.207267 0.698702 -0.347169
C24   C     C_R   0.192388 0.428723 0.974433 0.035107
C25   C     C_R   0.032156 0.581156 0.972533 0.012013
C26   C     C_R   0.133291 0.504453 0.948239 -0.005858
C27   C     C_R   0.298162 0.355843 0.949245 -0.091878
C28   C     C_R   0.340528 0.356161 0.899888 -0.058715
C29   C     C_R   0.279044 0.428913 0.873078 -0.021375
C30   C     C_R   0.174510 0.502987 0.897151 -0.083879
C31   C     C_R   0.110876 0.575413 0.870055 -0.066805
C32   C     C_R   0.155395 0.574202 0.819873 0.599266
C33   C     C_R   0.319568 0.428722 0.822592 0.597107
C34   C     C_3   0.231022 0.265813 0.413511 0.305633
C35   C     C_2   0.457632 0.485452 0.729714 -0.039385
C36   C     C_3   0.497291 0.490762 0.675617 -0.070085
C37   C     C_1   0.205358 0.518475 0.657270 0.042904
C38   C     C_2   0.166365 0.518356 0.704460 -0.084203
C39   C     C_2   0.299116 0.500271 0.744027 0.224382
C40   C     C_R   0.144874 0.428418 0.024725 0.021976
C41   C     C_R   0.057783 0.508188 0.050385 0.036340
C42   C     C_R   0.009115 0.586024 0.025189 0.038211
C43   C     C_R   0.182056 0.351193 0.050656 -0.098215
C44   C     C_R   0.911813 0.669630 0.104524 -0.081900
C45   C     C_3   0.270686 0.164967 0.396414 -0.386734
C46   C     C_R   0.954252 0.648674 0.942749 0.369435
C47   C     C_R   0.999325 0.646517 0.892960 -0.113700
C48   C     C_R   0.946166 0.667443 0.054375 -0.048474
C49   C     C_R   0.743970 0.766226 0.475684 0.123166
C50   C     C_R   0.836716 0.826169 0.459938 0.001136
C51   C     C_R   0.780148 0.919617 0.467398 -0.187580
C52   C     C_R   0.634913 0.954485 0.494049 0.017256
C53   C     C_R   0.558233 0.891804 0.515482 -0.173927
C54   C     C_R   0.611387 0.799123 0.506048 0.024836
C55   C     C_R   0.410416 0.085777 0.522486 -0.137122
C56   C     C_3   0.972677 0.733590 0.583310 0.302125
C57   C     C_R   0.348212 0.178027 0.529826 0.029954
C58   C     C_R   0.584628 0.212258 0.492925 0.069198
C59   C     C_R   0.650798 0.120152 0.486083 -0.113126
C60   C     C_R   0.566490 0.054361 0.501592 0.015887
C61   C     C_R   0.437817 0.240876 0.516669 -0.296902
C62   C     C_3   0.956856 0.835513 0.596186 -0.366451
C63   C     C_3   0.726264 0.322088 0.369399 0.718263
C64   C     C_3   0.822257 0.265464 0.326199 -0.347484
H1    H     H_    0.495738 0.284806 0.618107 -0.022131
H2    H     H_    0.347576 0.153227 0.362967 0.144116
H3    H     H_    0.338676 0.128936 0.426186 0.061106
H4    H     H_    0.155741 0.136514 0.386963 0.111130
H5    H     H_    0.850232 0.715606 0.573359 -0.018941
H6    H     H_    0.054452 0.713131 0.551208 0.058806
H7    H     H_    0.870704 0.858600 0.627087 0.130568
H8    H     H_    0.909738 0.869949 0.563218 0.055662
H9    H     H_    0.078724 0.854488 0.607872 0.125621
H10   H     H_    0.694601 0.146028 0.613157 0.072065
H11   H     H_    0.916560 0.213288 0.340851 0.104219
H12   H     H_    0.883834 0.308917 0.305464 0.078895
H13   H     H_    0.737952 0.230962 0.299895 0.125941
H14   H     H_    0.497215 0.123870 0.629437 0.118057
H15   H     H_    0.362555 0.667628 0.612344 0.025088
H16   H     H_    0.575830 0.624852 0.626976 0.026346
H17   H     H_    0.364026 0.786136 0.686375 0.138527
H18   H     H_    0.400267 0.672815 0.703089 0.068866
H19   H     H_    0.569962 0.734589 0.702876 0.125586
H20   H     H_    0.658785 0.130636 0.676809 0.105845
H21   H     H_    0.169312 0.196685 0.716914 0.150814
H22   H     H_    0.122020 0.673328 0.345631 0.088001
H23   H     H_    0.907187 0.723910 0.344759 -0.033266
H24   H     H_    0.159281 0.794560 0.286922 0.148698
H25   H     H_    0.066480 0.698531 0.261896 0.119440
H26   H     H_    0.939370 0.807122 0.277871 0.123106
H27   H     H_    0.624804 0.773153 0.366299 -0.043421
H28   H     H_    0.446379 0.788155 0.404835 0.073376
H29   H     H_    0.490825 0.930759 0.374497 0.071967
H30   H     H_    0.298516 0.898025 0.350761 0.152407
H31   H     H_    0.929044 0.248733 0.630349 0.075247
H32   H     H_    0.472207 0.879890 0.310562 0.124278
H33   H     H_    0.148626 0.453448 0.284298 0.141712
H34   H     H_    0.171385 0.292133 0.118147 0.123289
H35   H     H_    0.557384 0.475888 0.757319 0.095396
H36   H     H_    0.422413 0.298478 0.882679 0.118559
H37   H     H_    0.353908 0.297952 0.967149 0.068269
H38   H     H_    0.240661 0.286834 0.033100 0.070885
H39   H     H_    0.658171 0.587841 0.246605 0.120630
H40   H     H_    0.861022 0.733916 0.124641 0.125720
H41   H     H_    0.090982 0.311695 0.656316 0.088284
H42   H     H_    0.942021 0.699902 0.871451 0.116640
H43   H     H_    0.039167 0.533251 0.714865 0.127873
H44   H     H_    0.929523 0.731903 0.040025 0.144343
H45   H     H_    0.364056 0.445628 0.603738 0.063623
H46   H     H_    0.332445 0.040649 0.532469 0.085676
H47   H     H_    0.853286 0.962899 0.453013 0.087208
H48   H     H_    0.764914 0.101845 0.467133 0.082015
H49   H     H_    0.460049 0.912905 0.541124 0.084903
H50   H     H_    0.387626 0.312056 0.521864 0.063204
H51   H     H_    0.962812 0.255997 0.723965 0.122276
H52   H     H_    0.997826 0.141897 0.692618 0.106938
H53   H     H_    0.346388 0.292326 0.423974 0.037112
H54   H     H_    0.150396 0.276628 0.446066 0.038593
N1    N     N_R   0.943261 0.516037 0.203773 -0.421395
N2    N     N_R   0.258286 0.501111 0.796355 -0.427167
O1    O     O_2   0.905540 0.548000 0.618290 -0.466156
O2    O     O_3   0.661658 0.262279 0.395629 -0.635221
O3    O     O_3   0.166208 0.185290 0.619112 -0.616649
O4    O     O_2   0.284150 0.451970 0.381680 -0.396586
O5    O     O_3   0.052160 0.451990 0.441880 -0.498719
O6    O     O_3   0.501140 0.616030 0.412450 -0.421593
O7    O     O_3   0.152210 0.307862 0.373704 -0.631978
O8    O     O_3   0.615020 0.608480 0.525380 -0.450557
O9    O     O_3   0.085020 0.662210 0.437090 -0.465061
O10   O     O_2   0.173716 0.822811 0.469222 -0.489345
O11   O     O_3   0.070734 0.807134 0.376286 -0.606723
O12   O     O_3   0.137550 0.547930 0.558110 -0.501382
O13   O     O_3   0.574690 0.391440 0.474610 -0.467276
O14   O     O_2   0.341330 0.720570 0.525000 -0.464774
O15   O     O_3   0.532185 0.752805 0.605328 -0.643668
O16   O     O_2   0.402283 0.547924 0.322087 -0.480396
O17   O     O_3   0.419520 0.721150 0.333747 -0.605993
O18   O     O_2   0.050932 0.367943 0.198619 -0.594453
O19   O     O_2   0.408130 0.363459 0.801905 -0.598848
O20   O     O_2   0.840167 0.664012 0.201531 -0.619038
O21   O     O_2   0.103763 0.638995 0.797339 -0.598876
O22   O     O_3   0.688580 0.383890 0.587540 -0.491426
O23   O     O_2   0.838574 0.433710 0.673575 -0.510670
O24   O     O_3   0.036201 0.692559 0.625335 -0.624689
O25   O     O_3   0.677088 0.301797 0.675269 -0.626122
O26   O     O_2   0.848360 0.279400 0.474970 -0.483602
O27   O     O_3   0.104690 0.337720 0.562900 -0.497257
O28   O     O_2   0.010470 0.175794 0.532049 -0.497535
P1    P     P_3+3 0.070480 0.574800 0.610950 0.985750
P2    P     P_3+3 0.668430 0.292880 0.460530 1.002922
P3    P     P_3+3 0.152667 0.219519 0.559216 0.936810
P4    P     P_3+3 0.119230 0.425130 0.389040 1.017135
P5    P     P_3+3 0.041872 0.779985 0.435983 0.971750
P6    P     P_3+3 0.674031 0.405904 0.652752 0.949972
P7    P     P_3+3 0.526420 0.721657 0.540694 0.976956
P8    P     P_3+3 0.513080 0.614548 0.348029 0.997908
H55   H     H_    0.810258 0.361237 0.392999 -0.047857
O29   O     O_3   0.595307 0.381118 0.350716 -0.686081
H56   H     H_    0.638147 0.411495 0.324842 0.257995
O30   O     O_3   0.415902 0.276925 0.687496 -0.747653
H57   H     H_    0.460981 0.254465 0.719249 0.340583
O31   O     O_3   0.823976 0.711595 0.960894 -0.745374
H58   H     H_    0.782613 0.752328 0.935318 0.304947
H59   H     H_    0.807669 0.526509 0.397956 0.132129
O32   O     O_3   0.785488 0.675120 0.462284 -0.727237
H60   H     H_    0.855029 0.651672 0.490270 0.297978

loop_
_geom_bond_atom_site_label_1
_geom_bond_atom_site_label_2
_ccdc_geom_bond_type
C25   C46   A    
C53   C54   A    
C37   P1    S    
C49   O32   S    
C17   C18   A    
C36   P6    S    
C63   H55   S    
C23   H52   S    
O10   P5    D    
C57   P3    S    
O6    P8    S    
C55   C60   A    
C51   C52   A    
C50   P5    S    
C64   H13   S    
C26   C30   A    
Ba2   O12   S    
C12   O3    S    
C11   C16   D    
C34   C45   S    
O8    P7    S    
O31   H58   S    
C35   C36   S    
C5    O11   S    
C28   C29   A    
C56   H5    S    
C55   C57   A    
C55   H46   S    
C31   C47   A    
O13   P2    S    
C5    H23   S    
C10   C20   A    
C48   H44   S    
C22   C37   D    
C27   H37   S    
Ba1   P2    S    
Ba1   Ba2   S    
C58   P2    S    
C63   O2    S    
C8    H32   S    
C34   H53   S    
O27   P3    S    
C45   H3    S    
O23   P6    D    
C25   C42   A    
C10   N1    Am   
C5    H22   S    
O17   P8    S    
C51   H47   S    
C14   C15   D    
O28   P3    D    
C22   C36   S    
C62   H7    S    
C9    O18   D    
Ba1   O27   S    
C6    H26   S    
C7    C8    S    
Ba2   O5    S    
C13   C21   S    
O2    P2    S    
Ba2   P4    S    
C1    H20   S    
C9    N1    Am   
C22   H45   S    
C63   O29   S    
C1    H14   S    
O5    P4    S    
C17   C41   A    
Ba2   O9    S    
C47   H42   S    
C19   C43   A    
C56   C62   S    
C64   H12   S    
O1    P1    D    
C32   O21   D    
C59   H48   S    
C4    H18   S    
C49   C50   A    
O26   P2    D    
C5    C6    S    
C17   C20   A    
C13   P8    S    
C11   H39   S    
Ba1   O8    S    
O32   H60   S    
C19   H34   S    
C52   C60   S    
C2    O25   S    
C9    C18   A    
Ba2   O14   S    
C58   C59   A    
C40   C43   A    
C49   C54   A    
C39   N2    S    
O22   P6    S    
C41   C42   A    
Ba1   O1    S    
C45   H4    S    
C27   C28   A    
O25   P6    S    
C43   H38   S    
C21   H59   S    
C3    H15   S    
O16   P8    D    
C29   C30   A    
C10   O20   D    
C8    H30   S    
C28   H36   S    
C15   C16   S    
C6    H25   S    
C54   P7    S    
C1    H10   S    
C15   H33   S    
C33   O19   D    
O4    P4    D    
O14   P7    D    
Ba2   O4    S    
C12   H41   S    
C20   C44   A    
C14   C21   D    
C11   C13   S    
C14   P4    S    
C2    O30   S    
C6    H24   S    
C40   C41   A    
C61   H50   S    
Ba1   O12   S    
C7    H27   S    
C45   H2    S    
C37   C38   D    
C50   C51   A    
C24   C40   A    
C12   H31   S    
O30   H57   S    
C42   C48   A    
C64   H11   S    
C52   C53   A    
C38   C39   S    
C4    H17   S    
O11   P5    S    
C24   C26   A    
C33   N2    Am   
Ba1   O5    S    
C23   H51   S    
C2    H1    S    
C56   O24   S    
C3    O15   S    
C38   H43   S    
C46   O31   S    
C44   C48   A    
C57   C61   A    
Ba2   O13   S    
O15   P7    S    
O29   H56   S    
O3    P3    S    
O9    P5    S    
Ba1   O22   S    
C34   O7    S    
C30   C31   A    
C35   H35   S    
C3    H16   S    
C7    O17   S    
C56   H6    S    
C3    C4    S    
C53   H49   S    
C8    H29   S    
C46   C47   A    
O12   P1    S    
C44   H40   S    
Ba2   O8    S    
C62   H9    S    
C31   C32   A    
Ba1   P1    S    
C29   C33   A    
C12   C23   S    
C35   C39   D    
C59   C60   A    
C34   H54   S    
C58   C61   A    
C16   N1    S    
O24   P1    S    
C23   H21   S    
C18   C19   A    
C24   C27   A    
C32   N2    Am   
C63   C64   S    
C4    H19   S    
C25   C26   A    
C62   H8    S    
Ba1   O26   S    
Ba1   O13   S    
C7    H28   S    
O7    P4    S    
C1    C2    S    
Ba2   O6    S    
