data_mof_unit_39083.cif
_audit_creation_date              2012-12-10T17:01:33-0500
_audit_creation_method            fapswitch 2.2
_symmetry_space_group_name_H-M    P1
_symmetry_Int_Tables_number       1
_space_group_crystal_system       triclinic
_cell_length_a                    9.893103
_cell_length_b                    11.035194
_cell_length_c                    12.954852
_cell_angle_alpha                 90.343392
_cell_angle_beta                  75.220737
_cell_angle_gamma                 111.096247
_cell_volume                      1270.07744514

loop_
_atom_site_label
_atom_site_type_symbol
_atom_type_description
_atom_site_fract_x
_atom_site_fract_y
_atom_site_fract_z
_atom_type_partial_charge
C1    C     C_R   0.439630 0.254031 0.507987 0.843855
C2    C     C_R   0.560341 0.745969 0.492345 0.845046
C3    C     C_2   0.082958 0.516869 0.497595 0.092047
C4    C     C_2   0.916689 0.485359 0.505223 0.095888
C5    C     C_R   0.472960 0.494908 0.702346 0.797627
C6    C     C_R   0.527331 0.504954 0.297729 0.799968
C7    C     C_R   0.541850 0.501100 0.184110 -0.034457
C8    C     C_R   0.460668 0.499170 0.815882 -0.033970
C9    C     C_R   0.411056 0.612975 0.971710 -0.209995
C10   C     C_R   0.595558 0.389678 0.027790 -0.211837
C11   C     C_R   0.402514 0.587595 0.868521 -0.260876
C12   C     C_R   0.598297 0.411336 0.132420 -0.258074
C13   C     C_R   0.520656 0.427685 0.868432 0.122851
C14   C     C_R   0.490449 0.577806 0.129414 0.113702
C15   C     C_R   0.531215 0.454578 0.973462 0.123975
C16   C     C_R   0.477574 0.549501 0.025107 0.125165
C17   C     C_2   0.405716 0.114534 0.512548 -0.349033
C18   C     C_2   0.594205 0.885459 0.488643 -0.354640
C19   C     C_2   0.516589 0.069612 0.499522 -0.159999
C20   C     C_2   0.483202 0.930373 0.502859 -0.151542
Cu1   Cu    Cu3+1 0.647370 0.522180 0.481340 0.954810
Cu2   Cu    Cu3+1 0.352630 0.477820 0.518660 0.960854
H1    H     H_    0.641038 0.354842 0.174489 0.158938
H2    H     H_    0.355957 0.641736 0.827652 0.158645
H3    H     H_    0.366256 0.683749 0.008334 0.163886
H4    H     H_    0.641150 0.319223 0.991564 0.160491
H5    H     H_    0.366652 0.864229 0.516917 0.185606
H6    H     H_    0.633072 0.135751 0.485917 0.184792
H7    H     H_    0.710582 0.951897 0.474459 0.159254
H8    H     H_    0.289407 0.048098 0.526330 0.160799
H9    H     H_    0.833479 0.399142 0.555442 0.129019
H10   H     H_    0.165875 0.605981 0.451228 0.138493
N1    N     N_2   0.131210 0.444490 0.546730 -0.034741
N2    N     N_2   0.868790 0.555510 0.453270 -0.020422
O1    O     O_R   0.578710 0.332530 0.490040 -0.607058
O2    O     O_R   0.421290 0.667470 0.509960 -0.602428
O3    O     O_R   0.329810 0.295070 0.521560 -0.556302
O4    O     O_R   0.670190 0.704930 0.478440 -0.562346
O5    O     O_R   0.604230 0.515670 0.637800 -0.570077
O6    O     O_R   0.395770 0.484330 0.362200 -0.565977
O7    O     O_R   0.355330 0.478200 0.669330 -0.614250
O8    O     O_R   0.644670 0.521800 0.330670 -0.613843
C21   C     C_3   0.458369 0.693034 0.179058 -0.892205
H11   H     H_    0.490614 0.713836 0.255062 0.228158
H12   H     H_    0.524740 0.782668 0.123103 0.228851
H13   H     H_    0.337357 0.675660 0.195387 0.233865
C22   C     C_3   0.570427 0.322375 0.814278 -0.900925
H14   H     H_    0.540581 0.300025 0.737674 0.231173
H15   H     H_    0.694325 0.353114 0.798200 0.235953
H16   H     H_    0.513722 0.229229 0.866797 0.229516
O9    O     O_3   0.974856 0.672210 0.407977 -0.553201
C23   C     C_3   0.967754 0.693255 0.302499 0.195944
H17   H     H_    0.062336 0.785921 0.266307 0.119954
H18   H     H_    0.864631 0.710926 0.302402 0.173422
C24   C     C_3   0.987630 0.584364 0.232017 -0.382085
H19   H     H_    0.087936 0.565789 0.238933 0.208845
H20   H     H_    0.889386 0.491615 0.259518 0.237612
C25   C     C_3   0.005231 0.621067 0.114642 -0.924419
H21   H     H_    0.904354 0.638093 0.106208 0.269253
H22   H     H_    0.017925 0.540451 0.066278 0.264520
H23   H     H_    0.106715 0.710692 0.083190 0.247037
O10   O     O_3   0.031155 0.321943 0.579696 -0.541042
C26   C     C_3   0.024043 0.295660 0.687457 0.185951
H24   H     H_    0.012039 0.377516 0.735191 0.122685
H25   H     H_    0.126223 0.279117 0.692911 0.180660
C27   C     C_3   0.887432 0.171337 0.734619 -0.408073
H26   H     H_    0.784556 0.181826 0.723053 0.227609
H27   H     H_    0.902634 0.087616 0.691725 0.232128
C28   C     C_3   0.866174 0.142843 0.854042 -0.930176
H28   H     H_    0.966946 0.129857 0.867270 0.259433
H29   H     H_    0.766635 0.051825 0.885581 0.264332
H30   H     H_    0.847320 0.224111 0.898784 0.251381

loop_
_geom_bond_atom_site_label_1
_geom_bond_atom_site_label_2
_ccdc_geom_bond_type
C28   H30   S    
C27   H27   S    
C21   H11   S    
C26   H25   S    
C6    C7    S    
Cu1   O1    S    
C20   H5    S    
C2    C18   S    
C21   H12   S    
C2    O4    A    
C1    C17   S    
C19   C20   S    
Cu1   O5    S    
C23   C24   S    
C1    O3    A    
C4    H9    S    
C24   H19   S    
Cu2   O6    S    
C10   H4    S    
C25   H23   S    
C5    O5    A    
C27   H26   S    
C25   H21   S    
C26   C27   S    
C9    H3    S    
O9    C23   S    
C22   H15   S    
C18   H7    S    
Cu1   Cu2   S    
C17   H8    S    
C9    C11   A    
C12   H1    S    
N2    O9    S    
C7    C12   A    
C10   C12   A    
C8    C11   A    
C28   H28   S    
C17   C19   D    
C9    C16   A    
C23   H18   S    
C22   H16   S    
C18   C20   D    
C10   C15   A    
C24   H20   S    
C13   C15   A    
C19   H6    S    
C3    H10   S    
C21   H13   S    
C4    N2    D    
C27   C28   S    
C3    N1    D    
C25   H22   S    
Cu1   O8    S    
Cu2   O7    S    
C8    C13   A    
C11   H2    S    
C22   H14   S    
C6    O6    A    
Cu2   O2    S    
C23   H17   S    
C1    O1    A    
C13   C22   S    
C6    O8    A    
C24   C25   S    
C2    O2    A    
C28   H29   S    
Cu2   N1    S    
C5    C8    S    
C14   C21   S    
C5    O7    A    
Cu1   N2    S    
C14   C16   A    
C26   H24   S    
Cu2   O3    S    
C7    C14   A    
Cu1   O4    S    
C15   C16   A    
N1    O10   S    
O10   C26   S    
C3    C4    S    
