data_mof_unit_17513.cif
_audit_creation_date              2012-12-10T16:33:51-0500
_audit_creation_method            fapswitch 2.2
_symmetry_space_group_name_H-M    P1
_symmetry_Int_Tables_number       1
_space_group_crystal_system       triclinic
_cell_length_a                    28.144293
_cell_length_b                    18.450986
_cell_length_c                    17.103666
_cell_angle_alpha                 90.210688
_cell_angle_beta                  60.690455
_cell_angle_gamma                 90.315375
_cell_volume                      7744.66524268

loop_
_atom_site_label
_atom_site_type_symbol
_atom_type_description
_atom_site_fract_x
_atom_site_fract_y
_atom_site_fract_z
_atom_type_partial_charge
C1    C     C_R   0.700710 0.265965 0.676492 0.895614
C2    C     C_R   0.299314 0.734084 0.323502 0.895079
C3    C     C_R   0.299462 0.265558 0.323379 0.923947
C4    C     C_R   0.700737 0.734041 0.676580 0.874635
C5    C     C_R   0.200710 0.765965 0.676492 0.895614
C6    C     C_R   0.799314 0.234084 0.323502 0.895078
C7    C     C_R   0.799462 0.765558 0.323379 0.923946
C8    C     C_R   0.200737 0.234041 0.676580 0.874636
C9    C     C_R   0.030159 0.367554 0.560897 -0.211603
C10   C     C_R   0.916858 0.620110 0.587040 -0.204592
C11   C     C_R   0.960817 0.373459 0.477822 -0.206823
C12   C     C_R   0.020819 0.627747 0.590291 -0.207720
C13   C     C_R   0.530159 0.867554 0.560897 -0.211602
C14   C     C_R   0.416859 0.120110 0.587040 -0.204593
C15   C     C_R   0.460817 0.873459 0.477821 -0.206823
C16   C     C_R   0.520819 0.127747 0.590291 -0.207720
C17   C     C_R   0.719645 0.264865 0.955846 0.130685
C18   C     C_R   0.280543 0.735541 0.044076 0.137738
C19   C     C_R   0.280774 0.263024 0.044200 0.132440
C20   C     C_R   0.720563 0.734480 0.954763 0.139963
C21   C     C_R   0.219646 0.764865 0.955846 0.130685
C22   C     C_R   0.780543 0.235541 0.044076 0.137735
C23   C     C_R   0.780774 0.763024 0.044200 0.132438
C24   C     C_R   0.220563 0.234480 0.954763 0.139965
C25   C     C_R   0.747933 0.320662 0.972188 -0.141508
C26   C     C_R   0.252241 0.679753 0.027758 -0.128529
C27   C     C_R   0.253041 0.319056 0.028021 -0.144646
C28   C     C_R   0.748347 0.678439 0.970818 -0.133478
C29   C     C_R   0.247933 0.820663 0.972189 -0.141509
C30   C     C_R   0.752240 0.179753 0.027759 -0.128527
C31   C     C_R   0.753043 0.819056 0.028018 -0.144646
C32   C     C_R   0.248349 0.178439 0.970815 -0.133477
C33   C     C_R   0.778300 0.306120 0.015374 -0.135653
C34   C     C_R   0.221866 0.694297 0.984590 -0.127301
C35   C     C_R   0.223001 0.304887 0.984144 -0.136746
C36   C     C_R   0.778436 0.692623 0.014651 -0.129826
C37   C     C_R   0.278300 0.806120 0.015375 -0.135649
C38   C     C_R   0.721866 0.194298 0.984591 -0.127300
C39   C     C_R   0.723002 0.804887 0.984142 -0.136746
C40   C     C_R   0.278438 0.192624 0.014649 -0.129827
C41   C     C_R   0.646551 0.330483 0.942851 -0.212384
C42   C     C_R   0.353616 0.669799 0.057022 -0.215301
C43   C     C_R   0.353974 0.328807 0.056849 -0.216912
C44   C     C_R   0.646816 0.669655 0.942573 -0.217361
C45   C     C_R   0.146551 0.830483 0.942851 -0.212384
C46   C     C_R   0.853616 0.169799 0.057022 -0.215300
C47   C     C_R   0.853974 0.828807 0.056848 -0.216912
C48   C     C_R   0.146816 0.169654 0.942573 -0.217361
C49   C     C_R   0.618336 0.349012 0.896671 -0.062370
C50   C     C_R   0.381758 0.651123 0.103271 -0.062454
C51   C     C_R   0.382042 0.348150 0.103040 -0.062850
C52   C     C_R   0.618316 0.651256 0.896774 -0.063768
C53   C     C_R   0.118336 0.849012 0.896671 -0.062370
C54   C     C_R   0.881758 0.151123 0.103271 -0.062454
C55   C     C_R   0.882042 0.848149 0.103040 -0.062850
C56   C     C_R   0.118317 0.151256 0.896773 -0.063768
C57   C     C_R   0.633340 0.320813 0.813545 -0.269517
C58   C     C_R   0.366729 0.679263 0.186443 -0.266614
C59   C     C_R   0.367019 0.320321 0.186254 -0.264848
C60   C     C_R   0.633228 0.679434 0.813772 -0.267505
C61   C     C_R   0.133340 0.820813 0.813545 -0.269516
C62   C     C_R   0.866729 0.179263 0.186443 -0.266613
C63   C     C_R   0.867019 0.820321 0.186254 -0.264847
C64   C     C_R   0.133228 0.179434 0.813772 -0.267507
C65   C     C_R   0.677475 0.275549 0.773126 -0.115525
C66   C     C_R   0.322635 0.724609 0.226828 -0.123322
C67   C     C_R   0.322848 0.274674 0.226721 -0.122232
C68   C     C_R   0.677786 0.724382 0.773023 -0.117136
C69   C     C_R   0.177475 0.775549 0.773126 -0.115524
C70   C     C_R   0.822634 0.224609 0.226828 -0.123323
C71   C     C_R   0.822848 0.774674 0.226721 -0.122233
C72   C     C_R   0.177785 0.224382 0.773023 -0.117136
C73   C     C_R   0.703766 0.250050 0.821783 -0.025943
C74   C     C_R   0.296493 0.750310 0.177997 -0.024361
C75   C     C_R   0.296590 0.248432 0.178056 -0.027194
C76   C     C_R   0.704658 0.749496 0.821257 -0.028563
C77   C     C_R   0.203766 0.750050 0.821783 -0.025943
C78   C     C_R   0.796492 0.250310 0.177997 -0.024361
C79   C     C_R   0.796590 0.748432 0.178056 -0.027194
C80   C     C_R   0.204658 0.249496 0.821257 -0.028563
C81   C     C_R   0.689246 0.280677 0.906518 -0.021517
C82   C     C_R   0.310976 0.719686 0.093334 -0.019080
C83   C     C_R   0.311242 0.278765 0.093323 -0.019520
C84   C     C_R   0.689976 0.718987 0.905798 -0.019449
C85   C     C_R   0.189246 0.780677 0.906517 -0.021517
C86   C     C_R   0.810975 0.219686 0.093334 -0.019080
C87   C     C_R   0.811242 0.778765 0.093323 -0.019519
C88   C     C_R   0.189976 0.218987 0.905798 -0.019450
C89   C     C_R   0.690931 0.129518 0.536058 0.900219
C90   C     C_R   0.308569 0.870884 0.466816 0.898939
C91   C     C_R   0.303126 0.127888 0.483251 0.911714
C92   C     C_R   0.691309 0.870620 0.535042 0.904779
C93   C     C_R   0.190931 0.629518 0.536058 0.900219
C94   C     C_R   0.808569 0.370884 0.466816 0.898939
C95   C     C_R   0.803126 0.627888 0.483251 0.911713
C96   C     C_R   0.191309 0.370620 0.535042 0.904779
C97   C     C_R   0.075275 0.098229 0.932814 0.912892
C98   C     C_R   0.924761 0.901695 0.067172 0.913214
C99   C     C_R   0.924652 0.098070 0.067368 0.911542
C100  C     C_R   0.075371 0.901961 0.932615 0.911624
C101  C     C_R   0.575275 0.598229 0.932814 0.912892
C102  C     C_R   0.424761 0.401695 0.067172 0.913214
C103  C     C_R   0.424652 0.598070 0.067368 0.911542
C104  C     C_R   0.575371 0.401961 0.932615 0.911625
C105  C     C_R   0.528948 0.998383 0.563864 0.022776
C106  C     C_R   0.440718 0.997875 0.529572 0.022539
C107  C     C_R   0.028948 0.498383 0.563864 0.022776
C108  C     C_R   0.940718 0.497875 0.529572 0.022539
C109  C     C_R   0.500353 0.063345 0.573046 0.049132
C110  C     C_R   0.469996 0.933545 0.519640 0.046920
C111  C     C_R   0.452891 0.061378 0.563524 0.043956
C112  C     C_R   0.509794 0.932472 0.547085 0.047784
C113  C     C_R   0.000353 0.563345 0.573046 0.049132
C114  C     C_R   0.969996 0.433545 0.519640 0.046920
C115  C     C_R   0.952891 0.561378 0.563524 0.043956
C116  C     C_R   0.009794 0.432471 0.547085 0.047784
C117  C     C_R   0.603217 0.933018 0.568159 0.064265
C118  C     C_R   0.367258 0.061073 0.520447 0.052920
C119  C     C_R   0.386813 0.935828 0.471269 0.073558
C120  C     C_R   0.601660 0.065168 0.573490 0.067310
C121  C     C_R   0.103217 0.433018 0.568159 0.064265
C122  C     C_R   0.867258 0.561073 0.520447 0.052920
C123  C     C_R   0.886813 0.435828 0.471269 0.073558
C124  C     C_R   0.101660 0.565168 0.573490 0.067310
C125  C     C_R   0.656570 0.934608 0.558342 -0.126914
C126  C     C_R   0.329525 0.062498 0.487372 -0.121856
C127  C     C_R   0.340351 0.935977 0.458283 -0.129650
C128  C     C_R   0.655952 0.064922 0.560137 -0.125923
C129  C     C_R   0.156570 0.434608 0.558342 -0.126914
C130  C     C_R   0.829525 0.562498 0.487372 -0.121856
C131  C     C_R   0.840351 0.435977 0.458283 -0.129650
C132  C     C_R   0.155952 0.564922 0.560137 -0.125924
C133  C     C_R   0.680953 0.999979 0.557240 -0.263876
C134  C     C_R   0.316556 0.000271 0.457346 -0.274777
C135  C     C_R   0.180953 0.499979 0.557240 -0.263876
C136  C     C_R   0.816556 0.500271 0.457346 -0.274778
C137  C     C_R   0.577730 0.998925 0.569379 0.074745
C138  C     C_R   0.398638 0.998451 0.506384 0.074290
C139  C     C_R   0.077730 0.498925 0.569379 0.074745
C140  C     C_R   0.898638 0.498452 0.506385 0.074290
C141  C     C_R   0.073940 0.368329 0.576855 -0.167781
C142  C     C_R   0.873920 0.618888 0.568627 -0.168913
C143  C     C_R   0.921122 0.375391 0.451868 -0.160515
C144  C     C_R   0.070182 0.628501 0.590969 -0.173129
C145  C     C_R   0.573940 0.868329 0.576855 -0.167781
C146  C     C_R   0.373920 0.118888 0.568627 -0.168914
C147  C     C_R   0.421122 0.875391 0.451867 -0.160514
C148  C     C_R   0.570182 0.128501 0.590969 -0.173129
H1    H     H_    0.722067 0.000298 0.547289 0.205143
H2    H     H_    0.284766 0.000848 0.438854 0.206325
H3    H     H_    0.222067 0.500298 0.547289 0.205143
H4    H     H_    0.784766 0.500848 0.438854 0.206325
H5    H     H_    0.083668 0.317347 0.596096 0.178577
H6    H     H_    0.845693 0.663478 0.594829 0.188135
H7    H     H_    0.918862 0.329548 0.414293 0.170620
H8    H     H_    0.082178 0.679369 0.607560 0.173769
H9    H     H_    0.583668 0.817347 0.596096 0.178577
H10   H     H_    0.345693 0.163478 0.594829 0.188134
H11   H     H_    0.418862 0.829547 0.414293 0.170620
H12   H     H_    0.582178 0.179369 0.607560 0.173769
H13   H     H_    0.011263 0.315871 0.562901 0.150468
H14   H     H_    0.919909 0.666816 0.622525 0.154444
H15   H     H_    0.985834 0.325460 0.460851 0.150357
H16   H     H_    0.000661 0.679185 0.599776 0.143499
H17   H     H_    0.511263 0.815871 0.562901 0.150468
H18   H     H_    0.419909 0.166816 0.622525 0.154444
H19   H     H_    0.485834 0.825461 0.460851 0.150357
H20   H     H_    0.500661 0.179185 0.599776 0.143499
H21   H     H_    0.700203 0.150433 0.973297 0.135639
H22   H     H_    0.299965 0.849985 0.026658 0.136687
H23   H     H_    0.299800 0.148695 0.025756 0.135123
H24   H     H_    0.701678 0.848839 0.972984 0.138068
H25   H     H_    0.200204 0.650432 0.973296 0.135639
H26   H     H_    0.799966 0.349984 0.026656 0.136688
H27   H     H_    0.799798 0.648694 0.025760 0.135123
H28   H     H_    0.201675 0.348838 0.972989 0.138067
H29   H     H_    0.747075 0.375428 0.950342 0.135072
H30   H     H_    0.253102 0.624985 0.049594 0.133723
H31   H     H_    0.254148 0.373712 0.050424 0.136359
H32   H     H_    0.747230 0.623799 0.948381 0.133037
H33   H     H_    0.247074 0.875429 0.950343 0.135071
H34   H     H_    0.753101 0.124985 0.049595 0.133723
H35   H     H_    0.754151 0.873712 0.050419 0.136359
H36   H     H_    0.247233 0.123800 0.948376 0.133037
H37   H     H_    0.635404 0.354770 0.007342 0.165818
H38   H     H_    0.364754 0.645533 0.992524 0.167070
H39   H     H_    0.365145 0.352830 0.992331 0.164740
H40   H     H_    0.635637 0.645477 0.007013 0.168025
H41   H     H_    0.135404 0.854770 0.007342 0.165818
H42   H     H_    0.864754 0.145533 0.992524 0.167070
H43   H     H_    0.865146 0.852830 0.992331 0.164740
H44   H     H_    0.135638 0.145476 0.007013 0.168026
H45   H     H_    0.612647 0.338203 0.777508 0.181834
H46   H     H_    0.387345 0.661734 0.222549 0.182812
H47   H     H_    0.387640 0.338365 0.222384 0.183967
H48   H     H_    0.612176 0.662200 0.778027 0.182882
H49   H     H_    0.112647 0.838203 0.777508 0.181833
H50   H     H_    0.887345 0.161734 0.222549 0.182812
H51   H     H_    0.887640 0.838365 0.222384 0.183967
H52   H     H_    0.112176 0.162200 0.778027 0.182882
O1    O     O_R   0.746490 0.236330 0.638080 -0.602492
O2    O     O_R   0.253510 0.763670 0.361920 -0.601261
O3    O     O_R   0.253510 0.236330 0.361920 -0.601878
O4    O     O_R   0.746490 0.763670 0.638080 -0.621251
O5    O     O_R   0.246490 0.736330 0.638080 -0.602492
O6    O     O_R   0.753510 0.263670 0.361920 -0.601261
O7    O     O_R   0.753510 0.736330 0.361920 -0.601878
O8    O     O_R   0.246490 0.263670 0.638080 -0.621251
O9    O     O_R   0.674170 0.186160 0.516270 -0.639884
O10   O     O_R   0.325830 0.813840 0.483730 -0.640808
O11   O     O_R   0.325830 0.186160 0.483730 -0.644442
O12   O     O_R   0.674170 0.813840 0.516270 -0.643629
O13   O     O_R   0.174170 0.686160 0.516270 -0.639884
O14   O     O_R   0.825830 0.313840 0.483730 -0.640808
O15   O     O_R   0.825830 0.686160 0.483730 -0.644442
O16   O     O_R   0.174170 0.313840 0.516270 -0.643630
O17   O     O_R   0.739960 0.127620 0.525000 -0.614416
O18   O     O_R   0.260040 0.872380 0.475000 -0.609211
O19   O     O_R   0.260040 0.127620 0.475000 -0.616461
O20   O     O_R   0.739960 0.872380 0.525000 -0.613861
O21   O     O_R   0.239960 0.627620 0.525000 -0.614416
O22   O     O_R   0.760040 0.372380 0.475000 -0.609211
O23   O     O_R   0.760040 0.627620 0.475000 -0.616461
O24   O     O_R   0.239960 0.372380 0.525000 -0.613861
O25   O     O_R   0.680700 0.294870 0.629350 -0.640238
O26   O     O_R   0.319300 0.705130 0.370650 -0.636043
O27   O     O_R   0.319300 0.294870 0.370650 -0.627991
O28   O     O_R   0.680700 0.705130 0.629350 -0.642955
O29   O     O_R   0.180700 0.794870 0.629350 -0.640238
O30   O     O_R   0.819300 0.205130 0.370650 -0.636042
O31   O     O_R   0.819300 0.794870 0.370650 -0.627991
O32   O     O_R   0.180700 0.205130 0.629350 -0.642956
O33   O     O_R   0.062020 0.072840 0.007170 -0.626397
O34   O     O_R   0.937980 0.927160 0.992830 -0.627660
O35   O     O_R   0.937980 0.072840 0.992830 -0.626555
O36   O     O_R   0.062020 0.927160 0.007170 -0.626495
O37   O     O_R   0.562020 0.572840 0.007170 -0.626397
O38   O     O_R   0.437980 0.427160 0.992830 -0.627660
O39   O     O_R   0.437980 0.572840 0.992830 -0.626555
O40   O     O_R   0.562020 0.427160 0.007170 -0.626495
O41   O     O_R   0.947860 0.073950 0.109290 -0.622387
O42   O     O_R   0.052140 0.926050 0.890710 -0.623280
O43   O     O_R   0.052140 0.073950 0.890710 -0.623132
O44   O     O_R   0.947860 0.926050 0.109290 -0.621855
O45   O     O_R   0.447860 0.573950 0.109290 -0.622388
O46   O     O_R   0.552140 0.426050 0.890710 -0.623279
O47   O     O_R   0.552140 0.573950 0.890710 -0.623133
O48   O     O_R   0.447860 0.426050 0.109290 -0.621855
Zn1   Zn    Zn3+2 0.792340 0.208750 0.507670 0.992884
Zn2   Zn    Zn3+2 0.207660 0.791250 0.492330 0.996373
Zn3   Zn    Zn3+2 0.207660 0.208750 0.492330 0.988608
Zn4   Zn    Zn3+2 0.792340 0.791250 0.507670 0.992336
Zn5   Zn    Zn3+2 0.292340 0.708750 0.507670 0.992884
Zn6   Zn    Zn3+2 0.707660 0.291250 0.492330 0.996373
Zn7   Zn    Zn3+2 0.707660 0.708750 0.492330 0.988609
Zn8   Zn    Zn3+2 0.292340 0.291250 0.507670 0.992336
Zn9   Zn    Zn3+2 0.505960 0.500000 0.080520 0.952312
Zn10  Zn    Zn3+2 0.494040 0.500000 0.919480 0.947857
Zn11  Zn    Zn3+2 0.005960 0.000000 0.080520 0.952313
Zn12  Zn    Zn3+2 0.994040 0.000000 0.919480 0.947857
C149  C     C_2   0.745917 0.192527 0.785042 0.920299
O49   O     O_2   0.790513 0.202553 0.779295 -0.627559
O50   O     O_R   0.734373 0.126949 0.756470 -0.790519
H53   H     H_    0.766155 0.092062 0.732387 0.346986
C150  C     C_2   0.254178 0.807586 0.214421 0.921348
O51   O     O_2   0.264106 0.865614 0.238271 -0.625207
O52   O     O_R   0.203233 0.795210 0.221210 -0.798574
H54   H     H_    0.178128 0.838460 0.246520 0.338493
C151  C     C_2   0.254356 0.190543 0.214809 0.919443
O53   O     O_2   0.209943 0.199721 0.219812 -0.628109
O54   O     O_R   0.265609 0.125592 0.244268 -0.786733
H55   H     H_    0.233801 0.090379 0.268259 0.346637
C152  C     C_2   0.748110 0.805730 0.784322 0.917824
O55   O     O_2   0.739094 0.864384 0.761230 -0.619734
O56   O     O_R   0.799084 0.791621 0.776262 -0.815992
H56   H     H_    0.825086 0.834212 0.750568 0.335678
C153  C     C_2   0.245918 0.692528 0.785041 0.920298
O57   O     O_2   0.290514 0.702554 0.779293 -0.627558
O58   O     O_R   0.234373 0.626949 0.756470 -0.790519
H57   H     H_    0.266156 0.592062 0.732387 0.346986
C154  C     C_2   0.754177 0.307585 0.214421 0.921349
O59   O     O_2   0.764105 0.365614 0.238271 -0.625207
O60   O     O_R   0.703232 0.295208 0.221212 -0.798573
H58   H     H_    0.678126 0.338458 0.246521 0.338492
C155  C     C_2   0.754356 0.690544 0.214810 0.919442
O61   O     O_2   0.709943 0.699723 0.219814 -0.628109
O62   O     O_R   0.765608 0.625593 0.244268 -0.786733
H59   H     H_    0.733800 0.590380 0.268259 0.346636
C156  C     C_2   0.248109 0.305731 0.784322 0.917825
O63   O     O_2   0.239093 0.364384 0.761230 -0.619734
O64   O     O_R   0.299083 0.291624 0.776264 -0.815991
H60   H     H_    0.325085 0.334215 0.750570 0.335678

loop_
_geom_bond_atom_site_label_1
_geom_bond_atom_site_label_2
_ccdc_geom_bond_type
O64   H60   S    
C2    O2    A    
C79   C87   A    
C151  O54   S    
O33   Zn11  S    
O34   Zn12  S    
O24   Zn8   S    
C89   O17   A    
C13   C112  A    
O54   H55   S    
C62   C70   A    
C148  H12   S    
C107  C113  A    
O40   Zn9   S    
C98   O44   A    
C50   C103  S    
C10   H14   S    
C30   H34   S    
C41   C49   A    
C136  H4    S    
C16   C109  A    
O22   Zn6   S    
C52   C101  S    
C94   O14   A    
C61   H49   S    
C20   C28   A    
C59   H47   S    
C21   C29   A    
C23   C31   A    
C24   C32   A    
C145  H9    S    
C43   H39   S    
C102  O48   A    
C28   H32   S    
C91   O11   A    
C105  C112  A    
C63   C71   A    
C120  C148  A    
C64   H52   S    
C100  O36   A    
O18   Zn2   S    
C100  O42   A    
C2    O26   A    
C38   H21   S    
C149  O50   S    
C104  O40   A    
C9    C116  A    
C96   O16   A    
C61   C69   A    
C17   C25   A    
C80   C88   A    
C55   C98   S    
C18   C82   S    
C76   C152  S    
O43   Zn12  S    
C126  C134  A    
C36   H27   S    
C155  O62   S    
C23   C36   A    
C118  C138  A    
C11   C143  A    
C40   H23   S    
C96   C129  S    
C113  C115  A    
C43   C83   A    
C124  C139  A    
C69   C77   A    
C127  C134  A    
C13   C145  A    
O11   Zn8   S    
C43   C51   A    
C92   C125  S    
C49   C104  S    
C71   C79   A    
O10   Zn5   S    
C51   C102  S    
C30   C38   A    
C103  O45   A    
C108  C115  A    
C109  C111  A    
C149  O49   D    
C66   C74   A    
C49   C57   A    
C124  C132  A    
C52   C60   A    
C59   C67   A    
C129  C135  A    
C53   C61   A    
O35   Zn12  S    
C55   C63   A    
C95   C130  S    
C1    C65   S    
C56   C64   A    
C14   H18   S    
C93   C132  S    
C44   C52   A    
C22   C86   S    
C77   C85   A    
C153  O57   D    
C15   H19   S    
O17   Zn1   S    
C56   C97   S    
C19   C83   S    
C73   C149  S    
C106  C111  A    
O21   Zn5   S    
C101  O37   A    
C7    O7    A    
C131  C136  A    
C4    C68   S    
C89   O9    A    
C95   O23   A    
C47   C87   A    
C144  H8    S    
C78   C154  S    
C143  H7    S    
C98   O34   A    
C90   C127  S    
C57   C65   A    
O14   Zn1   S    
C11   H15   S    
C156  O63   D    
C142  H6    S    
C9    H13   S    
C33   H26   S    
C150  O52   S    
C60   C68   A    
C42   C50   A    
O3    Zn3   S    
C104  O46   A    
C20   C84   S    
C54   C99   S    
C92   O12   A    
C67   C75   A    
O5    Zn5   S    
C105  C109  A    
C22   C30   A    
C119  C138  A    
C2    C66   S    
C114  C116  A    
O52   H54   S    
O27   Zn8   S    
C146  H10   S    
C154  O60   S    
O1    Zn1   S    
C121  C139  A    
O12   Zn7   S    
C6    O30   A    
C122  C140  A    
C72   C80   A    
C141  H5    S    
C3    C67   S    
O16   Zn3   S    
C152  O56   S    
C17   C38   A    
C107  C139  A    
C110  C112  A    
C107  C116  A    
C6    O6    A    
C19   C40   A    
C105  C137  A    
O60   H58   S    
C94   O22   A    
C117  C125  A    
C25   C33   A    
C119  C127  A    
C79   C155  S    
C3    O3    A    
O56   H56   S    
C18   C26   A    
C1    O1    A    
C76   C84   A    
O50   H53   S    
C7    O31   A    
C27   H31   S    
C74   C150  S    
C25   H29   S    
C119  C147  A    
C117  C145  A    
C10   C142  A    
C108  C114  A    
C5    C69   S    
O26   Zn5   S    
O58   H57   S    
C48   C88   A    
O30   Zn1   S    
O45   Zn9   S    
O19   Zn3   S    
C151  O53   D    
C15   C110  A    
C74   C82   A    
C53   C100  S    
C21   C85   S    
C8    C72   S    
C93   O13   A    
C50   C58   A    
C121  C141  A    
C20   C39   A    
C21   C34   A    
C54   C62   A    
C58   H46   S    
C155  O61   D    
O9    Zn6   S    
C12   H16   S    
O28   Zn7   S    
C13   H17   S    
O62   H59   S    
C41   C81   A    
C46   C54   A    
O32   Zn3   S    
C24   C88   S    
C73   C81   A    
O37   Zn9   S    
O15   Zn4   S    
C68   C76   A    
C101  O47   A    
C3    O27   A    
O47   Zn10  S    
C1    O25   A    
C6    C70   S    
C123  C131  A    
C121  C129  A    
C44   C84   A    
C120  C128  A    
C94   C131  S    
C27   C35   A    
C34   H25   S    
C15   C147  A    
C75   C83   A    
C135  H3    S    
C17   C81   S    
C4    O28   A    
C47   H43   S    
C48   H44   S    
C106  C138  A    
C28   C36   A    
C103  O39   A    
C29   C37   A    
C120  C137  A    
C89   C128  S    
C91   C126  S    
C70   C78   A    
C95   O15   A    
O39   Zn10  S    
C90   O10   A    
C42   C82   A    
C147  H11   S    
C39   H24   S    
C29   H33   S    
C35   H28   S    
C18   C37   A    
C7    C71   S    
C80   C156  S    
C4    O4    A    
C134  H2    S    
C65   C73   A    
C92   O20   A    
C77   C153  S    
C8    O8    A    
C11   C114  A    
O7    Zn7   S    
C26   C34   A    
C31   C39   A    
O25   Zn6   S    
C96   O24   A    
C19   C27   A    
C150  O51   D    
O29   Zn2   S    
C78   C86   A    
C32   C40   A    
C23   C87   S    
O44   Zn11  S    
C130  C136  A    
C46   H42   S    
O31   Zn4   S    
C58   C66   A    
C26   H30   S    
C14   C111  A    
C102  O38   A    
C24   C35   A    
C90   O18   A    
C118  C146  A    
C133  H1    S    
C62   H50   S    
C37   H22   S    
C108  C140  A    
C9    C141  A    
C75   C151  S    
C154  O59   D    
C5    O5    A    
C123  C140  A    
C12   C144  A    
C57   H45   S    
C99   O41   A    
C45   C85   A    
O46   Zn10  S    
C97   O43   A    
C99   O35   A    
C97   O33   A    
C152  O55   D    
C41   H37   S    
O13   Zn2   S    
C44   H40   S    
C45   H41   S    
O2    Zn2   S    
C153  O58   S    
C5    O29   A    
C51   C59   A    
C122  C142  A    
O6    Zn6   S    
C60   H48   S    
C47   C55   A    
C12   C113  A    
C106  C110  A    
C125  C133  A    
C48   C56   A    
C22   C33   A    
O36   Zn11  S    
O41   Zn11  S    
C31   H35   S    
O42   Zn12  S    
C32   H36   S    
C117  C137  A    
O8    Zn8   S    
C14   C146  A    
C16   C148  A    
O20   Zn4   S    
C128  C133  A    
C8    O32   A    
C42   H38   S    
C16   H20   S    
C132  C135  A    
C156  O64   S    
C63   H51   S    
O38   Zn10  S    
C64   C72   A    
C91   O19   A    
C45   C53   A    
O48   Zn9   S    
O4    Zn4   S    
O23   Zn7   S    
C123  C143  A    
C124  C144  A    
C93   O21   A    
C118  C126  A    
C122  C130  A    
C10   C115  A    
C46   C86   A    
