data_mof_unit_66962.cif
_audit_creation_date              2012-12-11T17:40:58-0500
_audit_creation_method            fapswitch 2.2
_symmetry_space_group_name_H-M    P1
_symmetry_Int_Tables_number       1
_space_group_crystal_system       triclinic
_cell_length_a                    8.28488
_cell_length_b                    12.94977
_cell_length_c                    14.682557
_cell_angle_alpha                 94.911964
_cell_angle_beta                  92.198312
_cell_angle_gamma                 98.298424
_cell_volume                      1550.97760713

loop_
_atom_site_label
_atom_site_type_symbol
_atom_type_description
_atom_site_fract_x
_atom_site_fract_y
_atom_site_fract_z
_atom_type_partial_charge
Ba1   Ba    Ba6+2 0.855630 0.555280 0.454520 1.665683
Ba2   Ba    Ba6+2 0.334200 0.444810 0.545490 1.692795
C1    C     C_3   0.673226 0.952085 0.211619 -0.199799
C2    C     C_R   0.178563 0.490796 0.196704 0.038381
C3    C     C_R   0.335865 0.536988 0.228081 -0.314159
C4    C     C_3   0.120596 0.768995 0.196646 0.298105
C5    C     C_R   0.450652 0.573443 0.167639 0.021142
C6    C     C_R   0.411187 0.565886 0.074957 -0.079381
C7    C     C_R   0.249145 0.535053 0.040902 0.037328
C8    C     C_R   0.131105 0.491789 0.100089 -0.007133
C9    C     C_R   0.049224 0.518416 0.907976 0.027136
C10   C     C_R   0.930681 0.471703 0.967030 0.015975
C11   C     C_R   0.004368 0.520893 0.809966 0.068499
C12   C     C_3   0.647418 0.841286 0.242702 0.290450
C13   C     C_R   0.843556 0.479502 0.779704 -0.268038
C14   C     C_R   0.728514 0.437703 0.838945 0.036513
C15   C     C_R   0.770295 0.436460 0.931951 -0.091381
C16   C     C_3   0.073848 0.784024 0.099361 -0.273597
C17   C     C_R   0.204214 0.557137 0.951089 0.154223
C18   C     C_R   0.765357 0.174167 0.538591 -0.254502
C19   C     C_R   0.455253 0.812111 0.442575 -0.247694
C20   C     C_R   0.417625 0.990619 0.421552 -0.056023
C21   C     C_R   0.361264 0.883652 0.407715 0.034817
C22   C     C_R   0.587413 0.846162 0.506327 0.076582
C23   C     C_3   0.505081 0.305417 0.265212 0.283448
C24   C     C_R   0.648622 0.956656 0.518595 -0.040471
C25   C     C_R   0.562338 0.029204 0.474424 -0.059952
C26   C     C_R   0.621233 0.138921 0.485708 0.004705
C27   C     C_R   0.855402 0.104765 0.578672 -0.011103
C28   C     C_3   0.096878 0.767688 0.705678 0.410107
C29   C     C_R   0.796074 0.996939 0.569887 -0.104826
C30   C     C_3   0.116674 0.874391 0.759650 -0.013760
C31   C     C_3   0.961683 0.240980 0.340602 0.297692
C32   C     C_3   0.001438 0.129848 0.329474 -0.289075
C33   C     C_3   0.621538 0.688071 0.736033 0.243752
C34   C     C_3   0.505632 0.283969 0.161064 -0.198870
C35   C     C_3   0.692143 0.691154 0.833711 -0.203950
C36   C     C_2   0.676935 0.789304 0.892201 1.017718
C37   C     C_2   0.529532 0.975276 0.155876 0.892667
C38   C     C_2   0.336052 0.254448 0.118331 0.872324
C39   C     C_3   0.081187 0.127141 0.796835 0.356505
C40   C     C_3   0.194284 0.123443 0.880734 -0.207614
C41   C     C_3   0.573261 0.166818 0.750288 0.289596
C42   C     C_3   0.608822 0.065621 0.786229 -0.300033
C43   C     C_R   0.972629 0.457258 0.060172 -0.009128
H1    H     H_    0.729368 0.842433 0.304725 0.078566
H2    H     H_    0.492520 0.698783 0.737356 0.132022
H3    H     H_    0.689813 0.009251 0.273260 0.000219
H4    H     H_    0.822545 0.681733 0.833032 0.036285
H5    H     H_    0.626786 0.624168 0.866169 0.019328
H6    H     H_    0.518645 0.820084 0.260343 -0.039465
H7    H     H_    0.398010 0.343565 0.284930 -0.015009
H8    H     H_    0.618184 0.359831 0.286850 0.057553
H9    H     H_    0.565765 0.355534 0.132122 -0.000786
H10   H     H_    0.578364 0.220120 0.143163 0.104473
H11   H     H_    0.785575 0.963261 0.172411 0.089313
H12   H     H_    0.246038 0.912340 0.763293 0.124136
H13   H     H_    0.176895 0.833276 0.071068 0.169043
H14   H     H_    0.976618 0.063126 0.792572 0.037511
H15   H     H_    0.275641 0.198756 0.896771 0.208471
H16   H     H_    0.121573 0.109187 0.941598 0.123346
H17   H     H_    0.272569 0.062100 0.869866 0.136264
H18   H     H_    0.685263 0.203616 0.719896 -0.008529
H19   H     H_    0.474534 0.147986 0.695601 0.105319
H20   H     H_    0.661131 0.017162 0.732470 0.085347
H21   H     H_    0.495177 0.019880 0.806568 0.165186
H22   H     H_    0.039103 0.699793 0.215663 0.098042
H23   H     H_    0.040315 0.922504 0.723457 0.057794
H24   H     H_    0.696486 0.082671 0.846558 0.177296
H25   H     H_    0.371173 0.542311 0.300284 0.066507
H26   H     H_    0.506745 0.591658 0.030122 0.116545
H27   H     H_    0.680276 0.399905 0.975462 0.083176
H28   H     H_    0.808601 0.475721 0.707572 0.045872
H29   H     H_    0.880198 0.418866 0.100977 0.100200
H30   H     H_    0.343767 0.043033 0.392894 0.120862
H31   H     H_    0.869169 0.945579 0.600456 0.107042
H32   H     H_    0.813336 0.256850 0.543907 0.055165
H33   H     H_    0.249375 0.754016 0.200879 -0.025446
H34   H     H_    0.828418 0.238066 0.344528 -0.027317
H35   H     H_    0.409751 0.729141 0.431127 0.076291
H36   H     H_    0.045645 0.707231 0.058186 0.112996
H37   H     H_    0.964738 0.824177 0.096977 0.199146
H38   H     H_    0.969441 0.728637 0.699497 0.043888
H39   H     H_    0.710009 0.864270 0.018197 0.352086
H40   H     H_    0.292517 0.992762 0.152234 0.354533
H41   H     H_    0.118812 0.161152 0.115692 0.315831
H42   H     H_    0.023245 0.278504 0.406011 0.061930
H43   H     H_    0.958805 0.092479 0.260557 0.127422
H44   H     H_    0.942477 0.083185 0.382324 0.073389
H45   H     H_    0.135282 0.131088 0.335902 0.165767
H46   H     H_    0.633424 0.609406 0.702892 0.022006
I1    I     I_    0.045476 0.878445 0.895167 -0.523648
I2    I     I_    0.987100 0.264787 0.827399 -0.506318
I3    I     I_    0.319014 0.703156 0.923780 -0.463778
I4    I     I_    0.197025 0.805030 0.587820 -0.422884
O1    O     O_2   0.887370 0.460630 0.272300 -0.485649
O2    O     O_2   0.174048 0.120950 0.543407 -0.462189
O3    O     O_3   0.171182 0.122337 0.717448 -0.584142
O4    O     O_3   0.129410 0.451380 0.388510 -0.493463
O5    O     O_3   0.575400 0.626570 0.547370 -0.496586
O6    O     O_2   0.344320 0.238700 0.455090 -0.452540
O7    O     O_3   0.503413 0.211174 0.306355 -0.620160
O8    O     O_2   0.381969 0.398680 0.826804 -0.436108
O9    O     O_3   0.525487 0.232376 0.822639 -0.582747
O10   O     O_3   0.670210 0.653170 0.329170 -0.496787
O11   O     O_2   0.786822 0.586945 0.171970 -0.503341
O12   O     O_3   0.704535 0.769529 0.691472 -0.632220
O13   O     O_3   0.011195 0.290915 0.262907 -0.613056
O14   O     O_3   0.688295 0.768919 0.173738 -0.576230
O15   O     O_2   0.845380 0.761330 0.544970 -0.458280
O16   O     O_3   0.088930 0.704860 0.376040 -0.476723
O17   O     O_2   0.024024 0.894125 0.420547 -0.466628
O18   O     O_2   0.633693 0.865068 0.859431 -0.576487
O19   O     O_R   0.712568 0.792477 0.985992 -0.726894
O20   O     O_2   0.544447 0.996887 0.076925 -0.592013
O21   O     O_R   0.380623 0.977248 0.196469 -0.744971
O22   O     O_2   0.292098 0.301255 0.055292 -0.631416
O23   O     O_3   0.100311 0.859498 0.251915 -0.577659
O24   O     O_R   0.229233 0.173628 0.150228 -0.733284
O25   O     O_2   0.302330 0.539400 0.727760 -0.449759
O26   O     O_3   0.060300 0.548700 0.611500 -0.480007
O27   O     O_3   0.519500 0.346920 0.670840 -0.484372
O28   O     O_3   0.205069 0.706444 0.737822 -0.600794
O29   O     O_3   0.614310 0.373510 0.452640 -0.500417
O30   O     O_3   0.100780 0.295230 0.623970 -0.442196
P1    P     P_3+3 0.054400 0.427280 0.286870 0.980727
P2    P     P_3+3 0.668300 0.742890 0.573060 0.978810
P3    P     P_3+3 0.146037 0.837813 0.364456 1.000394
P4    P     P_3+3 0.135310 0.572810 0.713130 1.033447
P5    P     P_3+3 0.068318 0.157639 0.620316 0.991309
P6    P     P_3+3 0.648955 0.642927 0.210599 0.966565
P7    P     P_3+3 0.525946 0.239683 0.425555 0.938059
P8    P     P_3+3 0.537292 0.359938 0.789878 1.019169

loop_
_geom_bond_atom_site_label_1
_geom_bond_atom_site_label_2
_ccdc_geom_bond_type
C12   O14   S    
O5    P2    S    
C39   C40   S    
C42   H21   S    
C33   H2    S    
Ba1   O4    S    
C41   H18   S    
C5    C6    A    
O10   P6    S    
C9    C17   A    
C24   C25   A    
C28   I4    S    
C18   H32   S    
C20   H30   S    
C33   C35   S    
C35   C36   S    
O7    P7    S    
O2    P5    D    
C36   O19   S    
C23   O7    S    
C4    H33   S    
C13   C14   A    
C1    H3    S    
C16   H36   S    
O29   P7    S    
Ba1   Ba2   S    
C28   H38   S    
C41   O9    S    
O30   P5    S    
C16   H13   S    
C39   I2    S    
C27   P5    S    
C14   C15   A    
C10   C15   A    
O14   P6    S    
C22   P2    S    
H41   O24   S    
C7    C8    A    
C40   H17   S    
C5    P6    S    
O15   P2    D    
C30   H23   S    
C38   O22   D    
C1    C37   S    
C24   C29   A    
O28   P4    S    
C42   H20   S    
C31   O13   S    
O23   P3    S    
C30   H12   S    
C14   P8    S    
Ba1   O5    S    
C7    C17   A    
C41   H19   S    
O4    P1    S    
C18   C27   A    
Ba2   O27   S    
O11   P6    D    
C4    C16   S    
O17   P3    D    
O9    P8    S    
O25   P4    D    
C34   C38   S    
C34   H9    S    
Ba1   P1    S    
C39   H14   S    
C12   H1    S    
C40   H15   S    
C3    C5    A    
C36   O18   D    
Ba2   O25   S    
O6    P7    D    
C6    C7    A    
C18   C26   A    
Ba2   O6    S    
C43   H29   S    
C26   P7    S    
C41   C42   S    
C32   H45   S    
O27   P8    S    
C3    H25   S    
Ba1   O15   S    
C35   H4    S    
C1    H11   S    
C12   H6    S    
O3    P5    S    
C8    C43   A    
C31   C32   S    
O1    P1    D    
C42   H24   S    
C32   H43   S    
C17   I3    S    
C40   H16   S    
C1    C12   S    
C4    H22   S    
C13   H28   S    
Ba2   O4    S    
C37   O20   D    
C20   C25   A    
C11   C13   A    
C2    C8    A    
C25   C26   A    
Ba2   O26   S    
C6    H26   S    
H39   O19   S    
C39   O3    S    
H40   O21   S    
C31   H34   S    
Ba1   P2    S    
O26   P4    S    
C2    C3    A    
C9    C10   A    
C10   C43   A    
Ba2   O29   S    
C2    P1    S    
C19   C21   A    
C31   H42   S    
C23   H7    S    
O12   P2    S    
C27   C29   A    
C34   H10   S    
Ba1   O16   S    
C28   C30   S    
C35   H5    S    
C9    C11   A    
C22   C24   A    
C29   H31   S    
C30   I1    S    
C32   H44   S    
Ba1   O1    S    
C19   H35   S    
O16   P3    S    
C16   H37   S    
O8    P8    D    
Ba1   O26   S    
Ba1   O29   S    
C33   O12   S    
C23   C34   S    
Ba2   O5    S    
Ba2   O30   S    
C38   O24   S    
C28   O28   S    
C15   H27   S    
C37   O21   S    
C19   C22   A    
Ba2   P4    S    
C11   P4    S    
C20   C21   A    
O13   P1    S    
C4    O23   S    
C23   H8    S    
Ba1   O10   S    
C21   P3    S    
C33   H46   S    
