data_mof_unit_32021.cif
_audit_creation_date              2012-12-11T14:46:06-0500
_audit_creation_method            fapswitch 2.2
_symmetry_space_group_name_H-M    P1
_symmetry_Int_Tables_number       1
_space_group_crystal_system       triclinic
_cell_length_a                    10.944548
_cell_length_b                    10.86217
_cell_length_c                    18.749705
_cell_angle_alpha                 89.739197
_cell_angle_beta                  90.377941
_cell_angle_gamma                 119.452405
_cell_volume                      1940.88415523

loop_
_atom_site_label
_atom_site_type_symbol
_atom_type_description
_atom_site_fract_x
_atom_site_fract_y
_atom_site_fract_z
_atom_type_partial_charge
C1    C     C_R   0.904401 0.612016 0.611448 0.549216
C2    C     C_R   0.308277 0.550435 0.793790 -0.121882
C3    C     C_R   0.304708 0.541698 0.721087 0.110491
C4    C     C_R   0.299262 0.649490 0.681041 0.033711
C5    C     C_R   0.818740 0.129876 0.812991 -0.032049
C6    C     C_R   0.045925 0.125041 0.812657 -0.090293
C7    C     C_R   0.127616 0.076226 0.779932 -0.148144
C8    C     C_R   0.110770 0.044025 0.707684 -0.123010
C9    C     C_R   0.016987 0.067580 0.666901 0.014458
C10   C     C_R   0.927278 0.109078 0.701048 -0.017614
C11   C     C_R   0.930858 0.122829 0.776463 -0.016142
C12   C     C_R   0.262597 0.626506 0.606231 0.542203
C13   C     C_R   0.698678 0.087200 0.696958 0.005374
C14   C     C_R   0.702368 0.122716 0.770050 0.007942
C15   C     C_R   0.575709 0.042089 0.654679 0.184086
C16   C     C_R   0.481622 0.085988 0.674262 -0.124610
C17   C     C_R   0.490307 0.141189 0.741150 -0.163104
C18   C     C_R   0.588738 0.148305 0.791667 0.161341
C19   C     C_R   0.824640 0.122985 0.663048 -0.030136
C20   C     C_R   0.774597 0.667200 0.700388 -0.123583
C21   C     C_R   0.744361 0.679471 0.770824 -0.149193
C22   C     C_R   0.816238 0.654406 0.825998 0.011173
C23   C     C_R   0.858986 0.218157 0.600013 0.558286
C24   C     C_R   0.919778 0.617694 0.810517 -0.030689
C25   C     C_R   0.943310 0.597006 0.739670 -0.151394
C26   C     C_R   0.872274 0.623981 0.684873 0.027203
C27   C     C_R   0.410080 0.615131 0.302321 -0.133384
C28   C     C_R   0.433250 0.618275 0.230265 -0.059277
C29   C     C_R   0.404780 0.707021 0.185564 -0.011860
C30   C     C_R   0.335412 0.776800 0.213755 -0.055478
C31   C     C_R   0.302809 0.762451 0.285618 -0.138770
C32   C     C_R   0.340595 0.682338 0.329680 0.015340
C33   C     C_R   0.694131 0.084782 0.298605 -0.006691
C34   C     C_R   0.903798 0.613751 0.389854 0.548335
C35   C     C_R   0.677893 0.052621 0.226695 -0.149815
C36   C     C_R   0.791787 0.072331 0.185736 -0.006411
C37   C     C_R   0.922823 0.117022 0.218072 -0.133720
C38   C     C_R   0.942226 0.155593 0.289641 -0.141860
C39   C     C_R   0.830074 0.146708 0.329626 0.026647
C40   C     C_R   0.807315 0.710471 0.299621 -0.007536
C41   C     C_R   0.784010 0.727835 0.228606 -0.121446
C42   C     C_R   0.815672 0.658306 0.175401 0.051913
C43   C     C_R   0.873165 0.572192 0.192386 -0.109729
C44   C     C_R   0.899416 0.556116 0.263599 -0.152406
C45   C     C_R   0.274994 0.636733 0.398107 0.546730
C46   C     C_R   0.868351 0.626508 0.316952 0.020029
C47   C     C_R   0.800021 0.095067 0.891361 0.559235
C48   C     C_R   0.391427 0.699344 0.897894 0.586365
C49   C     C_R   0.797272 0.691163 0.897602 0.543910
C50   C     C_R   0.768345 0.042445 0.109805 0.538537
C51   C     C_R   0.450140 0.723947 0.111673 0.529101
C52   C     C_R   0.799519 0.691370 0.102859 0.536834
C53   C     C_R   0.859762 0.224420 0.397028 0.548754
C54   C     C_R   0.297663 0.762512 0.716263 -0.174794
C55   C     C_R   0.320087 0.778972 0.789268 -0.143163
C56   C     C_R   0.330237 0.674306 0.827590 0.021156
Cr1   Cr    Cr6+3 0.791660 0.390250 0.499930 1.047974
Cr2   Cr    Cr6+3 0.098520 0.708290 0.500540 1.028292
Cr3   Cr    Cr6+3 0.109770 0.401430 0.499480 1.040356
Cr4   Cr    Cr6+3 0.874790 0.925890 0.000070 1.037389
Cr5   Cr    Cr6+3 0.574120 0.948670 0.999300 1.049779
Cr6   Cr    Cr6+3 0.551420 0.625320 0.000920 1.025276
H1    H     H_    0.275675 0.835614 0.687504 0.138679
H2    H     H_    0.399122 0.074146 0.638062 0.095792
H3    H     H_    0.415427 0.174303 0.755228 0.101897
H4    H     H_    0.723297 0.692572 0.657903 0.114492
H5    H     H_    0.669183 0.714318 0.782325 0.120030
H6    H     H_    0.017586 0.561814 0.727067 0.107973
H7    H     H_    0.433377 0.547830 0.336203 0.149685
H8    H     H_    0.329670 0.871921 0.815470 0.139788
H9    H     H_    0.241429 0.807874 0.306391 0.158478
H10   H     H_    0.576671 0.016249 0.201717 0.136868
H11   H     H_    0.011676 0.129189 0.187474 0.161105
H12   H     H_    0.046719 0.200389 0.312291 0.151578
H13   H     H_    0.740060 0.794941 0.214385 0.090510
H14   H     H_    0.900104 0.520712 0.150914 0.134421
H15   H     H_    0.946352 0.491328 0.277100 0.107905
H16   H     H_    0.307852 0.463901 0.823092 0.138109
H17   H     H_    0.205272 0.065100 0.810932 0.106433
H18   H     H_    0.173699 0.004413 0.683121 0.110819
H19   H     H_    0.075382 0.164123 0.866331 0.145996
O1    O     O_R   0.766500 0.250040 0.579790 -0.489862
O2    O     O_R   0.218690 0.701900 0.425960 -0.511732
O3    O     O_R   0.249490 0.516440 0.419420 -0.522700
O4    O     O_R   0.982880 0.281910 0.424890 -0.498867
O5    O     O_3   0.999980 0.499990 0.499980 -0.302598
O6    O     O_R   0.895110 0.806860 0.920430 -0.493876
O7    O     O_R   0.872260 0.046970 0.925000 -0.505448
O8    O     O_R   0.691430 0.085060 0.918550 -0.465168
O9    O     O_R   0.451490 0.822460 0.925250 -0.491027
O10   O     O_R   0.413330 0.603360 0.920440 -0.525021
O11   O     O_R   0.676110 0.626250 0.926750 -0.522481
O12   O     O_R   0.798570 0.516780 0.574780 -0.495084
O13   O     O_R   0.895350 0.809870 0.080950 -0.500409
O14   O     O_R   0.872490 0.049760 0.073800 -0.493180
O15   O     O_R   0.691680 0.088070 0.079070 -0.501044
O16   O     O_R   0.451720 0.825250 0.074050 -0.499049
O17   O     O_R   0.413580 0.606370 0.080960 -0.484369
O18   O     O_R   0.676340 0.629040 0.075550 -0.502461
O19   O     O_3   0.666780 0.833290 0.000090 -0.300374
O20   O     O_R   0.984000 0.732950 0.581090 -0.497332
O21   O     O_R   0.218600 0.700890 0.574760 -0.540117
O22   O     O_R   0.249390 0.515350 0.579940 -0.474936
O23   O     O_R   0.982790 0.280900 0.573700 -0.490946
O24   O     O_R   0.766600 0.251130 0.419260 -0.503861
O25   O     O_R   0.798660 0.517790 0.425980 -0.482495
O26   O     O_R   0.984100 0.734040 0.420570 -0.481992
N1    N     N_2   0.558508 0.974814 0.586859 -0.489954
H20   H     H_    0.469549 0.954617 0.558412 0.263652
C57   C     C_3   0.596381 0.864604 0.581858 -0.274840
H21   H     H_    0.706801 0.910702 0.564474 0.179119
H22   H     H_    0.529958 0.785464 0.541161 0.157371
H23   H     H_    0.582421 0.809742 0.633808 0.121120
C58   C     C_1   0.998389 0.597129 0.866991 0.171561
N2    N     N_1   0.059150 0.579597 0.913012 -0.296590
C59   C     C_1   0.469102 0.514934 0.204060 0.228431
N3    N     N_1   0.495149 0.429916 0.183926 -0.264543
C60   C     C_1   0.286124 0.854105 0.170349 0.229654
N4    N     N_1   0.246288 0.915907 0.135834 -0.261468
C61   C     C_1   0.570564 0.060607 0.337589 0.246194
N5    N     N_1   0.472582 0.042653 0.369149 -0.290200
C62   C     C_1   0.766903 0.778134 0.353573 0.233986
N6    N     N_1   0.734196 0.831689 0.396899 -0.294241
N7    N     N_2   0.296743 0.418772 0.689685 -0.480311
H24   H     H_    0.238693 0.328569 0.718901 0.253898
C63   C     C_3   0.429885 0.433193 0.668777 -0.276198
H25   H     H_    0.494704 0.445161 0.716778 0.131708
H26   H     H_    0.485974 0.525300 0.632654 0.163003
H27   H     H_    0.411697 0.336792 0.639676 0.148770
C64   C     C_1   0.005285 0.033679 0.591813 0.210394
N8    N     N_1   0.996263 0.006899 0.531656 -0.250482
N9    N     N_2   0.568002 0.185052 0.861329 -0.472400
H28   H     H_    0.464093 0.142318 0.875867 0.232707
C65   C     C_3   0.648668 0.332082 0.878556 -0.261665
H29   H     H_    0.629041 0.348797 0.934764 0.161719
H30   H     H_    0.616733 0.393087 0.842870 0.137033
H31   H     H_    0.761090 0.365713 0.873141 0.169192

loop_
_geom_bond_atom_site_label_1
_geom_bond_atom_site_label_2
_ccdc_geom_bond_type
C51   O16   A    
Cr1   O24   S    
C55   C56   A    
C24   C58   S    
C63   H25   S    
C34   C46   S    
C23   O1    A    
C41   C42   A    
C14   C18   A    
C18   N9    S    
C35   C36   A    
C65   H31   S    
C58   N2    T    
Cr4   O7    S    
Cr5   O15   S    
C7    C8    A    
C39   C53   S    
C9    C64   S    
Cr5   O9    S    
C40   C46   A    
C5    C47   S    
C33   C39   A    
Cr6   O17   S    
Cr3   O23   S    
C7    H17   S    
C36   C37   A    
C5    C11   A    
C29   C51   S    
C30   C31   A    
C50   O14   A    
Cr1   O12   S    
C54   H1    S    
C15   C16   A    
Cr1   O5    S    
Cr2   O26   S    
C32   C45   S    
C49   O6    A    
C57   H21   S    
C28   C59   S    
C60   N4    T    
C31   C32   A    
Cr5   O8    S    
N9    H28   S    
C48   O10   A    
Cr6   O11   S    
C52   O13   A    
Cr2   O21   S    
N1    H20   S    
C4    C12   S    
C29   C30   A    
C9    C10   A    
C27   H7    S    
C51   O17   A    
C31   H9    S    
Cr1   O25   S    
C6    H19   S    
C48   O9    A    
C21   C22   A    
C21   H5    S    
C47   O8    A    
C45   O2    A    
C25   H6    S    
Cr2   O5    S    
Cr4   O6    S    
C44   C46   A    
C13   C19   A    
C34   O25   A    
Cr3   O3    S    
C12   O22   A    
C6    C11   A    
C16   C17   A    
C65   H30   S    
C30   C60   S    
C63   H27   S    
C25   C26   A    
C15   N1    S    
C19   C23   S    
C43   C44   A    
Cr3   O4    S    
C12   O21   A    
C37   C38   A    
C2    H16   S    
C41   H13   S    
C23   O23   A    
C10   C19   A    
Cr6   O10   S    
C17   C18   A    
C8    C9    A    
Cr2   O20   S    
C24   C25   A    
C57   H23   S    
C5    C14   A    
C65   H29   S    
C22   C49   S    
Cr6   O19   S    
C3    N7    S    
N9    C65   S    
C40   C41   A    
C35   H10   S    
C13   C15   A    
C1    C26   S    
C22   C24   A    
Cr5   O19   S    
C42   C43   A    
C34   O26   A    
C49   O11   A    
C3    C4    A    
C1    O20   A    
C36   C50   S    
C61   N5    T    
N7    C63   S    
C38   H12   S    
C20   H4    S    
C43   H14   S    
C48   C56   S    
C37   H11   S    
C54   C55   A    
C28   C29   A    
C63   H26   S    
C4    C54   A    
C27   C32   A    
Cr5   O16   S    
Cr4   O19   S    
C6    C7    A    
C40   C62   S    
C52   O18   A    
C17   H3    S    
Cr3   O22   S    
C47   O7    A    
C2    C3    A    
Cr3   O5    S    
C2    C56   A    
Cr2   O2    S    
C50   O15   A    
C44   H15   S    
C38   C39   A    
C20   C26   A    
C33   C35   A    
N1    C57   S    
C59   N3    T    
C64   N8    T    
C57   H22   S    
C55   H8    S    
C10   C11   A    
Cr6   O18   S    
C45   O3    A    
Cr4   O14   S    
C53   O24   A    
C20   C21   A    
C33   C61   S    
C1    O12   A    
C27   C28   A    
C8    H18   S    
Cr1   O1    S    
C53   O4    A    
C16   H2    S    
C62   N6    T    
C13   C14   A    
C42   C52   S    
N7    H24   S    
Cr4   O13   S    
