data_mof_unit_12755.cif
_audit_creation_date              2012-10-26T20:35:09-0400
_audit_creation_method            fapswitch 2.2
_symmetry_space_group_name_H-M    P1
_symmetry_Int_Tables_number       1
_space_group_crystal_system       triclinic
_cell_length_a                    8.955315
_cell_length_b                    17.753749
_cell_length_c                    16.487074
_cell_angle_alpha                 90.939049
_cell_angle_beta                  98.34979
_cell_angle_gamma                 91.010645
_cell_volume                      2592.62173714

loop_
_atom_site_label
_atom_site_type_symbol
_atom_type_description
_atom_site_fract_x
_atom_site_fract_y
_atom_site_fract_z
_atom_type_partial_charge
C1    C     C_R   0.518849 0.355897 0.501425 0.574879
C2    C     C_R   0.586634 0.552140 0.265679 -0.021588
C3    C     C_R   0.461752 0.430709 0.824027 -0.061711
C4    C     C_R   0.585171 0.557150 0.179570 -0.047638
C5    C     C_R   0.492149 0.496853 0.873363 -0.050940
C6    C     C_R   0.490819 0.507142 0.126538 -0.047270
C7    C     C_1   0.491129 0.499239 0.962819 0.111949
C8    C     C_1   0.491916 0.503238 0.037078 0.112896
C9    C     C_R   0.203489 0.498028 0.478953 0.551473
C10   C     C_R   0.796696 0.498038 0.521187 0.585791
C11   C     C_2   0.037382 0.498047 0.466918 0.233647
C12   C     C_R   0.504995 0.644686 0.501058 0.585878
C13   C     C_2   0.962593 0.490930 0.533154 0.232601
C14   C     C_R   0.427361 0.845045 0.560122 0.248427
C15   C     C_R   0.505289 0.149840 0.440667 0.230436
C16   C     C_R   0.421879 0.766343 0.553589 0.232205
C17   C     C_R   0.539267 0.227496 0.434981 0.221087
C18   C     C_R   0.512849 0.728011 0.504224 -0.071415
C19   C     C_R   0.549384 0.273107 0.506331 -0.051745
C20   C     C_R   0.610289 0.769599 0.460051 -0.040231
C21   C     C_R   0.588914 0.238078 0.583654 -0.019153
C22   C     C_R   0.610527 0.849541 0.463987 -0.007950
C23   C     C_1   0.514356 0.967268 0.517735 0.103888
C24   C     C_R   0.576553 0.158645 0.588754 -0.001894
C25   C     C_R   0.515882 0.886395 0.512792 -0.053543
C26   C     C_R   0.525998 0.115726 0.517298 -0.046824
C27   C     C_3   0.000965 0.463867 0.328712 0.031943
C28   C     C_3   0.869135 0.447220 0.262194 -0.392320
C29   C     C_3   0.990312 0.495000 0.678220 0.016845
C30   C     C_3   0.116816 0.495989 0.750012 -0.380021
C31   C     C_3   0.409107 0.880994 0.691308 0.006354
C32   C     C_3   0.306682 0.917007 0.746190 -0.347664
C33   C     C_3   0.305157 0.110448 0.348807 -0.005528
C34   C     C_1   0.516957 0.034864 0.519230 0.108453
C35   C     C_3   0.257475 0.066276 0.269237 -0.348999
C36   C     C_3   0.186931 0.718250 0.555967 0.028625
C37   C     C_3   0.094869 0.670082 0.605741 -0.377726
C38   C     C_3   0.655403 0.214996 0.317773 0.019513
C39   C     C_3   0.751797 0.265410 0.272319 -0.404074
C40   C     C_2   0.714383 0.730395 0.411607 0.600073
C41   C     C_2   0.658599 0.282855 0.656998 0.618978
C42   C     C_2   0.715176 0.895231 0.421241 0.624189
C43   C     C_2   0.621725 0.119610 0.667272 0.628834
C44   C     C_3   0.384978 0.666611 0.862650 -0.001121
C45   C     C_R   0.517947 0.564201 0.834205 0.206513
C46   C     C_3   0.396460 0.743753 0.904736 -0.356815
C47   C     C_3   0.157513 0.464678 0.086048 -0.011583
C48   C     C_3   0.055797 0.427977 0.013671 -0.359450
C49   C     C_3   0.716459 0.656796 0.747061 0.005576
C50   C     C_3   0.762896 0.720002 0.694312 -0.369312
C51   C     C_3   0.304240 0.333349 0.263067 0.039318
C52   C     C_3   0.152614 0.300573 0.222944 -0.397426
C53   C     C_2   0.420090 0.357591 0.858674 0.562567
C54   C     C_2   0.683167 0.614509 0.147147 0.563285
C55   C     C_R   0.391170 0.459418 0.160996 0.225106
C56   C     C_R   0.535082 0.563852 0.749723 0.389495
C57   C     C_R   0.401238 0.453900 0.247745 0.406648
C58   C     C_R   0.462142 0.435030 0.737957 -0.020099
Cu1   Cu    Cu3+1 0.499990 0.499980 0.580420 1.038434
Cu2   Cu    Cu3+1 0.500010 0.500020 0.419580 1.043448
H1    H     H_    0.429337 0.385620 0.700390 0.218127
H2    H     H_    0.211513 0.532259 0.736235 0.150676
H3    H     H_    0.075728 0.519042 0.805597 0.072053
H4    H     H_    0.155209 0.437702 0.762315 0.196838
H5    H     H_    0.517895 0.913439 0.698298 0.136263
H6    H     H_    0.431180 0.822547 0.712769 0.164978
H7    H     H_    0.199659 0.883683 0.742482 0.156751
H8    H     H_    0.363496 0.918500 0.810732 0.090765
H9    H     H_    0.280525 0.975443 0.726622 0.212354
H10   H     H_    0.269982 0.169848 0.338940 0.117661
H11   H     H_    0.245490 0.085615 0.397142 0.149542
H12   H     H_    0.658946 0.589900 0.306646 0.221984
H13   H     H_    0.289144 0.006357 0.277247 0.195379
H14   H     H_    0.133277 0.069182 0.251495 0.100034
H15   H     H_    0.313864 0.090499 0.219590 0.153768
H16   H     H_    0.188822 0.689280 0.495600 0.140446
H17   H     H_    0.131892 0.773809 0.546329 0.196031
H18   H     H_    0.086142 0.698770 0.665081 0.132429
H19   H     H_    0.980732 0.658997 0.571389 0.138438
H20   H     H_    0.152592 0.616004 0.618244 0.190976
H21   H     H_    0.581482 0.179852 0.271436 0.185845
H22   H     H_    0.733569 0.178281 0.357808 0.152727
H23   H     H_    0.042036 0.408810 0.353964 0.139291
H24   H     H_    0.679205 0.303292 0.231392 0.155471
H25   H     H_    0.830282 0.299238 0.317606 0.153242
H26   H     H_    0.818441 0.230531 0.234665 0.103897
H27   H     H_    0.814114 0.728529 0.309881 0.377669
H28   H     H_    0.676717 0.301424 0.779012 0.338884
H29   H     H_    0.741380 0.981494 0.346029 0.339386
H30   H     H_    0.562200 0.048617 0.751686 0.329059
H31   H     H_    0.296365 0.632539 0.887060 0.120026
H32   H     H_    0.350058 0.674975 0.795754 0.164203
H33   H     H_    0.483966 0.778943 0.881192 0.148642
H34   H     H_    0.087770 0.492609 0.298113 0.216877
H35   H     H_    0.286315 0.772232 0.892095 0.090646
H36   H     H_    0.427009 0.737791 0.972016 0.197250
H37   H     H_    0.191671 0.521533 0.066523 0.129943
H38   H     H_    0.091812 0.471763 0.137873 0.143303
H39   H     H_    0.015590 0.371613 0.030361 0.161789
H40   H     H_    0.956422 0.463727 0.995424 0.108165
H41   H     H_    0.118898 0.421655 0.960771 0.175448
H42   H     H_    0.799853 0.611068 0.748514 0.091622
H43   H     H_    0.720263 0.680588 0.809932 0.178022
H44   H     H_    0.680074 0.765990 0.691488 0.150788
H45   H     H_    0.848124 0.497401 0.224105 0.173887
H46   H     H_    0.875235 0.743321 0.721287 0.085348
H47   H     H_    0.767966 0.698426 0.631319 0.166467
H48   H     H_    0.326714 0.304928 0.322310 0.198446
H49   H     H_    0.393887 0.318399 0.225505 0.163978
H50   H     H_    0.105566 0.332501 0.168609 0.198788
H51   H     H_    0.166443 0.241186 0.203663 0.109089
H52   H     H_    0.071610 0.301131 0.267661 0.108473
H53   H     H_    0.321426 0.254620 0.837367 0.362376
H54   H     H_    0.720318 0.680837 0.053457 0.347492
H55   H     H_    0.896969 0.401115 0.221183 0.086561
H56   H     H_    0.767940 0.430535 0.289626 0.184156
H57   H     H_    0.898975 0.458285 0.695632 0.214762
H58   H     H_    0.951285 0.553672 0.669755 0.104291
N1    N     N_R   0.499960 0.499970 0.701210 -0.265012
N2    N     N_R   0.500040 0.500030 0.298790 -0.267059
O1    O     O_R   0.499990 0.391240 0.567930 -0.510581
O2    O     O_3   0.041523 0.465153 0.607224 -0.558240
O3    O     O_3   0.337512 0.881836 0.609130 -0.529692
O4    O     O_3   0.462958 0.105959 0.370749 -0.546818
O5    O     O_3   0.333133 0.726518 0.600213 -0.532891
O6    O     O_3   0.565233 0.260240 0.362142 -0.579834
O7    O     O_2   0.788220 0.677503 0.440734 -0.540069
O8    O     O_R   0.730644 0.755272 0.333345 -0.647194
O9    O     O_2   0.755824 0.330597 0.650175 -0.511887
O10   O     O_R   0.617243 0.268927 0.733984 -0.642799
O11   O     O_2   0.850144 0.882065 0.431079 -0.497589
O12   O     O_R   0.500010 0.608760 0.432070 -0.503392
O13   O     O_R   0.659260 0.953977 0.370826 -0.662974
O14   O     O_2   0.749049 0.129067 0.704777 -0.477786
O15   O     O_R   0.518845 0.071363 0.697527 -0.697633
O16   O     O_3   0.526098 0.631280 0.878696 -0.551927
O17   O     O_3   0.282647 0.418200 0.109618 -0.552043
O18   O     O_3   0.569400 0.630911 0.714525 -0.497701
O19   O     O_3   0.295029 0.411193 0.281096 -0.565916
O20   O     O_2   0.452965 0.345477 0.931821 -0.501847
O21   O     O_R   0.343085 0.301871 0.807019 -0.666443
O22   O     O_2   0.797811 0.638256 0.189915 -0.541433
O23   O     O_R   0.500000 0.391270 0.432120 -0.449548
O24   O     O_R   0.644465 0.642162 0.068112 -0.676500
O25   O     O_R   0.500000 0.608730 0.567880 -0.410756
O26   O     O_R   0.274830 0.499990 0.552240 -0.476102
O27   O     O_R   0.725170 0.500010 0.447760 -0.456124
O28   O     O_R   0.274840 0.500020 0.416420 -0.490456
O29   O     O_R   0.725160 0.499980 0.583580 -0.523669
O30   O     O_3   0.958931 0.513344 0.389394 -0.555205

loop_
_geom_bond_atom_site_label_1
_geom_bond_atom_site_label_2
_ccdc_geom_bond_type
Cu1   O1    S    
C31   H6    S    
C54   O24   S    
C35   H14   S    
C50   H44   S    
H30   O15   S    
C30   H4    S    
C53   O20   D    
C3    C53   S    
C36   O5    S    
H28   O10   S    
C6    C55   A    
Cu2   O12   S    
C7    C8    T    
C22   C42   S    
C37   H19   S    
C35   H15   S    
C47   H38   S    
C42   O13   S    
C36   C37   S    
C19   C21   A    
C24   C26   A    
C39   H24   S    
C36   H17   S    
C10   O29   A    
C38   C39   S    
C20   C40   S    
C17   O6    S    
C52   H52   S    
C40   O8    S    
C9    O26   A    
C57   O19   S    
C31   H5    S    
C28   H56   S    
C33   C35   S    
C26   C34   S    
C46   H35   S    
C31   C32   S    
C45   C56   A    
C51   H48   S    
C22   C25   A    
C33   O4    S    
C42   O11   D    
Cu2   O27   S    
C36   H16   S    
C16   O5    S    
C53   O21   S    
C44   H32   S    
C10   O27   A    
C32   H8    S    
C58   H1    S    
Cu1   Cu2   S    
C51   H49   S    
C49   O18   S    
C38   H22   S    
C32   H7    S    
C2    H12   S    
H27   O8    S    
C38   O6    S    
C44   C46   S    
Cu1   O29   S    
C48   H40   S    
C37   H20   S    
C1    C19   S    
H29   O13   S    
C15   O4    S    
C51   C52   S    
C4    C6    A    
C49   H42   S    
C5    C7    S    
C2    N2    A    
C15   C26   A    
C6    C8    S    
C52   H51   S    
C40   O7    D    
C29   H57   S    
H54   O24   S    
C12   O25   A    
C43   O14   D    
C2    C4    A    
C3    C58   A    
C29   C30   S    
C1    O23   A    
C28   H55   S    
C56   O18   S    
C11   O30   S    
C47   C48   S    
C52   H50   S    
C28   H45   S    
C23   C34   T    
C29   O2    S    
C47   O17   S    
C43   O15   S    
C9    C11   S    
C44   H31   S    
C33   H10   S    
C57   N2    A    
C21   C41   S    
Cu1   O25   S    
C54   O22   D    
C20   C22   A    
C27   O30   S    
C55   C57   A    
C38   H21   S    
C50   H47   S    
C56   N1    A    
C14   C16   A    
C39   H25   S    
C37   H18   S    
C15   C17   A    
C48   H39   S    
C35   H13   S    
C45   O16   S    
Cu1   N1    S    
C14   O3    S    
C12   O12   A    
C4    C54   S    
C3    C5    A    
C10   C13   S    
C47   H37   S    
C49   H43   S    
C44   O16   S    
C32   H9    S    
C29   H58   S    
C9    O28   A    
C55   O17   S    
C30   H2    S    
C31   O3    S    
Cu2   O23   S    
C41   O9    D    
C13   O2    S    
C11   C13   D    
C41   O10   S    
C46   H33   S    
C5    C45   A    
C48   H41   S    
C27   H23   S    
C58   N1    A    
C17   C19   A    
H53   O21   S    
Cu2   N2    S    
C18   C20   A    
C23   C25   S    
C14   C25   A    
C1    O1    A    
C33   H11   S    
Cu1   O26   S    
C46   H36   S    
C16   C18   A    
C49   C50   S    
C21   C24   A    
C12   C18   S    
C27   C28   S    
C50   H46   S    
C24   C43   S    
C27   H34   S    
Cu2   O28   S    
C39   H26   S    
C30   H3    S    
C51   O19   S    
