data_mof_unit_30592.cif
_audit_creation_date              2012-12-10T17:37:49-0500
_audit_creation_method            fapswitch 2.2
_symmetry_space_group_name_H-M    P1
_symmetry_Int_Tables_number       1
_space_group_crystal_system       triclinic
_cell_length_a                    12.310464
_cell_length_b                    13.1665
_cell_length_c                    17.171408
_cell_angle_alpha                 104.580931
_cell_angle_beta                  75.192738
_cell_angle_gamma                 116.502392
_cell_volume                      2377.35408543

loop_
_atom_site_label
_atom_site_type_symbol
_atom_type_description
_atom_site_fract_x
_atom_site_fract_y
_atom_site_fract_z
_atom_type_partial_charge
C1    C     C_R   0.144464 0.713656 0.507320 0.776872
C2    C     C_R   0.889823 0.514911 0.798586 -0.205180
C3    C     C_R   0.930680 0.514866 0.156539 -0.090114
C4    C     C_R   0.930810 0.520804 0.238356 -0.198267
C5    C     C_R   0.104518 0.467203 0.200955 -0.200827
C6    C     C_R   0.104093 0.461226 0.118867 -0.145298
C7    C     C_R   0.015033 0.481884 0.096608 0.239843
C8    C     C_2   0.912259 0.410184 0.974811 -0.069648
C9    C     C_2   0.013271 0.472845 0.010389 -0.357555
C10   C     C_R   0.016651 0.495495 0.261220 -0.033721
C11   C     C_R   0.732801 0.976261 0.391214 -0.187103
C12   C     C_R   0.984895 0.498450 0.651897 0.796972
C13   C     C_R   0.774378 0.164765 0.471544 -0.049248
C14   C     C_R   0.179677 0.916030 0.562081 -0.189649
C15   C     C_R   0.257310 0.031127 0.578896 -0.145254
C16   C     C_R   0.382940 0.068243 0.550059 -0.177678
C17   C     C_R   0.433457 0.990683 0.500564 0.079510
C18   C     C_R   0.351744 0.876004 0.475825 0.081834
C19   C     C_R   0.562182 0.023369 0.474056 0.072948
C20   C     C_R   0.606059 0.945046 0.417795 0.166053
C21   C     C_R   0.523007 0.837584 0.387001 -0.237882
C22   C     C_R   0.397758 0.804214 0.414445 -0.197388
C23   C     C_R   0.855937 0.286303 0.488117 0.803503
C24   C     C_R   0.649036 0.131520 0.502139 -0.247823
C25   C     C_R   0.816701 0.086058 0.417546 -0.192077
C26   C     C_R   0.225854 0.836884 0.512519 -0.102932
C27   C     C_R   0.642409 0.674117 0.630201 -0.298977
C28   C     C_R   0.249773 0.352387 0.389449 0.070889
C29   C     C_R   0.348383 0.320270 0.365570 -0.251206
C30   C     C_R   0.448384 0.375937 0.407131 -0.191885
C31   C     C_R   0.450836 0.464912 0.473618 -0.007810
C32   C     C_R   0.347290 0.494567 0.496026 0.285303
C33   C     C_R   0.551401 0.525252 0.518770 -0.037450
C34   C     C_R   0.012449 0.497290 0.347549 0.786942
C35   C     C_R   0.546059 0.613521 0.584905 0.175686
C36   C     C_R   0.444480 0.640772 0.605788 -0.280854
C37   C     C_R   0.347309 0.582414 0.562623 -0.183738
C38   C     C_R   0.657839 0.502308 0.501603 0.016028
C39   C     C_R   0.744050 0.647182 0.610263 0.071871
C40   C     C_R   0.966337 0.476783 0.734800 -0.070489
C41   C     C_R   0.019174 0.409328 0.748722 -0.201939
C42   C     C_R   0.996854 0.379622 0.825595 0.178607
C43   C     C_R   0.923396 0.422582 0.890292 0.094822
C44   C     C_R   0.869538 0.488846 0.876101 -0.144468
Cu1   Cu    Cu3+1 0.900140 0.524980 0.518800 0.936836
Cu2   Cu    Cu3+1 0.099860 0.475020 0.481200 0.920524
H1    H     H_    0.076488 0.377525 0.699156 0.163188
H2    H     H_    0.171238 0.438023 0.072678 0.128107
H3    H     H_    0.913692 0.110847 0.393112 0.148196
H4    H     H_    0.554953 0.778923 0.341289 0.145625
H5    H     H_    0.766701 0.916852 0.348178 0.133860
H6    H     H_    0.621855 0.192888 0.547268 0.149622
H7    H     H_    0.083560 0.888498 0.589739 0.151185
H8    H     H_    0.437239 0.158680 0.566220 0.130452
H9    H     H_    0.220416 0.091555 0.616747 0.142661
H10   H     H_    0.337813 0.722443 0.385054 0.175393
H11   H     H_    0.818873 0.693580 0.644907 0.119325
H12   H     H_    0.863008 0.544350 0.283510 0.151752
H13   H     H_    0.439673 0.707984 0.656458 0.154686
H14   H     H_    0.639006 0.741786 0.680775 0.138740
H15   H     H_    0.669941 0.436973 0.452438 0.124953
H16   H     H_    0.172486 0.308653 0.356905 0.125504
H17   H     H_    0.522128 0.347537 0.386010 0.138888
H18   H     H_    0.347307 0.251986 0.314675 0.148735
H19   H     H_    0.273781 0.609341 0.584118 0.209504
H20   H     H_    0.172392 0.448427 0.217076 0.151838
H21   H     H_    0.099333 0.522482 0.974286 0.157531
H22   H     H_    0.813743 0.522374 0.925696 0.147154
H23   H     H_    0.863847 0.534475 0.139801 0.120253
H24   H     H_    0.847231 0.566037 0.788800 0.152152
N1    N     N_R   0.749710 0.562810 0.547300 -0.180124
N2    N     N_R   0.249640 0.437820 0.453210 -0.207546
O1    O     O_R   0.025490 0.682370 0.523640 -0.579278
O2    O     O_R   0.194150 0.640180 0.491890 -0.602531
O3    O     O_R   0.905900 0.523560 0.631310 -0.579982
O4    O     O_R   0.074570 0.481370 0.599560 -0.606524
O5    O     O_R   0.805850 0.359820 0.508110 -0.584938
O6    O     O_R   0.974510 0.317630 0.476360 -0.587747
O7    O     O_R   0.925430 0.518630 0.400440 -0.586302
O8    O     O_R   0.094100 0.476440 0.368690 -0.595953
C45   C     C_2   0.793611 0.328477 0.014875 0.858343
O9    O     O_2   0.698994 0.298994 0.988248 -0.606071
O10   O     O_R   0.790180 0.281141 0.080276 -0.756409
H25   H     H_    0.704134 0.226184 0.101283 0.329004
C46   C     C_3   0.052720 0.302713 0.835862 -0.429630
C47   C     C_3   0.992838 0.180994 0.790297 -0.820917
H26   H     H_    0.892227 0.143555 0.813051 0.264504
H27   H     H_    0.008791 0.181100 0.723674 0.243684
H28   H     H_    0.033313 0.126076 0.800587 0.239558
H29   H     H_    0.153116 0.339463 0.812176 0.198969
H30   H     H_    0.042314 0.296176 0.900674 0.222005

loop_
_geom_bond_atom_site_label_1
_geom_bond_atom_site_label_2
_ccdc_geom_bond_type
C24   H6    S    
Cu1   N1    S    
C41   C42   A    
C19   C20   A    
C18   C26   A    
C8    C43   S    
C36   H13   S    
Cu2   O4    S    
C45   O9    D    
C46   H30   S    
C32   N2    A    
Cu1   Cu2   S    
C6    H2    S    
C1    O2    A    
C36   C37   A    
C3    H23   S    
C3    C7    A    
C27   H14   S    
C30   C31   A    
C47   H27   S    
C11   C25   A    
C15   C16   A    
C39   H11   S    
C13   C23   S    
Cu1   O1    S    
C34   O8    A    
O10   H25   S    
C27   C39   A    
C8    C9    D    
C37   H19   S    
C31   C33   A    
Cu2   N2    S    
C38   H15   S    
C29   H18   S    
C21   C22   A    
C13   C25   A    
C28   N2    A    
C21   H4    S    
C45   O10   S    
C16   H8    S    
C11   C20   A    
C8    C45   S    
Cu1   O7    S    
C2    C44   A    
Cu2   O6    S    
C47   H26   S    
C16   C17   A    
C22   H10   S    
C27   C35   A    
C46   C47   S    
C14   C26   A    
C13   C24   A    
C35   C36   A    
C15   H9    S    
C12   C40   S    
C43   C44   A    
C9    H21   S    
C29   C30   A    
C34   O7    A    
C31   C32   A    
C17   C18   A    
C41   H1    S    
C10   C34   S    
C42   C46   S    
C32   C37   A    
C23   O5    A    
C40   C41   A    
C12   O4    A    
C1    C26   S    
C44   H22   S    
C42   C43   A    
C4    C10   A    
C3    C4    A    
Cu2   O2    S    
C7    C9    S    
C38   N1    A    
C28   C29   A    
C18   C22   A    
C5    H20   S    
C47   H28   S    
C46   H29   S    
C6    C7    A    
C33   C38   A    
Cu1   O3    S    
C1    O1    A    
C19   C24   A    
C5    C10   A    
Cu2   O8    S    
C5    C6    A    
C30   H17   S    
C33   C35   A    
C23   O6    A    
C25   H3    S    
C11   H5    S    
C17   C19   A    
C2    C40   A    
C14   H7    S    
C20   C21   A    
C12   O3    A    
C4    H12   S    
C39   N1    A    
C14   C15   A    
Cu1   O5    S    
C2    H24   S    
C28   H16   S    
