data_mof_unit_51313.cif
_audit_creation_date              2012-12-10T18:13:55-0500
_audit_creation_method            fapswitch 2.2
_symmetry_space_group_name_H-M    P1
_symmetry_Int_Tables_number       1
_space_group_crystal_system       triclinic
_cell_length_a                    10.748443
_cell_length_b                    9.637273
_cell_length_c                    23.538309
_cell_angle_alpha                 89.098721
_cell_angle_beta                  89.956726
_cell_angle_gamma                 90.530747
_cell_volume                      2437.8244918

loop_
_atom_site_label
_atom_site_type_symbol
_atom_type_description
_atom_site_fract_x
_atom_site_fract_y
_atom_site_fract_z
_atom_type_partial_charge
C1    C     C_R   0.260537 0.499414 0.500323 0.734879
C2    C     C_R   0.585184 0.488611 0.117392 0.548713
C3    C     C_R   0.581317 0.577252 0.237966 -0.051520
C4    C     C_R   0.497896 0.500993 0.391489 0.771807
C5    C     C_R   0.591920 0.564156 0.297052 -0.071648
C6    C     C_R   0.492786 0.504136 0.328801 -0.176405
C7    C     C_R   0.387088 0.451557 0.300003 -0.032555
C8    C     C_R   0.386662 0.450458 0.240405 -0.047837
C9    C     C_R   0.481840 0.515866 0.208888 0.229461
C10   C     C_R   0.408660 0.594551 0.756495 -0.108521
C11   C     C_R   0.414392 0.590064 0.697591 -0.170339
C12   C     C_R   0.249359 0.566333 0.970394 -0.028310
C13   C     C_R   0.497002 0.500314 0.670990 -0.101602
C14   C     C_R   0.575944 0.415982 0.704384 -0.092860
C15   C     C_R   0.548690 0.397527 0.762884 0.022861
C16   C     C_R   0.739703 0.500175 0.500304 0.744955
C17   C     C_R   0.473980 0.498009 0.789922 0.284161
C18   C     C_3   0.073422 0.566318 0.555465 -0.361017
C19   C     C_3   0.070516 0.347938 0.498502 -0.382804
C20   C     C_3   0.930139 0.576468 0.553083 -0.380914
C21   C     C_3   0.928272 0.348299 0.502294 -0.354673
C22   C     C_3   0.073073 0.581852 0.448620 -0.351364
C23   C     C_R   0.253920 0.568996 0.029928 -0.218375
C24   C     C_3   0.122601 0.498566 0.500671 0.136717
C25   C     C_3   0.878588 0.499484 0.500547 0.119016
C26   C     C_3   0.930072 0.572022 0.446138 -0.344805
C27   C     C_3   0.614702 0.082268 0.529007 -0.052802
C28   C     C_3   0.616502 0.917109 0.527612 -0.065409
C29   C     C_3   0.391968 0.079629 0.533003 -0.222554
C30   C     C_3   0.396622 0.915213 0.536175 -0.236796
C31   C     C_3   0.492097 0.086509 0.440648 -0.026927
C32   C     C_3   0.486387 0.916220 0.441070 -0.034273
C33   C     C_R   0.500612 0.499659 0.608542 0.766978
C34   C     C_R   0.365710 0.547683 0.059369 -0.010464
C35   C     C_R   0.584111 0.520332 0.879398 0.611317
C36   C     C_R   0.362008 0.516684 0.879762 0.598681
C37   C     C_R   0.359912 0.539409 0.939074 -0.039391
C38   C     C_R   0.473783 0.527776 0.968779 -0.031275
C39   C     C_R   0.586496 0.516701 0.938709 0.000133
C40   C     C_2   0.128780 0.603400 0.943989 0.499701
C41   C     C_2   0.697269 0.372604 0.680082 0.429474
C42   C     C_2   0.588670 0.268530 0.793440 0.493316
C43   C     C_2   0.644009 0.140073 0.586935 0.464727
C44   C     C_2   0.653758 0.846965 0.583600 0.444306
C45   C     C_R   0.475545 0.525959 0.028734 -0.011518
C46   C     C_2   0.376261 0.143101 0.410033 0.272678
C47   C     C_2   0.360383 0.863472 0.416525 0.474417
C48   C     C_2   0.599727 0.139501 0.401407 0.438559
C49   C     C_2   0.587131 0.864347 0.399609 0.418541
C50   C     C_2   0.709615 0.606953 0.324648 0.451085
C51   C     C_2   0.274506 0.403142 0.331309 0.503961
C52   C     C_R   0.587395 0.500959 0.058012 -0.009458
C53   C     C_R   0.698706 0.487956 0.027408 -0.147395
C54   C     C_R   0.698732 0.499632 0.968396 -0.136663
C55   C     C_R   0.370956 0.551345 0.119018 0.562757
Cu1   Cu    Cu3+1 0.499860 0.642410 0.500030 0.959679
Cu2   Cu    Cu3+1 0.499860 0.357590 0.500030 0.947637
H1    H     H_    0.114276 0.672026 0.560372 0.160108
H2    H     H_    0.698175 0.115546 0.505255 0.121728
H3    H     H_    0.698046 0.893099 0.501632 0.131426
H4    H     H_    0.301803 0.109564 0.514172 0.099209
H5    H     H_    0.305091 0.870755 0.524811 0.114515
H6    H     H_    0.786364 0.470755 0.048955 0.191213
H7    H     H_    0.653527 0.631147 0.214030 0.205778
H8    H     H_    0.310433 0.400894 0.218285 0.208430
H9    H     H_    0.042485 0.569335 0.964009 0.039477
H10   H     H_    0.357184 0.660207 0.672680 0.162568
H11   H     H_    0.718036 0.394273 0.635788 0.025299
H12   H     H_    0.099282 0.298760 0.458134 0.176769
H13   H     H_    0.644974 0.192358 0.772280 0.139872
H14   H     H_    0.905298 0.687786 0.549921 0.161625
H15   H     H_    0.890261 0.287848 0.466338 0.224379
H16   H     H_    0.891227 0.677963 0.441014 0.216253
H17   H     H_    0.903293 0.510664 0.408422 0.187069
H18   H     H_    0.736198 0.182206 0.594440 0.010374
H19   H     H_    0.737232 0.785564 0.585462 0.029216
H20   H     H_    0.384521 0.122296 0.576186 0.221730
H21   H     H_    0.403451 0.881476 0.581119 0.221809
H22   H     H_    0.306391 0.201462 0.431620 0.115064
H23   H     H_    0.101408 0.503431 0.593333 0.173924
H24   H     H_    0.273429 0.888448 0.436964 0.034398
H25   H     H_    0.594318 0.119843 0.356138 0.095010
H26   H     H_    0.571713 0.875982 0.354165 0.106828
H27   H     H_    0.786356 0.490350 0.946065 0.189999
H28   H     H_    0.724725 0.582280 0.368973 0.079980
H29   H     H_    0.270996 0.407857 0.377123 0.006595
H30   H     H_    0.351680 0.672388 0.776221 0.184971
H31   H     H_    0.108050 0.284033 0.534281 0.171267
H32   H     H_    0.889004 0.532678 0.592915 0.161817
H33   H     H_    0.898613 0.295360 0.542437 0.155236
H34   H     H_    0.101849 0.692743 0.451588 0.178940
H35   H     H_    0.112393 0.542060 0.408560 0.178445
H36   H     H_    0.169285 0.589608 0.053320 0.186251
N1    N     N_R   0.473043 0.511385 0.851015 -0.450276
N2    N     N_R   0.478964 0.518295 0.147311 -0.459556
N3    N     N_3   0.500250 0.143650 0.501250 -0.176402
N4    N     N_3   0.500250 0.856350 0.501250 -0.181229
O1    O     O_R   0.317570 0.620260 0.500030 -0.604726
O2    O     O_2   0.255143 0.493404 0.851409 -0.480108
O3    O     O_2   0.269210 0.589897 0.148205 -0.508544
O4    O     O_2   0.688311 0.445013 0.144767 -0.516407
O5    O     O_2   0.124151 0.680479 0.902399 -0.473533
O6    O     O_2   0.779250 0.322331 0.709512 -0.539687
O7    O     O_2   0.552294 0.240275 0.841420 -0.536990
O8    O     O_2   0.571148 0.131171 0.626636 -0.523610
O9    O     O_2   0.593736 0.858228 0.627290 -0.508754
O10   O     O_2   0.358930 0.120840 0.359603 -0.542630
O11   O     O_2   0.352375 0.803332 0.371270 -0.535909
O12   O     O_R   0.317570 0.379740 0.500030 -0.621289
O13   O     O_2   0.689931 0.205119 0.417420 -0.563622
O14   O     O_2   0.685363 0.814073 0.414641 -0.581970
O15   O     O_2   0.791419 0.668676 0.298216 -0.501972
O16   O     O_2   0.183538 0.358161 0.306287 -0.499111
O17   O     O_R   0.499840 0.620290 0.417900 -0.539446
O18   O     O_R   0.499840 0.379710 0.417900 -0.572887
O19   O     O_R   0.682190 0.620260 0.500010 -0.576221
O20   O     O_R   0.682190 0.379740 0.500010 -0.565861
O21   O     O_R   0.499920 0.620230 0.582140 -0.564886
O22   O     O_R   0.499920 0.379770 0.582140 -0.565513
O23   O     O_2   0.692177 0.529187 0.850236 -0.506481

loop_
_geom_bond_atom_site_label_1
_geom_bond_atom_site_label_2
_ccdc_geom_bond_type
C28   N4    S    
C48   O13   D    
C11   C13   A    
C4    O18   A    
Cu1   O1    S    
C54   H27   S    
C35   O23   S    
C7    C8    A    
Cu2   O18   S    
C3    H7    S    
C32   N4    S    
C12   C23   A    
C29   C30   S    
C18   C24   S    
C4    O17   A    
C36   C37   A    
C19   C21   S    
C5    C6    A    
C39   C54   A    
C20   C25   S    
C10   C17   A    
C31   N3    S    
C42   H13   S    
C26   H16   S    
Cu1   Cu2   S    
C43   O8    D    
C12   C37   A    
C44   H19   S    
C38   C45   A    
C50   H28   S    
C1    O12   A    
C18   H1    S    
Cu2   O12   S    
C46   H22   S    
C8    C9    A    
C31   C46   S    
C55   O3    S    
C22   H34   S    
C20   H14   S    
C9    N2    S    
C49   O14   D    
C8    H8    S    
C40   H9    S    
C13   C14   A    
C27   N3    S    
Cu1   N4    S    
C16   O19   A    
C51   H29   S    
C11   H10   S    
C41   H11   S    
C21   H33   S    
C28   H3    S    
C43   H18   S    
C29   H4    S    
C10   H30   S    
C21   H15   S    
C4    C6    S    
C19   H31   S    
C45   C52   A    
C25   C26   S    
C53   C54   A    
C28   C44   S    
C23   H36   S    
C12   C40   S    
C35   C39   A    
C13   C33   S    
C37   C38   A    
C3    C9    A    
C36   N1    A    
C31   C32   S    
C30   N4    S    
C23   C34   A    
C46   O10   D    
C50   O15   D    
Cu1   O19   S    
C34   C55   A    
C34   C45   A    
C51   O16   D    
C2    C52   A    
C14   C41   S    
C55   N2    A    
C33   O22   A    
C31   C48   S    
C30   H5    S    
C32   C47   S    
C22   C24   S    
C5    C50   S    
C19   H12   S    
C52   C53   A    
Cu2   O20   S    
C35   N1    A    
C16   C25   S    
C15   C17   A    
C21   C25   S    
C2    N2    A    
C22   H35   S    
Cu1   O21   S    
C15   C42   S    
C3    C5    A    
C42   O7    D    
C1    O1    A    
C29   N3    S    
C6    C7    A    
C44   O9    D    
C20   H32   S    
C2    O4    S    
Cu2   O22   S    
C49   H26   S    
C19   C24   S    
C7    C51   S    
C27   H2    S    
C16   O20   A    
C41   O6    D    
C53   H6    S    
C38   C39   A    
C26   H17   S    
C48   H25   S    
C36   O2    S    
C18   C20   S    
C47   H24   S    
C32   C49   S    
C10   C11   A    
C40   O5    D    
C30   H21   S    
C27   C43   S    
C33   O21   A    
C29   H20   S    
C1    C24   S    
C18   H23   S    
C47   O11   D    
C22   C26   S    
C27   C28   S    
Cu1   O17   S    
C14   C15   A    
C17   N1    S    
Cu2   N3    S    
