data_mof_unit_51870.cif
_audit_creation_date              2012-12-11T17:05:25-0500
_audit_creation_method            fapswitch 2.2
_symmetry_space_group_name_H-M    P1
_symmetry_Int_Tables_number       1
_space_group_crystal_system       triclinic
_cell_length_a                    6.948031
_cell_length_b                    14.52887
_cell_length_c                    16.0199
_cell_angle_alpha                 90.265178
_cell_angle_beta                  89.922403
_cell_angle_gamma                 90.015917
_cell_volume                      1617.14260969

loop_
_atom_site_label
_atom_site_type_symbol
_atom_type_description
_atom_site_fract_x
_atom_site_fract_y
_atom_site_fract_z
_atom_type_partial_charge
O1    O     O_R   0.494380 0.415640 0.412830 -0.536415
O2    O     O_R   0.823960 0.405540 0.586560 -0.545827
O3    O     O_R   0.994270 0.584360 0.587170 -0.541965
C1    C     C_R   0.654822 0.382959 0.614799 0.730681
O4    O     O_R   0.824090 0.404620 0.413450 -0.542811
O5    O     O_R   0.994400 0.583430 0.412820 -0.538360
C2    C     C_R   0.655360 0.382463 0.384459 0.701007
O6    O     O_R   0.494250 0.416570 0.587180 -0.533178
O7    O     O_3   0.660800 0.558670 0.500000 -0.373278
V1    V     V_3+5 0.935650 0.489120 0.500000 1.389160
O8    O     O_R   0.324110 0.594460 0.413440 -0.539478
C3    C     C_R   0.155152 0.616547 0.384646 0.696551
O9    O     O_R   0.323980 0.595380 0.586550 -0.544195
C4    C     C_R   0.154738 0.617544 0.615637 0.652869
V2    V     V_3+5 0.435660 0.510880 0.500000 1.392688
O10   O     O_3   0.160640 0.441330 0.500000 -0.366675
C5    C     C_3   0.929709 0.705517 0.712542 -0.306020
H1    H     H_    0.846681 0.731750 0.658233 0.137634
H2    H     H_    0.860732 0.640038 0.732555 0.137407
C6    C     C_3   0.917376 0.776206 0.784648 -0.317522
H3    H     H_    0.842928 0.744159 0.838803 0.136881
H4    H     H_    0.828588 0.835854 0.764458 0.142694
H5    H     H_    0.155803 0.808056 0.604761 0.124838
H6    H     H_    0.136771 0.913388 0.711980 0.155469
C7    C     C_3   0.232215 0.780887 0.660449 -0.333491
C8    C     C_3   0.251845 0.652479 0.764752 -0.315076
C9    C     C_3   0.142641 0.687444 0.686538 0.112751
H7    H     H_    0.405669 0.639774 0.749005 0.137164
H8    H     H_    0.189563 0.585769 0.785405 0.132748
C10   C     C_3   0.121248 0.809552 0.810969 0.099615
C11   C     C_3   0.219477 0.852139 0.732945 -0.306088
C12   C     C_3   0.239489 0.723716 0.837305 -0.321146
H9    H     H_    0.171575 0.691076 0.892717 0.130602
H10   H     H_    0.387549 0.744751 0.855746 0.140657
H11   H     H_    0.385695 0.771034 0.642557 0.140334
H12   H     H_    0.366984 0.876145 0.749114 0.136364
C13   C     C_R   0.274112 0.750244 0.187385 0.106204
C14   C     C_R   0.118135 0.810679 0.179575 -0.108019
C15   C     C_R   0.965997 0.800941 0.237082 -0.177574
H13   H     H_    0.843068 0.846240 0.233794 0.127679
C16   C     C_R   0.977665 0.737465 0.303251 -0.179811
H14   H     H_    0.862279 0.734956 0.348519 0.127962
C17   C     C_R   0.142439 0.682298 0.314248 -0.113207
C18   C     C_R   0.286049 0.687736 0.253042 0.107305
C19   C     C_3   0.496535 0.703522 0.263030 -0.412927
C20   C     C_3   0.483627 0.771194 0.191230 -0.399392
H15   H     H_    0.582370 0.641106 0.247757 0.177354
H16   H     H_    0.530932 0.736863 0.323774 0.167910
H17   H     H_    0.561299 0.747733 0.134279 0.175484
H18   H     H_    0.511388 0.843699 0.210149 0.163464
C21   C     C_R   0.470320 0.292706 0.721417 0.020156
C22   C     C_R   0.642775 0.310178 0.678956 -0.152493
C23   C     C_R   0.800659 0.252476 0.696551 -0.272230
H19   H     H_    0.933989 0.259599 0.662087 0.155117
C24   C     C_R   0.790275 0.186405 0.760607 0.572810
C25   C     C_R   0.621341 0.177252 0.809617 -0.183346
C26   C     C_R   0.460139 0.228356 0.785165 -0.023061
C27   C     C_3   0.327240 0.287574 0.835426 0.521370
C28   C     C_3   0.337872 0.357766 0.765424 -0.439944
H20   H     H_    0.182377 0.256861 0.844500 0.113914
H21   H     H_    0.409834 0.423271 0.783533 0.185647
H22   H     H_    0.199272 0.366141 0.731738 0.131003
C29   C     C_R   0.493876 0.316652 0.256759 0.103249
C30   C     C_R   0.647535 0.316683 0.313377 -0.115938
C31   C     C_R   0.798675 0.254234 0.297962 -0.175914
H23   H     H_    0.920740 0.251814 0.339590 0.133608
C32   C     C_R   0.787432 0.189707 0.232141 -0.182359
H24   H     H_    0.901773 0.139817 0.224930 0.125117
C33   C     C_R   0.624422 0.185426 0.179875 -0.111099
C34   C     C_R   0.482333 0.252571 0.191857 0.153159
C35   C     C_3   0.270787 0.241297 0.203072 -0.405776
C36   C     C_3   0.283235 0.311510 0.273452 -0.409295
H25   H     H_    0.232785 0.171072 0.224796 0.157571
H26   H     H_    0.188181 0.266262 0.148292 0.198079
H27   H     H_    0.251609 0.282279 0.335981 0.171438
H28   H     H_    0.208630 0.377258 0.259203 0.176723
O11   O     O_R   0.771490 0.080820 0.910070 -0.502016
O12   O     O_R   0.441590 0.092730 0.083780 -0.539275
O13   O     O_R   0.271350 0.913900 0.084390 -0.543762
C37   C     C_R   0.610578 0.114863 0.112832 0.702008
O14   O     O_R   0.441780 0.091820 0.910670 -0.533188
O15   O     O_R   0.271540 0.912980 0.910040 -0.545506
C38   C     C_R   0.610886 0.113086 0.881271 0.792441
O16   O     O_R   0.771300 0.081740 0.084420 -0.544011
O17   O     O_3   0.604960 0.938700 0.997240 -0.387800
V3    V     V_3+5 0.330090 0.008230 0.997220 1.464197
O18   O     O_R   0.941820 0.901930 0.910640 -0.542702
C39   C     C_R   0.110690 0.879600 0.881731 0.682232
O19   O     O_R   0.941630 0.902840 0.083750 -0.548834
C40   C     C_R   0.110301 0.880892 0.112674 0.671244
V4    V     V_3+5 0.830090 0.986410 0.997190 1.446419
O20   O     O_3   0.105080 0.055990 0.997200 -0.350672
F1    F     F_    0.947194 0.133268 0.775257 -0.714734
F2    F     F_    0.412344 0.319064 0.908304 -0.682572

loop_
_geom_bond_atom_site_label_1
_geom_bond_atom_site_label_2
_ccdc_geom_bond_type
C7    C11   S    
O18   C39   A    
C8    C12   S    
O18   V4    S    
C16   H14   S    
C37   O16   A    
O17   V4    S    
V1    O10   S    
C15   C16   A    
C6    C10   S    
O17   V3    S    
C18   C19   S    
C20   H17   S    
C8    C9    S    
C1    C22   S    
C3    C17   S    
O5    C3    A    
C10   C11   S    
O12   C37   A    
O11   C38   A    
C27   H20   S    
V2    O10   S    
C5    C6    S    
C25   C26   A    
O13   C40   A    
O8    V2    S    
C31   C32   A    
C34   C35   S    
C21   C26   A    
O16   V4    S    
C4    C9    S    
O19   V4    S    
O7    V1    S    
O14   V3    S    
C13   C20   S    
C1    O6    A    
O12   V3    S    
C19   H15   S    
O9    C4    A    
C16   C17   A    
C36   H27   S    
O14   C38   A    
C23   C24   A    
C28   H21   S    
C32   H24   S    
C5    C9    S    
V4    O20   S    
O4    C2    A    
C27   C28   S    
C23   H19   S    
C21   C22   A    
C32   C33   A    
C12   H10   S    
O2    C1    A    
C17   C18   A    
C13   C14   A    
C29   C34   A    
C24   C25   A    
C5    H1    S    
C36   H28   S    
C6    H3    S    
O3    C4    A    
C7    H11   S    
O1    V2    S    
C6    H4    S    
O6    V2    S    
O9    V2    S    
C21   C28   S    
C10   C39   S    
O2    V1    S    
C15   H13   S    
C22   C23   A    
C25   C38   S    
C35   H25   S    
C19   H16   S    
C14   C40   S    
O11   V4    S    
C28   H22   S    
O1    C2    A    
O5    V1    S    
C35   H26   S    
O8    C3    A    
C7    C9    S    
C20   H18   S    
C8    H7    S    
C30   C31   A    
C13   C18   A    
C27   F2    S    
H6    C11   S    
C35   C36   S    
O3    V1    S    
O15   V3    S    
C12   H9    S    
C10   C12   S    
C26   C27   S    
C14   C15   A    
O15   C39   A    
C5    H2    S    
H5    C7    S    
O7    V2    S    
C33   C34   A    
C2    C30   S    
C29   C30   A    
C19   C20   S    
O4    V1    S    
C29   C36   S    
C8    H8    S    
C31   H23   S    
C11   H12   S    
C33   C37   S    
V3    O20   S    
O19   C40   A    
C24   F1    S    
O13   V3    S    
