data_mof_unit_64839.cif
_audit_creation_date              2013-03-05T15:59:45-0500
_audit_creation_method            fapswitch 2.2
_symmetry_space_group_name_H-M    P1
_symmetry_Int_Tables_number       1
_space_group_crystal_system       triclinic
_cell_length_a                    21.627067
_cell_length_b                    21.627222
_cell_length_c                    38.861655
_cell_angle_alpha                 89.999923
_cell_angle_beta                  90.000078
_cell_angle_gamma                 89.999813
_cell_volume                      18176.893215

loop_
_atom_site_label
_atom_site_type_symbol
_atom_site_description
_atom_site_fract_x
_atom_site_fract_y
_atom_site_fract_z
_atom_type_partial_charge
O1    O     O_R   0.591570 0.051800 0.500070 -0.611349
O2    O     O_R   0.948200 0.591570 0.500070 -0.611276
O3    O     O_R   0.408430 0.948200 0.500070 -0.611352
O4    O     O_R   0.051800 0.408430 0.500070 -0.611276
O5    O     O_R   0.591570 0.948200 0.499930 -0.611051
O6    O     O_R   0.948200 0.408430 0.499930 -0.611291
O7    O     O_R   0.408430 0.051800 0.499930 -0.611053
O8    O     O_R   0.051800 0.591570 0.499930 -0.611291
O9    O     O_R   0.091570 0.551800 0.000070 -0.611298
O10   O     O_R   0.448200 0.091570 0.000070 -0.611350
O11   O     O_R   0.908430 0.448200 0.000070 -0.611298
O12   O     O_R   0.551800 0.908430 0.000070 -0.611350
O13   O     O_R   0.091570 0.448200 0.999930 -0.611315
O14   O     O_R   0.448200 0.908430 0.999930 -0.611038
O15   O     O_R   0.908430 0.551800 0.999930 -0.611315
O16   O     O_R   0.551800 0.091570 0.999930 -0.611037
C1    C     C_R   0.619969 1.000000 0.500000 0.914856
C2    C     C_R   1.000000 0.619965 0.500000 0.908701
C3    C     C_R   0.380031 0.000000 0.500000 0.914846
C4    C     C_R   0.000000 0.380035 0.500000 0.908702
C5    C     C_R   0.119965 0.500000 0.000000 0.908739
C6    C     C_R   0.500000 0.119969 1.000000 0.915268
C7    C     C_R   0.880035 0.500000 0.000000 0.908740
C8    C     C_R   0.500000 0.880031 1.000000 0.915269
O17   O     O_R   0.499930 0.051800 0.550990 -0.617125
O18   O     O_R   0.948200 0.499930 0.550990 -0.609962
O19   O     O_R   0.500070 0.948200 0.550990 -0.617125
O20   O     O_R   0.051800 0.500070 0.550990 -0.609962
O21   O     O_R   0.499930 0.948200 0.449010 -0.616733
O22   O     O_R   0.948200 0.500070 0.449010 -0.609946
O23   O     O_R   0.500070 0.051800 0.449010 -0.616735
O24   O     O_R   0.051800 0.499930 0.449010 -0.609946
O25   O     O_R   0.999930 0.551800 0.050990 -0.609988
O26   O     O_R   0.448200 0.999930 0.050990 -0.617461
O27   O     O_R   0.000070 0.448200 0.050990 -0.609988
O28   O     O_R   0.551800 0.000070 0.050990 -0.617461
O29   O     O_R   0.999930 0.448200 0.949010 -0.609971
O30   O     O_R   0.448200 0.000070 0.949010 -0.617092
O31   O     O_R   0.000070 0.551800 0.949010 -0.609971
O32   O     O_R   0.551800 0.999930 0.949010 -0.617092
C9    C     C_R   0.500000 1.000000 0.567272 0.870587
C10   C     C_R   1.000000 0.500000 0.567238 0.861189
C11   C     C_R   0.499998 1.000000 0.432735 0.870068
C12   C     C_R   1.000000 0.500000 0.432761 0.861190
C13   C     C_R   1.000000 0.500000 0.067238 0.861221
C14   C     C_R   0.500000 0.000000 0.067279 0.871073
C15   C     C_R   1.000000 0.500000 0.932762 0.861227
C16   C     C_R   0.500000 0.000000 0.932728 0.870571
Zn1   Zn    Zn3+2 0.500000 0.069140 0.500000 1.039879
Zn2   Zn    Zn3+2 0.930860 0.500000 0.500000 1.047846
Zn3   Zn    Zn3+2 0.500000 0.930860 0.500000 1.039879
Zn4   Zn    Zn3+2 0.069140 0.500000 0.500000 1.047845
Zn5   Zn    Zn3+2 0.000000 0.569140 0.000000 1.047646
Zn6   Zn    Zn3+2 0.430860 0.000000 0.000000 1.039352
Zn7   Zn    Zn3+2 0.000000 0.430860 0.000000 1.047646
Zn8   Zn    Zn3+2 0.569140 0.000000 0.000000 1.039354
C17   C     C_R   0.553408 0.982569 0.877172 -0.155191
C18   C     C_R   0.036024 0.456904 0.877326 -0.156256
C19   C     C_R   0.446592 0.017431 0.877172 -0.155191
C20   C     C_R   0.963976 0.543096 0.877326 -0.156255
C21   C     C_R   0.553884 0.015903 0.122857 -0.155081
C22   C     C_R   0.036028 0.543092 0.122674 -0.156280
C23   C     C_R   0.446118 0.984098 0.122858 -0.155076
C24   C     C_R   0.963971 0.456908 0.122674 -0.156281
C25   C     C_R   0.956903 0.463977 0.377326 -0.156213
C26   C     C_R   0.518731 0.052960 0.377198 -0.155261
C27   C     C_R   0.043096 0.536023 0.377325 -0.156214
C28   C     C_R   0.481237 0.947040 0.377200 -0.155252
C29   C     C_R   0.956907 0.536027 0.622674 -0.156239
C30   C     C_R   0.517239 0.946530 0.622831 -0.155143
C31   C     C_R   0.043094 0.463973 0.622674 -0.156239
C32   C     C_R   0.482760 0.053469 0.622832 -0.155141
H1    H     H_    0.594968 0.968628 0.890649 0.175894
H2    H     H_    0.064280 0.423612 0.890988 0.165482
H3    H     H_    0.405032 0.031373 0.890649 0.175894
H4    H     H_    0.935721 0.576388 0.890988 0.165482
H5    H     H_    0.595844 0.028635 0.109394 0.176277
H6    H     H_    0.064287 0.576381 0.109012 0.165475
H7    H     H_    0.404158 0.971367 0.109395 0.176278
H8    H     H_    0.935713 0.423619 0.109011 0.165475
H9    H     H_    0.923611 0.435722 0.390988 0.165503
H10   H     H_    0.533713 0.094145 0.390686 0.175562
H11   H     H_    0.076388 0.564278 0.390988 0.165503
H12   H     H_    0.466260 0.905855 0.390691 0.175559
H13   H     H_    0.923617 0.564285 0.609011 0.165494
H14   H     H_    0.531030 0.904918 0.609356 0.175972
H15   H     H_    0.076383 0.435715 0.609012 0.165494
H16   H     H_    0.468969 0.095081 0.609356 0.175971
C33   C     C_R   0.553243 0.982176 0.841438 -0.045556
C34   C     C_R   0.036780 0.457568 0.841519 -0.034208
C35   C     C_R   0.446757 0.017825 0.841438 -0.045566
C36   C     C_R   0.963220 0.542433 0.841519 -0.034208
C37   C     C_R   0.553740 0.016266 0.158592 -0.045699
C38   C     C_R   0.036784 0.542428 0.158481 -0.034199
C39   C     C_R   0.446264 0.983736 0.158593 -0.045787
C40   C     C_R   0.963215 0.457571 0.158481 -0.034197
C41   C     C_R   0.957567 0.463220 0.341519 -0.034210
C42   C     C_R   0.519145 0.052776 0.341464 -0.045369
C43   C     C_R   0.042433 0.536779 0.341519 -0.034210
C44   C     C_R   0.480808 0.947222 0.341466 -0.045371
C45   C     C_R   0.957571 0.536783 0.658481 -0.034201
C46   C     C_R   0.517628 0.946692 0.658566 -0.045575
C47   C     C_R   0.042430 0.463217 0.658481 -0.034201
C48   C     C_R   0.482370 0.053307 0.658566 -0.045583
H17   H     H_    0.594462 0.968047 0.827682 0.164102
H18   H     H_    0.065321 0.424711 0.827718 0.166102
H19   H     H_    0.405539 0.031953 0.827682 0.164099
H20   H     H_    0.934679 0.575289 0.827718 0.166102
H21   H     H_    0.595355 0.029170 0.172351 0.163944
H22   H     H_    0.065328 0.575282 0.172282 0.166100
H23   H     H_    0.404649 0.970834 0.172352 0.163936
H24   H     H_    0.934671 0.424717 0.172282 0.166101
H25   H     H_    0.924709 0.434680 0.327718 0.166117
H26   H     H_    0.534328 0.093620 0.327710 0.164265
H27   H     H_    0.075290 0.565320 0.327717 0.166116
H28   H     H_    0.465623 0.906377 0.327714 0.164257
H29   H     H_    0.924716 0.565327 0.672282 0.166111
H30   H     H_    0.531603 0.905421 0.672322 0.164092
H31   H     H_    0.075285 0.434673 0.672282 0.166111
H32   H     H_    0.468395 0.094577 0.672322 0.164088
C49   C     C_R   0.500000 0.000001 0.823548 0.211489
C50   C     C_R   0.000000 0.500000 0.823620 0.196632
C51   C     C_R   0.500002 0.000001 0.176478 0.211957
C52   C     C_R   1.000000 0.500000 0.176380 0.196656
C53   C     C_R   0.999999 0.500000 0.323620 0.196588
C54   C     C_R   0.499974 0.999999 0.323571 0.211053
C55   C     C_R   0.000000 0.500000 0.676380 0.196614
C56   C     C_R   0.499999 0.999999 0.676455 0.211531
C57   C     C_R   0.500000 0.000000 0.895216 -0.053479
C58   C     C_R   1.000000 0.500000 0.895309 -0.043605
C59   C     C_R   0.500001 0.000000 0.104804 -0.053991
C60   C     C_R   1.000000 0.500000 0.104691 -0.043601
C61   C     C_R   1.000000 0.500000 0.395309 -0.043614
C62   C     C_R   0.499989 1.000000 0.395235 -0.053014
C63   C     C_R   0.000000 0.500000 0.604691 -0.043607
C64   C     C_R   0.499999 1.000000 0.604786 -0.053560
C65   C     C_R   0.540000 0.040231 0.768036 0.203350
C66   C     C_R   0.959554 0.460289 0.768065 0.206051
C67   C     C_R   0.460002 0.959768 0.768036 0.203346
C68   C     C_R   0.040446 0.539712 0.768065 0.206051
C69   C     C_R   0.538597 0.958428 0.231984 0.203323
C70   C     C_R   0.959558 0.539716 0.231935 0.206055
C71   C     C_R   0.461399 0.041581 0.231979 0.203299
C72   C     C_R   0.040441 0.460283 0.231935 0.206055
C73   C     C_R   0.960287 0.540445 0.268065 0.206052
C74   C     C_R   0.539004 0.958817 0.268054 0.203387
C75   C     C_R   0.039711 0.459554 0.268065 0.206052
C76   C     C_R   0.460968 0.041182 0.268050 0.203382
C77   C     C_R   0.960284 0.459559 0.731935 0.206052
C78   C     C_R   0.540407 0.039821 0.731966 0.203342
C79   C     C_R   0.039717 0.540441 0.731935 0.206052
C80   C     C_R   0.459594 0.960177 0.731966 0.203345
C81   C     C_R   0.500000 0.999999 0.714074 -0.260071
C82   C     C_R   0.000000 0.500000 0.714013 -0.270126
C83   C     C_R   0.499979 0.999996 0.285948 -0.259817
C84   C     C_R   0.999999 0.500000 0.285987 -0.270133
C85   C     C_R   0.999999 0.500000 0.214013 -0.270121
C86   C     C_R   0.500001 0.000003 0.214092 -0.260297
C87   C     C_R   0.000000 0.500000 0.785987 -0.270129
C88   C     C_R   0.500001 1.000000 0.785929 -0.260041
C89   C     C_R   0.716987 0.961018 0.477520 -0.205771
C90   C     C_R   0.038865 0.716972 0.477457 -0.207567
C91   C     C_R   0.283013 0.038982 0.477520 -0.205777
C92   C     C_R   0.961135 0.283028 0.477457 -0.207566
C93   C     C_R   0.716986 0.038983 0.522479 -0.205544
C94   C     C_R   0.038865 0.283028 0.522543 -0.207537
C95   C     C_R   0.283014 0.961018 0.522480 -0.205544
C96   C     C_R   0.961135 0.716972 0.522543 -0.207537
C97   C     C_R   0.216972 0.461135 0.977457 -0.207604
C98   C     C_R   0.538983 0.216987 0.977520 -0.205615
C99   C     C_R   0.783028 0.538865 0.977457 -0.207604
C100  C     C_R   0.461017 0.783013 0.977520 -0.205614
C101  C     C_R   0.216972 0.538865 0.022543 -0.207571
C102  C     C_R   0.538983 0.783013 0.022479 -0.205404
C103  C     C_R   0.783028 0.461135 0.022543 -0.207571
C104  C     C_R   0.461017 0.216987 0.022479 -0.205402
H33   H     H_    0.691382 0.930887 0.460358 0.196887
H34   H     H_    0.068902 0.691363 0.460244 0.188301
H35   H     H_    0.308617 0.069113 0.460358 0.196884
H36   H     H_    0.931098 0.308638 0.460244 0.188301
H37   H     H_    0.691382 0.069113 0.539642 0.196801
H38   H     H_    0.068902 0.308637 0.539755 0.188299
H39   H     H_    0.308618 0.930887 0.539642 0.196801
H40   H     H_    0.931098 0.691363 0.539755 0.188300
H41   H     H_    0.191362 0.431099 0.960245 0.188287
H42   H     H_    0.569114 0.191383 0.960358 0.196790
H43   H     H_    0.808637 0.568902 0.960245 0.188287
H44   H     H_    0.430886 0.808618 0.960358 0.196790
H45   H     H_    0.191362 0.568901 0.039756 0.188286
H46   H     H_    0.569114 0.808617 0.039641 0.196696
H47   H     H_    0.808638 0.431099 0.039756 0.188286
H48   H     H_    0.430886 0.191383 0.039641 0.196696
C105  C     C_R   0.780969 0.960376 0.477163 0.298735
C106  C     C_R   0.039514 0.780954 0.477104 0.304783
C107  C     C_R   0.219031 0.039624 0.477163 0.298736
C108  C     C_R   0.960486 0.219046 0.477104 0.304783
C109  C     C_R   0.780969 0.039624 0.522837 0.298748
C110  C     C_R   0.039514 0.219046 0.522896 0.304723
C111  C     C_R   0.219031 0.960376 0.522837 0.298747
C112  C     C_R   0.960486 0.780954 0.522896 0.304723
C113  C     C_R   0.280954 0.460486 0.977104 0.304747
C114  C     C_R   0.539624 0.280969 0.977163 0.298788
C115  C     C_R   0.719045 0.539514 0.977104 0.304748
C116  C     C_R   0.460376 0.719031 0.977163 0.298789
C117  C     C_R   0.280954 0.539514 0.022896 0.304686
C118  C     C_R   0.539624 0.719031 0.022837 0.298808
C119  C     C_R   0.719046 0.460486 0.022896 0.304687
C120  C     C_R   0.460376 0.280969 0.022837 0.298807
C121  C     C_R   0.813149 0.000000 0.500000 -0.243652
C122  C     C_R   0.000000 0.813139 0.500000 -0.243862
C123  C     C_R   0.186851 1.000000 0.500000 -0.243651
C124  C     C_R   1.000000 0.186861 0.500000 -0.243862
C125  C     C_R   0.313139 0.500000 1.000000 -0.243816
C126  C     C_R   0.500000 0.313149 0.000000 -0.243611
C127  C     C_R   0.686861 0.500000 1.000000 -0.243817
C128  C     C_R   0.500000 0.686851 0.000000 -0.243611
C129  C     C_R   0.685766 1.000000 0.500000 -0.139837
C130  C     C_R   1.000000 0.685756 0.500000 -0.130392
C131  C     C_R   0.314234 0.000000 0.500000 -0.139834
C132  C     C_R   0.000000 0.314244 0.500000 -0.130392
C133  C     C_R   0.185756 0.500000 0.000000 -0.130380
C134  C     C_R   0.500000 0.185766 1.000000 -0.139803
C135  C     C_R   0.814244 0.500000 0.000000 -0.130380
C136  C     C_R   0.500000 0.814234 1.000000 -0.139802
O33   O     O_R   0.999990 0.091790 0.471350 -0.582779
O34   O     O_R   0.908210 0.999990 0.471350 -0.583361
O35   O     O_R   0.000010 0.908210 0.471350 -0.582780
O36   O     O_R   0.091790 0.000010 0.471350 -0.583361
O37   O     O_R   0.999990 0.908210 0.528650 -0.582724
O38   O     O_R   0.908210 0.000010 0.528650 -0.583242
O39   O     O_R   0.000010 0.091790 0.528650 -0.582724
O40   O     O_R   0.091790 0.999990 0.528650 -0.583243
O41   O     O_R   0.499990 0.591790 0.971350 -0.583303
O42   O     O_R   0.408210 0.499990 0.971350 -0.582752
O43   O     O_R   0.500010 0.408210 0.971350 -0.583304
O44   O     O_R   0.591790 0.500010 0.971350 -0.582752
O45   O     O_R   0.499990 0.408210 0.028650 -0.583185
O46   O     O_R   0.408210 0.500010 0.028650 -0.582696
O47   O     O_R   0.500010 0.591790 0.028650 -0.583186
O48   O     O_R   0.591790 0.499990 0.028650 -0.582696
C137  C     C_R   1.000000 0.120497 0.500000 1.007547
C138  C     C_R   0.879507 0.000000 0.500000 1.007241
C139  C     C_R   1.000000 0.879503 0.500000 1.007549
C140  C     C_R   0.120493 0.000000 0.500000 1.007241
C141  C     C_R   0.500000 0.620493 0.000000 1.007162
C142  C     C_R   0.379503 0.500000 1.000000 1.007444
C143  C     C_R   0.500000 0.379507 0.000000 1.007162
C144  C     C_R   0.620497 0.500000 0.000000 1.007444
Zn9   Zn    Zn3+2 0.000000 0.000000 0.461700 1.207778
Zn10  Zn    Zn3+2 1.000000 0.000000 0.538300 1.208216
Zn11  Zn    Zn3+2 0.500000 0.500000 0.961700 1.208142
Zn12  Zn    Zn3+2 0.500000 0.500000 0.038300 1.208581
N1    N     N_R   0.580723 0.081022 0.786478 0.242044
O49   O     O_R   0.639679 0.081347 0.779800 -0.276033
O50   O     O_R   0.558994 0.118149 0.809889 -0.319509
N2    N     N_R   0.915959 0.422404 0.786400 0.250120
O51   O     O_R   0.857638 0.423765 0.778210 -0.268339
O52   O     O_R   0.934653 0.384066 0.809998 -0.330092
N3    N     N_R   0.419281 0.918975 0.786479 0.242043
O53   O     O_R   0.360326 0.918643 0.779799 -0.276027
O54   O     O_R   0.441013 0.881850 0.809891 -0.319512
N4    N     N_R   0.084041 0.577597 0.786400 0.250120
O55   O     O_R   0.142362 0.576236 0.778210 -0.268339
O56   O     O_R   0.065347 0.615935 0.809998 -0.330092
N5    N     N_R   0.577922 0.916284 0.213539 0.242156
O57   O     O_R   0.636810 0.913868 0.220270 -0.275403
O58   O     O_R   0.554974 0.879996 0.190081 -0.319810
N6    N     N_R   0.915967 0.577606 0.213599 0.250109
O59   O     O_R   0.857646 0.576251 0.221789 -0.268182
O60   O     O_R   0.934665 0.615943 0.190002 -0.330241
N7    N     N_R   0.422105 0.083746 0.213532 0.242157
O61   O     O_R   0.363213 0.086185 0.220248 -0.275398
O62   O     O_R   0.445088 0.120036 0.190083 -0.319804
N8    N     N_R   0.084032 0.422393 0.213599 0.250109
O63   O     O_R   0.142353 0.423748 0.221790 -0.268182
O64   O     O_R   0.065333 0.384056 0.190002 -0.330241
N9    N     N_R   0.922402 0.584040 0.286400 0.250131
O65   O     O_R   0.923764 0.642361 0.278210 -0.268489
O66   O     O_R   0.884063 0.565347 0.309997 -0.329942
N10   N     N_R   0.578555 0.916889 0.286494 0.241936
O67   O     O_R   0.577054 0.857941 0.279844 -0.276561
O68   O     O_R   0.616366 0.937502 0.309880 -0.319256
N11   N     N_R   0.077597 0.415959 0.286401 0.250131
O69   O     O_R   0.076235 0.357638 0.278211 -0.268488
O70   O     O_R   0.115936 0.434653 0.309998 -0.329942
N12   N     N_R   0.421408 0.083108 0.286484 0.241941
O71   O     O_R   0.422928 0.142059 0.279843 -0.276568
O72   O     O_R   0.383582 0.062494 0.309862 -0.319245
N13   N     N_R   0.922394 0.415968 0.713599 0.250121
O73   O     O_R   0.923750 0.357648 0.721789 -0.268322
O74   O     O_R   0.884056 0.434667 0.690003 -0.330087
N14   N     N_R   0.581378 0.080363 0.713522 0.242062
O75   O     O_R   0.581979 0.139313 0.720207 -0.275927
O76   O     O_R   0.618398 0.058470 0.690106 -0.319541
N15   N     N_R   0.077607 0.584032 0.713599 0.250121
O77   O     O_R   0.076251 0.642353 0.721789 -0.268322
O78   O     O_R   0.115945 0.565334 0.690003 -0.330087
N16   N     N_R   0.418626 0.919633 0.713523 0.242063
O79   O     O_R   0.418032 0.860681 0.720206 -0.275934
O80   O     O_R   0.381601 0.941523 0.690108 -0.319536
N17   N     N_R   0.812038 0.918550 0.454108 0.230527
O81   O     O_R   0.789228 0.908039 0.423675 -0.313763
O82   O     O_R   0.857092 0.883929 0.465068 -0.351010
N18   N     N_R   0.081244 0.812017 0.453992 0.230124
O83   O     O_R   0.091588 0.789226 0.423538 -0.335466
O84   O     O_R   0.115965 0.857022 0.464917 -0.353446
N19   N     N_R   0.187961 0.081450 0.454107 0.230527
O85   O     O_R   0.210772 0.091961 0.423675 -0.313766
O86   O     O_R   0.142907 0.116071 0.465067 -0.351010
N20   N     N_R   0.918756 0.187983 0.453992 0.230124
O87   O     O_R   0.908412 0.210775 0.423537 -0.335464
O88   O     O_R   0.884035 0.142978 0.464916 -0.353444
N21   N     N_R   0.812038 0.081450 0.545892 0.230530
O89   O     O_R   0.789227 0.091961 0.576325 -0.313399
O90   O     O_R   0.857092 0.116071 0.534932 -0.351055
N22   N     N_R   0.081244 0.187982 0.546008 0.230166
O91   O     O_R   0.091587 0.210774 0.576463 -0.335244
O92   O     O_R   0.115965 0.142977 0.535084 -0.353305
N23   N     N_R   0.187962 0.918550 0.545892 0.230530
O93   O     O_R   0.210773 0.908039 0.576325 -0.313399
O94   O     O_R   0.142908 0.883929 0.534933 -0.351055
N24   N     N_R   0.918756 0.812018 0.546008 0.230165
O95   O     O_R   0.908413 0.789226 0.576463 -0.335244
O96   O     O_R   0.884035 0.857023 0.535084 -0.353305
N25   N     N_R   0.312018 0.418756 0.953992 0.230147
O97   O     O_R   0.289226 0.408414 0.923537 -0.335300
O98   O     O_R   0.357023 0.384035 0.964916 -0.353386
N26   N     N_R   0.581451 0.312038 0.954108 0.230533
O99   O     O_R   0.591962 0.289227 0.923675 -0.313467
O100  O     O_R   0.616071 0.357092 0.965068 -0.351048
N27   N     N_R   0.687982 0.581244 0.953992 0.230147
O101  O     O_R   0.710773 0.591587 0.923537 -0.335300
O102  O     O_R   0.642977 0.615965 0.964916 -0.353385
N28   N     N_R   0.418549 0.687962 0.954107 0.230533
O103  O     O_R   0.408039 0.710773 0.923675 -0.313466
O104  O     O_R   0.383929 0.642909 0.965067 -0.351048
N29   N     N_R   0.312018 0.581244 0.046007 0.230192
O105  O     O_R   0.289226 0.591587 0.076462 -0.335072
O106  O     O_R   0.357023 0.615965 0.035083 -0.353239
N30   N     N_R   0.581451 0.687962 0.045893 0.230534
O107  O     O_R   0.591961 0.710773 0.076325 -0.313134
O108  O     O_R   0.616072 0.642908 0.034933 -0.351097
N31   N     N_R   0.687982 0.418756 0.046008 0.230192
O109  O     O_R   0.710774 0.408413 0.076463 -0.335070
O110  O     O_R   0.642977 0.384035 0.035083 -0.353237
N32   N     N_R   0.418550 0.312038 0.045893 0.230534
O111  O     O_R   0.408040 0.289227 0.076326 -0.313129
O112  O     O_R   0.383928 0.357092 0.034933 -0.351096

loop_
_geom_bond_atom_site_label_1
_geom_bond_atom_site_label_2
_geom_bond_distance
_ccdc_geom_bond_type
N24   O96   1.300574 A    
C89   C129  1.389190 A    
O25   C13   1.285990 A    
C103  C119  1.383891 A    
N29   O105  1.301439 A    
N17   O81   1.301446 A    
C5    C133  1.422866 S    
C79   N15   1.438058 S    
C115  C127  1.416515 A    
O39   C137  1.274785 A    
C114  N26   1.439640 S    
O18   Zn2   2.016726 S    
C68   C87   1.409913 A    
C112  N24   1.439619 S    
C42   H26   1.083427 S    
N7    O61   1.301215 A    
C67   C80   1.401796 A    
C72   N8    1.438059 S    
N8    O63   1.301181 A    
O24   Zn4   2.016730 S    
O19   Zn3   2.016728 S    
C120  C126  1.416456 A    
O3    C3    1.277602 A    
O15   C7    1.277568 A    
C29   C63   1.401467 A    
C76   N12   1.437846 S    
C30   C64   1.402875 A    
N20   O88   1.300572 A    
C35   H19   1.083418 S    
N30   O107  1.301444 A    
O17   C9    1.286642 A    
C20   H4    1.083396 S    
N22   O91   1.301448 A    
C94   C110  1.383897 A    
C26   H10   1.083117 S    
O36   C140  1.274747 A    
O13   C5    1.277568 A    
C19   C35   1.388732 A    
C114  C126  1.416455 A    
N6    O60   1.300734 A    
O26   Zn6   2.016726 S    
O7    C3    1.277604 A    
C16   C57   1.457771 S    
N16   O79   1.301196 A    
C89   H33   1.084487 S    
O27   C13   1.285990 A    
O31   C15   1.285990 A    
O36   Zn9   2.020260 S    
O32   C16   1.286619 A    
C19   C57   1.402848 A    
C65   C88   1.410284 A    
O46   Zn12  2.020262 S    
C123  C140  1.435118 S    
C73   N9    1.438058 S    
C37   C51   1.399116 A    
N3    O54   1.301272 A    
C32   C64   1.402876 A    
C99   C135  1.389155 A    
C29   C45   1.391693 A    
C104  C120  1.383894 A    
N14   O76   1.301278 A    
N12   O72   1.301292 A    
O9    C5    1.277566 A    
O11   C7    1.277566 A    
C115  N27   1.439619 S    
C98   C114  1.383892 A    
C108  C124  1.416520 A    
C13   C60   1.455451 S    
C102  C118  1.383896 A    
C103  C135  1.389153 A    
O5    Zn3   2.015589 S    
C91   C131  1.389192 A    
O34   Zn9   2.020263 S    
N23   O94   1.300564 A    
C27   H11   1.083395 S    
C78   N14   1.437928 S    
O44   C144  1.274785 A    
C94   H38   1.084525 S    
O41   C141  1.274751 A    
O16   Zn8   2.015600 S    
N15   O78   1.300735 A    
C108  N20   1.439620 S    
C104  C134  1.389192 A    
C44   C54   1.399367 A    
C70   N6    1.438060 S    
C46   C56   1.399222 A    
N1    O49   1.301195 A    
O34   C138  1.274745 A    
O45   C143  1.274748 A    
O14   C8    1.277600 A    
N25   O98   1.300571 A    
O2    Zn2   2.015602 S    
C26   C62   1.402681 A    
C36   H20   1.083334 S    
C21   H5    1.083074 S    
N2    O52   1.300733 A    
O28   C14   1.286749 A    
C126  C143  1.435128 S    
O26   C14   1.286753 A    
C76   C83   1.410335 A    
O29   C15   1.285990 A    
C47   C55   1.399534 A    
O8    Zn4   2.015600 S    
O30   C16   1.286619 A    
C93   C129  1.389191 A    
O35   Zn9   2.020276 S    
N18   O84   1.300572 A    
C68   N4    1.438060 S    
N9    O65   1.301180 A    
C72   C75   1.404241 A    
C74   N10   1.437869 S    
C55   C82   1.462496 S    
C95   C131  1.389190 A    
C116  N28   1.439639 S    
C4    C132  1.422877 S    
O17   Zn1   2.016727 S    
C20   C36   1.391693 A    
C66   C77   1.404241 A    
C71   C76   1.401821 A    
N10   O67   1.301223 A    
C24   C40   1.391689 A    
N28   O103  1.301438 A    
C78   C81   1.410271 A    
O4    C4    1.277565 A    
C28   C44   1.388735 A    
C124  C137  1.435269 S    
O38   C138  1.274747 A    
C36   C50   1.399534 A    
C106  C122  1.416517 A    
N32   O112  1.300566 A    
N13   O73   1.301178 A    
C89   C105  1.383893 A    
O6    Zn2   2.015602 S    
N5    O58   1.301264 A    
C7    C135  1.422866 S    
N31   O110  1.300571 A    
C91   H35   1.084489 S    
C65   C78   1.401803 A    
C2    C130  1.422877 S    
C29   H13   1.083394 S    
C18   H2    1.083394 S    
C71   C86   1.410206 A    
O21   Zn3   2.016731 S    
C39   C51   1.399118 A    
C31   C47   1.391693 A    
O47   Zn12  2.020274 S    
C22   H6    1.083396 S    
N26   O99   1.301439 A    
O42   Zn11  2.020263 S    
C92   C108  1.383892 A    
N4    O55   1.301179 A    
C116  C128  1.416458 A    
O1    C1    1.277601 A    
C117  N29   1.439622 S    
C26   C42   1.388725 A    
C45   C55   1.399535 A    
N8    O64   1.300734 A    
C103  H47   1.084525 S    
C90   H34   1.084529 S    
C21   C59   1.403050 A    
O29   Zn7   2.016731 S    
C3    C131  1.423009 S    
C80   C81   1.410273 A    
C35   C49   1.399242 A    
C33   H17   1.083421 S    
N11   O69   1.301181 A    
C95   C111  1.383886 A    
C111  N23   1.439639 S    
C72   C85   1.409911 A    
C37   H21   1.083434 S    
C90   C130  1.389154 A    
C44   H28   1.083427 S    
C101  C133  1.389153 A    
C1    C129  1.423011 S    
O10   C6    1.277599 A    
C6    C134  1.423019 S    
O18   C10   1.285985 A    
C17   C33   1.388732 A    
O15   Zn5   2.015591 S    
N30   O108  1.300563 A    
C122  C139  1.435271 S    
C43   H27   1.083335 S    
C21   C37   1.388735 A    
O5    C1    1.277603 A    
O33   C137  1.274790 A    
C23   C39   1.388731 A    
N22   O92   1.300570 A    
C100  C116  1.383892 A    
C73   C84   1.409911 A    
C74   C83   1.410347 A    
C24   C60   1.401471 A    
O32   Zn8   2.016730 S    
C49   C88   1.461937 S    
C67   N3    1.437927 S    
C50   C87   1.462496 S    
O45   Zn12  2.020277 S    
C120  N32   1.439639 S    
C23   C59   1.403047 A    
C80   N16   1.437929 S    
C92   H36   1.084528 S    
C53   C84   1.462496 S    
C27   C43   1.391689 A    
C54   C83   1.462096 S    
N24   O95   1.301445 A    
O22   Zn2   2.016731 S    
C117  C125  1.416517 A    
C127  C144  1.435261 S    
O21   C11   1.286498 A    
C24   H8    1.083397 S    
C70   C73   1.404241 A    
O22   C12   1.285985 A    
N16   O80   1.301278 A    
O23   Zn1   2.016732 S    
C66   N2    1.438060 S    
N29   O106  1.300572 A    
N17   O82   1.300566 A    
N19   O85   1.301447 A    
C28   H12   1.083117 S    
C34   H18   1.083334 S    
C41   C53   1.399534 A    
N15   O77   1.301178 A    
O3    Zn3   2.015588 S    
C32   C48   1.388732 A    
C128  C141  1.435128 S    
C38   H22   1.083333 S    
C112  C122  1.416518 A    
C10   C63   1.455454 S    
C11   C62   1.457316 S    
C77   C82   1.409910 A    
C100  C136  1.389192 A    
C22   C60   1.401470 A    
C75   N11   1.438058 S    
C25   H9    1.083397 S    
O30   Zn6   2.016731 S    
C91   C107  1.383891 A    
C52   C85   1.462496 S    
C98   H42   1.084491 S    
C119  C127  1.416518 A    
C75   C84   1.409912 A    
C18   C34   1.391693 A    
C68   C79   1.404241 A    
C113  C125  1.416515 A    
O23   C11   1.286502 A    
C69   C74   1.401797 A    
C102  H46   1.084486 S    
C31   H15   1.083395 S    
C67   C88   1.410284 A    
O48   Zn12  2.020261 S    
C22   C38   1.391689 A    
C71   N7    1.437957 S    
O9    Zn5   2.015586 S    
C70   C85   1.409911 A    
C94   C132  1.389152 A    
O11   Zn7   2.015588 S    
O41   Zn11  2.020275 S    
O12   C8    1.277598 A    
N20   O87   1.301440 A    
O16   C6    1.277601 A    
C96   C112  1.383897 A    
O40   C140  1.274745 A    
C113  N25   1.439619 S    
C30   C46   1.388732 A    
C110  N22   1.439621 S    
O6    C4    1.277563 A    
O47   C141  1.274746 A    
C45   H29   1.083332 S    
C97   H41   1.084524 S    
C28   C62   1.402687 A    
O42   C142  1.274783 A    
O35   C139  1.274787 A    
N21   O89   1.301438 A    
O31   Zn5   2.016732 S    
C33   C49   1.399241 A    
C18   C58   1.401466 A    
C99   C115  1.383893 A    
N25   O97   1.301444 A    
O8    C2    1.277563 A    
N21   O90   1.300565 A    
C97   C113  1.383893 A    
N23   O93   1.301440 A    
C69   C86   1.410212 A    
C42   C54   1.399368 A    
N6    O59   1.301179 A    
O48   C144  1.274783 A    
C101  C117  1.383889 A    
C48   H32   1.083420 S    
N31   O109  1.301439 A    
C109  N21   1.439639 S    
N11   O70   1.300734 A    
O43   Zn11  2.020276 S    
N27   O101  1.301443 A    
C43   C53   1.399536 A    
C23   H7    1.083075 S    
C40   H24   1.083334 S    
O4    Zn4   2.015604 S    
O28   Zn8   2.016727 S    
C17   C57   1.402848 A    
N14   O75   1.301196 A    
C27   C61   1.401471 A    
N10   O68   1.301282 A    
C93   C109  1.383886 A    
C31   C63   1.401466 A    
N12   O71   1.301222 A    
O37   C139  1.274785 A    
N28   O104  1.300565 A    
C104  H48   1.084488 S    
C17   H1    1.083100 S    
C118  N30   1.439638 S    
C79   C82   1.409910 A    
C101  H45   1.084529 S    
C105  N17   1.439636 S    
C66   C87   1.409913 A    
C97   C133  1.389153 A    
C96   H40   1.084523 S    
C48   C56   1.399224 A    
N5    O57   1.301215 A    
O37   Zn10  2.020277 S    
C46   H30   1.083421 S    
C92   C132  1.389155 A    
C119  N31   1.439620 S    
C98   C134  1.389192 A    
C34   C50   1.399535 A    
O46   C142  1.274785 A    
O43   C143  1.274749 A    
C32   H16   1.083097 S    
C8    C136  1.423021 S    
O25   Zn5   2.016727 S    
C95   H39   1.084491 S    
C77   N13   1.438058 S    
C40   C52   1.399534 A    
C15   C58   1.455458 S    
O27   Zn7   2.016728 S    
C107  N19   1.439638 S    
C102  C136  1.389192 A    
O7    Zn1   2.015591 S    
N26   O100  1.300565 A    
C20   C58   1.401466 A    
C14   C59   1.458287 S    
N1    O50   1.301276 A    
N4    O56   1.300734 A    
N19   O86   1.300566 A    
C69   N5    1.437995 S    
C107  C123  1.416456 A    
O19   C9    1.286641 A    
C105  C121  1.416452 A    
N2    O51   1.301179 A    
C90   C106  1.383894 A    
O24   C12   1.285985 A    
N27   O102  1.300573 A    
O12   Zn8   2.015604 S    
C56   C81   1.461917 S    
N18   O83   1.301440 A    
O14   Zn6   2.015602 S    
N9    O66   1.300734 A    
O40   Zn10  2.020261 S    
O44   Zn11  2.020260 S    
C41   H25   1.083332 S    
N3    O53   1.301196 A    
C30   H14   1.083098 S    
C19   H3    1.083098 S    
C110  C124  1.416516 A    
C118  C128  1.416455 A    
C12   C61   1.455454 S    
N7    O62   1.301302 A    
O33   Zn9   2.020275 S    
C47   H31   1.083332 S    
O13   Zn7   2.015589 S    
O2    C2    1.277565 A    
C121  C138  1.435118 S    
C51   C86   1.461769 S    
C99   H43   1.084524 S    
C93   H37   1.084492 S    
C25   C41   1.391689 A    
C39   H23   1.083433 S    
O20   Zn4   2.016727 S    
C106  N18   1.439619 S    
N32   O111  1.301445 A    
C100  H44   1.084491 S    
O20   C10   1.285985 A    
N13   O74   1.300735 A    
C111  C123  1.416454 A    
C125  C142  1.435259 S    
O10   Zn6   2.015602 S    
C65   N1    1.437920 S    
C109  C121  1.416458 A    
C96   C130  1.389156 A    
O38   Zn10  2.020262 S    
O39   Zn10  2.020274 S    
O1    Zn1   2.015586 S    
C9    C64   1.457837 S    
C25   C61   1.401471 A    
C38   C52   1.399536 A    
