data_mof_unit_53594.cif
_audit_creation_date              2013-03-05T16:33:33-0500
_audit_creation_method            fapswitch 2.2
_symmetry_space_group_name_H-M    P1
_symmetry_Int_Tables_number       1
_space_group_crystal_system       triclinic
_cell_length_a                    10.879783
_cell_length_b                    10.931217
_cell_length_c                    9.545848
_cell_angle_alpha                 91.76703
_cell_angle_beta                  90.333939
_cell_angle_gamma                 90.693628
_cell_volume                      1134.63586834

loop_
_atom_site_label
_atom_site_type_symbol
_atom_site_description
_atom_site_fract_x
_atom_site_fract_y
_atom_site_fract_z
_atom_type_partial_charge
O1    O     O_R   0.500000 0.319640 0.618810 -0.609351
O2    O     O_R   0.500010 0.319680 0.381230 -0.554771
C1    C     C_R   0.496713 0.262343 0.497156 0.801641
O3    O     O_R   0.319650 0.499970 0.618810 -0.569736
O4    O     O_R   0.319660 0.500010 0.381230 -0.583396
C2    C     C_R   0.262786 0.498022 0.499470 0.872119
Cu1   Cu    Cu3+1 0.499990 0.499980 0.640670 1.013160
Cu2   Cu    Cu3+1 0.500010 0.500020 0.359330 1.047356
O5    O     O_R   0.499990 0.680320 0.618770 -0.557183
O6    O     O_R   0.500000 0.680360 0.381190 -0.587383
O7    O     O_R   0.680340 0.499990 0.618770 -0.580651
O8    O     O_R   0.680350 0.500030 0.381190 -0.544221
C3    C     C_R   0.501748 0.737936 0.502400 0.895279
C4    C     C_R   0.737545 0.493050 0.499358 0.894260
C5    C     C_R   0.064325 0.521869 0.617533 -0.010388
C6    C     C_R   0.130249 0.489811 0.498253 -0.061839
C7    C     C_R   0.066695 0.442363 0.380114 -0.161068
H1    H     H_    0.117690 0.410841 0.288924 0.187579
C8    C     C_R   0.937631 0.436215 0.377905 -0.017217
C9    C     C_R   0.871210 0.479636 0.497866 -0.103096
C10   C     C_R   0.938124 0.514986 0.618098 -0.031224
C11   C     C_3   0.928151 0.624501 0.714985 0.098695
C12   C     C_3   0.068886 0.633005 0.714061 0.182710
H2    H     H_    0.890801 0.598170 0.817669 0.176258
C13   C     C_R   0.430040 0.067113 0.598127 0.036616
C14   C     C_R   0.485574 0.129012 0.488491 -0.136314
C15   C     C_R   0.534793 0.058093 0.375042 -0.050299
C16   C     C_R   0.542718 0.931238 0.385867 -0.145527
H3    H     H_    0.585240 0.879192 0.301772 0.189166
C17   C     C_R   0.501995 0.871746 0.505008 -0.082298
C18   C     C_R   0.444621 0.942107 0.610582 0.014031
C19   C     C_3   0.465911 0.958953 0.767032 0.211221
C20   C     C_3   0.433918 0.093994 0.752532 -0.310348
H4    H     H_    0.508940 0.158642 0.786212 0.128876
C21   C     C_R   0.596538 0.549804 0.076443 0.227325
N1    N     N_R   0.500790 0.500930 0.147930 -0.223494
C22   C     C_R   0.410191 0.441228 0.071658 0.035950
H5    H     H_    0.336433 0.395146 0.125159 0.176310
C23   C     C_R   0.410215 0.441260 0.922874 0.015915
H6    H     H_    0.336199 0.395819 0.865111 0.168597
N2    N     N_R   0.500790 0.500890 0.852020 -0.195233
C24   C     C_R   0.597303 0.548366 0.928373 0.142534
C25   C     C_3   0.635727 0.678505 0.927444 -0.435371
C26   C     C_3   0.634200 0.680871 0.085366 0.165326
H7    H     H_    0.727137 0.694361 0.882527 0.245856
H8    H     H_    0.562044 0.731948 0.881074 0.233503
H9    H     H_    0.561569 0.740781 0.129054 0.166244
C27   C     C_2   0.598403 0.950473 0.814254 0.807863
O9    O     O_2   0.681321 0.944223 0.728687 -0.517282
O10   O     O_R   0.626192 0.958220 0.957205 -0.726162
H10   H     H_    0.717666 0.952411 0.976338 0.388305
C28   C     C_2   0.310784 0.132943 0.809611 0.985458
O11   O     O_2   0.297191 0.144542 0.936337 -0.529594
O12   O     O_R   0.213787 0.158701 0.718675 -0.732059
H11   H     H_    0.137089 0.185538 0.770386 0.352914
Cl1   Cl    Cl    0.783035 0.702312 0.162549 -0.493669
C29   C     C_2   0.878494 0.385892 0.247917 0.923752
O13   O     O_2   0.788656 0.318456 0.254313 -0.575783
O14   O     O_R   0.928726 0.412238 0.117525 -0.701743
H12   H     H_    0.880481 0.372829 0.036525 0.338062
Cl2   Cl    Cl    0.849264 0.747362 0.633479 -0.513008
C30   C     C_2   0.120922 0.750199 0.655636 1.009415
O15   O     O_2   0.110321 0.846081 0.723696 -0.451136
O16   O     O_R   0.177379 0.750998 0.524501 -0.774751
H13   H     H_    0.206324 0.835775 0.498441 0.349684
Cl3   Cl    Cl    0.135695 0.598985 0.879671 -0.517203
C31   C     C_2   0.587059 0.110279 0.247220 0.985470
O17   O     O_2   0.693532 0.088409 0.215986 -0.519160
O18   O     O_R   0.512707 0.175741 0.156947 -0.701261
H14   H     H_    0.558720 0.203944 0.071454 0.334676
Cl4   Cl    Cl    0.361879 0.869190 0.867866 -0.498909

loop_
_geom_bond_atom_site_label_1
_geom_bond_atom_site_label_2
_geom_bond_distance
_ccdc_geom_bond_type
C13   C18   1.386216 A    
O4    Cu2   1.974484 S    
C25   C26   1.507112 S    
C22   H5    1.081389 S    
C1    C14   1.460795 S    
C25   H7    1.099252 S    
N2    C24   1.362974 A    
C26   Cl1   1.784969 S    
C21   N1    1.361454 A    
C26   H9    1.107600 S    
C17   C18   1.402857 A    
Cu2   O8    1.971914 S    
C15   C16   1.397356 A    
C19   C20   1.530965 S    
C30   O15   1.223003 D    
C16   C17   1.398997 A    
C7    H1    1.084460 S    
C14   C15   1.423228 A    
O14   H12   1.014008 S    
C23   N2    1.368516 A    
O1    Cu1   1.975941 S    
C10   C11   1.495431 S    
C8    C29   1.481986 S    
C20   C28   1.510262 S    
Cu1   O7    1.974484 S    
C21   C26   1.485162 S    
C19   C27   1.512581 S    
C29   O13   1.220048 D    
O18   H14   1.014014 S    
N1    C22   1.369068 A    
C28   O11   1.222458 D    
O3    Cu1   1.971914 S    
C5    C6    1.387339 A    
C12   Cl3   1.787517 S    
C27   O10   1.395754 S    
C27   O9    1.221608 D    
C7    C8    1.404988 A    
O8    C4    1.289857 A    
O10   H10   1.013890 S    
C19   Cl4   1.792884 S    
O2    C1    1.288951 A    
Cu1   N2    2.017200 S    
O4    C2    1.290990 A    
C22   C23   1.420286 A    
C25   H8    1.096822 S    
C11   H2    1.108147 S    
C29   O14   1.398968 S    
O3    C2    1.292655 A    
C15   C31   1.476738 S    
C24   C25   1.478173 S    
C5    C12   1.502121 S    
C31   O18   1.397477 S    
C2    C6    1.443627 S    
C31   O17   1.222406 D    
C23   H6    1.080502 S    
C4    C9    1.463489 S    
C3    C17   1.462124 S    
C5    C10   1.374241 A    
C20   H4    1.112621 S    
C9    C10   1.397382 A    
Cu2   O6    1.975942 S    
Cu1   Cu2   2.685644 S    
Cu2   N1    2.018389 S    
C13   C20   1.494274 S    
O7    C4    1.302513 A    
Cu1   O5    1.988791 S    
C21   C24   1.413135 A    
O5    C3    1.293874 A    
C11   C12   1.532959 S    
C16   H3    1.079193 S    
C30   O16   1.397802 S    
C12   C30   1.517531 S    
O1    C1    1.302411 A    
C13   C14   1.399763 A    
O12   H11   1.013830 S    
O16   H13   1.013864 S    
C18   C19   1.515229 S    
O2    Cu2   1.988788 S    
C8    C9    1.429421 A    
C28   O12   1.399309 S    
C6    C7    1.401813 A    
C11   Cl2   1.797292 S    
O6    C3    1.299920 A    
