data_mof_unit_9863.cif
_audit_creation_date              2012-12-10T16:43:00-0500
_audit_creation_method            fapswitch 2.2
_symmetry_space_group_name_H-M    P1
_symmetry_Int_Tables_number       1
_space_group_crystal_system       triclinic
_cell_length_a                    7.456394
_cell_length_b                    8.727279
_cell_length_c                    12.969661
_cell_angle_alpha                 87.985837
_cell_angle_beta                  79.242203
_cell_angle_gamma                 102.680501
_cell_volume                      806.376186774

loop_
_atom_site_label
_atom_site_type_symbol
_atom_type_description
_atom_site_fract_x
_atom_site_fract_y
_atom_site_fract_z
_atom_type_partial_charge
C1    C     C_R   0.453225 0.200106 0.503152 0.812450
C2    C     C_R   0.546775 0.799893 0.496848 0.812450
C3    C     C_R   0.466450 0.495761 0.701400 0.788062
C4    C     C_R   0.533550 0.504239 0.298600 0.788062
C5    C     C_R   0.553089 0.508318 0.184962 -0.039007
C6    C     C_R   0.446911 0.491682 0.815038 -0.039006
C7    C     C_R   0.249399 0.452662 0.988853 -0.215025
C8    C     C_R   0.750601 0.547338 0.011147 -0.215025
C9    C     C_R   0.267808 0.457465 0.880306 -0.185680
C10   C     C_R   0.732192 0.542535 0.119694 -0.185680
C11   C     C_R   0.607570 0.521379 0.858774 -0.253279
C12   C     C_R   0.392430 0.478621 0.141226 -0.253278
C13   C     C_R   0.590239 0.517312 0.967238 0.173405
C14   C     C_R   0.409761 0.482688 0.032762 0.173405
C15   C     C_2   0.426487 0.033136 0.504499 0.274476
C16   C     C_2   0.573512 0.966864 0.495501 0.274476
Cu1   Cu    Cu3+1 0.686350 0.517570 0.488220 1.028319
Cu2   Cu    Cu3+1 0.313650 0.482430 0.511780 1.028319
H1    H     H_    0.253884 0.451957 0.191322 0.162488
H2    H     H_    0.746115 0.548043 0.808678 0.162488
H3    H     H_    0.858118 0.566431 0.152351 0.160846
H4    H     H_    0.141882 0.433568 0.847649 0.160846
H5    H     H_    0.110464 0.425270 0.038301 0.142172
H6    H     H_    0.889536 0.574730 0.961699 0.142172
H7    H     H_    0.933925 0.376764 0.583007 0.245153
H8    H     H_    0.066075 0.623236 0.416993 0.245153
N1    N     N_2   0.033570 0.455950 0.529530 -0.186794
N2    N     N_2   0.966430 0.544050 0.470470 -0.186793
O1    O     O_R   0.621060 0.286250 0.492350 -0.556689
O2    O     O_R   0.378940 0.713750 0.507650 -0.556689
O3    O     O_R   0.306310 0.256580 0.512240 -0.525353
O4    O     O_R   0.693690 0.743420 0.487760 -0.525353
O5    O     O_R   0.631800 0.512400 0.642670 -0.597188
O6    O     O_R   0.368200 0.487600 0.357330 -0.597188
O7    O     O_R   0.317060 0.482730 0.662570 -0.594905
O8    O     O_R   0.682940 0.517270 0.337430 -0.594905
F1    F     F_    0.246883 0.946913 0.515021 -0.633451
F2    F     F_    0.753117 0.053087 0.484979 -0.633451

loop_
_geom_bond_atom_site_label_1
_geom_bond_atom_site_label_2
_ccdc_geom_bond_type
C4    O8    A    
C8    C13   A    
C1    C15   S    
Cu1   O8    S    
H7    N1    S    
Cu1   O1    S    
Cu2   O7    S    
H8    N2    S    
C3    O7    A    
C2    O2    A    
C3    C6    S    
C6    C9    A    
C1    O1    A    
Cu1   Cu2   S    
C5    C10   A    
C13   C14   A    
C11   C13   A    
C6    C11   A    
Cu1   O5    S    
C7    H5    S    
C12   H1    S    
C2    O4    A    
C8    H6    S    
C12   C14   A    
Cu2   O6    S    
C10   H3    S    
Cu2   O2    S    
C11   H2    S    
C4    O6    A    
C9    H4    S    
C3    O5    A    
C15   C16   D    
C1    O3    A    
C2    C16   S    
C5    C12   A    
C8    C10   A    
N1    N2    D    
C7    C9    A    
Cu1   O4    S    
C15   F1    S    
Cu2   O3    S    
Cu1   N2    S    
C7    C14   A    
Cu2   N1    S    
C16   F2    S    
C4    C5    S    
