data_mof_unit_6443.cif
_audit_creation_date              2012-12-10T18:47:07-0500
_audit_creation_method            fapswitch 2.2
_symmetry_space_group_name_H-M    P1
_symmetry_Int_Tables_number       1
_space_group_crystal_system       triclinic
_cell_length_a                    10.71731
_cell_length_b                    9.959575
_cell_length_c                    14.909256
_cell_angle_alpha                 90.623571
_cell_angle_beta                  91.633761
_cell_angle_gamma                 89.902262
_cell_volume                      1590.66910275

loop_
_atom_site_label
_atom_site_type_symbol
_atom_type_description
_atom_site_fract_x
_atom_site_fract_y
_atom_site_fract_z
_atom_type_partial_charge
C1    C     C_R   0.260246 0.500085 0.500295 0.880046
C2    C     C_R   0.127587 0.500150 0.500530 -0.032301
C3    C     C_R   0.560890 0.072860 0.566923 -0.049539
C4    C     C_R   0.439288 0.927133 0.433001 -0.046102
C5    C     C_R   0.439356 0.070533 0.433005 -0.034424
C6    C     C_R   0.560629 0.929457 0.567006 -0.036190
C7    C     C_R   0.499414 0.499563 0.327186 0.878517
C8    C     C_R   0.500469 0.500394 0.672819 0.879904
C9    C     C_R   0.588832 0.576257 0.816165 -0.174166
C10   C     C_R   0.414048 0.420910 0.183794 -0.172476
C11   C     C_R   0.500756 0.500031 0.768329 -0.069698
C12   C     C_R   0.739743 0.499915 0.499516 0.880016
C13   C     C_R   0.500473 0.499080 0.231720 -0.074910
C14   C     C_R   0.415562 0.419043 0.811030 -0.222047
C15   C     C_R   0.587528 0.577822 0.189116 -0.215412
C16   C     C_R   0.415957 0.414953 0.904184 0.089427
C17   C     C_R   0.591742 0.576169 0.095986 0.088189
C18   C     C_R   0.503621 0.495201 0.953364 0.007175
C19   C     C_R   0.503925 0.496158 0.046761 0.004699
C20   C     C_R   0.590541 0.575345 0.908926 0.094045
C21   C     C_R   0.415245 0.418233 0.091133 0.097445
C22   C     C_R   0.329773 0.334769 0.949193 0.193578
C23   C     C_R   0.329142 0.338751 0.042690 -0.260148
C24   C     C_R   0.680418 0.653177 0.051017 0.212538
C25   C     C_3   0.291934 0.121092 0.876528 -0.711791
C26   C     C_3   0.881636 0.657375 0.127100 -0.783191
C27   C     C_2   0.628925 0.145764 0.639584 0.981616
C28   C     C_2   0.372037 0.854202 0.359979 0.977143
C29   C     C_2   0.371965 0.140505 0.360003 0.962571
C30   C     C_2   0.628110 0.859435 0.639952 0.964396
C31   C     C_R   0.677984 0.653118 0.957426 -0.265388
C32   C     C_R   0.064266 0.377985 0.504946 -0.172414
C33   C     C_R   0.935688 0.621998 0.494207 -0.173739
C34   C     C_R   0.936516 0.377780 0.503484 -0.157048
C35   C     C_R   0.063447 0.622201 0.495627 -0.158943
C36   C     C_R   0.872378 0.499843 0.498803 -0.033511
H1    H     H_    0.657272 0.633874 0.781038 0.161132
H2    H     H_    0.111294 0.717624 0.492865 0.208482
H3    H     H_    0.157659 0.243641 0.931381 0.229281
H4    H     H_    0.314592 0.062006 0.937711 0.243794
H5    H     H_    0.377263 0.131961 0.836731 0.287648
H6    H     H_    0.221164 0.065533 0.834956 0.241386
H7    H     H_    0.793650 0.819831 0.067686 0.239969
H8    H     H_    0.932774 0.622010 0.067440 0.238977
H9    H     H_    0.856247 0.569612 0.168129 0.246991
H10   H     H_    0.944194 0.723438 0.168530 0.254709
H11   H     H_    0.635348 0.202100 0.769981 0.339902
H12   H     H_    0.344431 0.364725 0.218756 0.160182
H13   H     H_    0.367092 0.797793 0.229592 0.338866
H14   H     H_    0.215537 0.237384 0.318881 0.320672
H15   H     H_    0.784771 0.762920 0.681004 0.321143
H16   H     H_    0.348494 0.361154 0.770950 0.187071
H17   H     H_    0.651996 0.638896 0.229251 0.192513
H18   H     H_    0.262227 0.278265 0.077524 0.157498
H19   H     H_    0.745181 0.713242 0.922600 0.156756
H20   H     H_    0.112797 0.282769 0.509715 0.208766
H21   H     H_    0.887137 0.717210 0.489481 0.209241
H22   H     H_    0.888682 0.282349 0.506204 0.208981
N1    N     N_R   0.500000 0.857200 0.500000 -0.163588
N2    N     N_R   0.500000 0.142800 0.500000 -0.163685
N3    N     N_2   0.242690 0.251317 0.901086 -0.326582
N4    N     N_2   0.771337 0.731702 0.099224 -0.300390
O1    O     O_R   0.316770 0.614620 0.499990 -0.602176
O2    O     O_R   0.579897 0.150676 0.725419 -0.793469
O3    O     O_2   0.270874 0.803212 0.373391 -0.647450
O4    O     O_R   0.422074 0.849263 0.274433 -0.768732
O5    O     O_2   0.415423 0.141119 0.285111 -0.613381
O6    O     O_R   0.254847 0.196519 0.374875 -0.812406
O7    O     O_2   0.584529 0.858316 0.714804 -0.620231
O8    O     O_R   0.745413 0.803876 0.625059 -0.811041
O9    O     O_R   0.683230 0.385380 0.500010 -0.601436
O10   O     O_R   0.683230 0.614620 0.500010 -0.603288
O11   O     O_R   0.316770 0.385380 0.499990 -0.603868
O12   O     O_R   0.499980 0.614680 0.367850 -0.613247
O13   O     O_R   0.500020 0.385320 0.632150 -0.614478
O14   O     O_R   0.500020 0.614680 0.632150 -0.607668
O15   O     O_R   0.499980 0.385320 0.367850 -0.606978
O16   O     O_2   0.730011 0.196538 0.625641 -0.642766
Zn1   Zn    Zn3+2 0.500000 0.653120 0.500000 1.007884
Zn2   Zn    Zn3+2 0.500000 0.346880 0.500000 1.007148

loop_
_geom_bond_atom_site_label_1
_geom_bond_atom_site_label_2
_ccdc_geom_bond_type
C2    C35   A    
O14   Zn1   S    
C3    C6    A    
C26   H8    S    
O1    Zn1   S    
C15   H17   S    
C19   C21   A    
C18   C19   A    
O10   Zn1   S    
C25   H4    S    
C11   C14   A    
C8    O14   A    
C33   C36   A    
C2    C32   A    
C1    C2    S    
C26   H9    S    
C17   C19   A    
C29   O5    D    
C21   C23   A    
C14   H16   S    
C33   H21   S    
H15   O8    S    
C12   C36   S    
O13   Zn2   S    
C34   C36   A    
C7    O15   A    
C3    N2    A    
C27   O16   D    
C12   O10   A    
C24   N4    S    
C1    O1    A    
O9    Zn2   S    
C30   O8    S    
C7    O12   A    
C5    C29   S    
C10   C21   A    
H3    N3    S    
C17   C24   A    
H13   O4    S    
C35   H2    S    
N1    Zn1   S    
H11   O2    S    
C8    O13   A    
C32   C34   A    
C28   O4    S    
C29   O6    S    
C9    C20   A    
C9    H1    S    
C25   N3    S    
C9    C11   A    
C6    C30   S    
C12   O9    A    
O12   Zn1   S    
C13   C15   A    
C10   H12   S    
C14   C16   A    
C25   H5    S    
C30   O7    D    
C23   H18   S    
O15   Zn2   S    
C15   C17   A    
N2    Zn2   S    
C16   C22   A    
C5    N2    A    
C6    N1    A    
C4    C5    A    
C10   C13   A    
C25   H6    S    
C1    O11   A    
C3    C27   S    
C28   O3    D    
C26   N4    S    
C24   C31   A    
C22   N3    S    
C8    C11   S    
C4    N1    A    
C33   C35   A    
O11   Zn2   S    
C18   C20   A    
C27   O2    S    
C26   H10   S    
C7    C13   S    
C16   C18   A    
C4    C28   S    
C34   H22   S    
C22   C23   A    
C31   H19   S    
H14   O6    S    
C32   H20   S    
H7    N4    S    
C20   C31   A    
