data_mof_unit_35312.cif
_audit_creation_date              2013-03-05T16:00:38-0500
_audit_creation_method            fapswitch 2.2
_symmetry_space_group_name_H-M    P1
_symmetry_Int_Tables_number       1
_space_group_crystal_system       triclinic
_cell_length_a                    10.715208
_cell_length_b                    14.800654
_cell_length_c                    14.925177
_cell_angle_alpha                 64.479926
_cell_angle_beta                  104.818954
_cell_angle_gamma                 102.17504
_cell_volume                      2051.22254857

loop_
_atom_site_label
_atom_site_type_symbol
_atom_site_description
_atom_site_fract_x
_atom_site_fract_y
_atom_site_fract_z
_atom_type_partial_charge
O1    O     O_R   0.455060 0.022100 0.338110 -0.598267
O2    O     O_R   0.512640 0.160150 0.379180 -0.588222
C1    C     C_R   0.474474 0.119929 0.312722 0.796672
O3    O     O_R   0.288900 0.930980 0.479450 -0.595948
O4    O     O_R   0.346480 0.069030 0.520520 -0.551434
C2    C     C_R   0.259997 0.002835 0.496183 0.823077
Cu1   Cu    Cu3+1 0.465900 0.918260 0.475680 1.044384
Cu2   Cu    Cu3+1 0.534100 0.081740 0.524320 0.990029
O5    O     O_R   0.487360 0.839850 0.620820 -0.488121
O6    O     O_R   0.544940 0.977900 0.661890 -0.590115
O7    O     O_R   0.653520 0.930970 0.479480 -0.532338
O8    O     O_R   0.711100 0.069020 0.520550 -0.606828
C3    C     C_R   0.518923 0.880598 0.687284 0.890465
C4    C     C_R   0.738855 0.002320 0.495903 0.795665
C5    C     C_3   0.031922 0.953635 0.425032 -0.395531
H1    H     H_    0.045878 0.872396 0.456828 0.207449
H2    H     H_    0.056387 0.986944 0.348365 0.227594
C6    C     C_3   0.888891 0.961865 0.418037 -0.344579
H3    H     H_    0.846719 0.011263 0.339721 0.202459
H4    H     H_    0.834369 0.886341 0.434345 0.256054
H5    H     H_    0.109827 0.863345 0.625878 0.166291
H6    H     H_    0.899285 0.860757 0.625000 0.210943
C7    C     C_3   0.091482 0.942482 0.602911 0.134662
C8    C     C_3   0.088736 0.115946 0.453311 0.210903
C9    C     C_3   0.121761 0.005130 0.494047 -0.096845
H7    H     H_    0.152676 0.153413 0.501886 0.161355
C10   C     C_3   0.876960 0.004313 0.493768 0.014999
C11   C     C_3   0.945826 0.940090 0.601366 -0.410773
C12   C     C_3   0.946474 0.114128 0.460522 -0.399368
H8    H     H_    0.891708 0.163717 0.387395 0.199427
H9    H     H_    0.947039 0.145047 0.516720 0.185054
H10   H     H_    0.933268 0.967846 0.656609 0.203526
C13   C     C_R   0.452256 0.189450 0.205650 -0.039084
C14   C     C_R   0.534356 0.813765 0.795349 -0.085877
C15   C     C_R   0.380068 0.222775 0.028366 -0.131747
C16   C     C_R   0.401155 0.154415 0.128823 -0.165988
C17   C     C_R   0.480189 0.293422 0.180916 -0.166843
C18   C     C_R   0.465292 0.363811 0.080025 0.085598
C19   C     C_R   0.412680 0.326736 0.003429 0.081734
C20   C     C_R   0.503904 0.469191 0.053179 0.024085
C21   C     C_R   0.481267 0.536602 0.949446 -0.024842
C22   C     C_R   0.442939 0.495157 0.874975 0.380715
C23   C     C_R   0.401596 0.392588 0.902395 -0.272857
C24   C     C_R   0.573225 0.508782 0.125522 -0.161628
C25   C     C_R   0.621835 0.609875 0.096616 -0.150022
C26   C     C_R   0.594039 0.676881 0.996245 0.097670
C27   C     C_R   0.512090 0.642657 0.923566 0.039438
C28   C     C_R   0.648046 0.777921 0.967395 -0.154247
C29   C     C_R   0.623918 0.844492 0.866422 -0.221508
C30   C     C_R   0.466210 0.716538 0.827647 0.395043
H11   H     H_    0.371465 0.362685 0.844388 0.188311
H12   H     H_    0.674934 0.920000 0.844029 0.171592
H13   H     H_    0.681299 0.635838 0.153520 0.170043
H14   H     H_    0.340995 0.194167 0.969808 0.156443
H15   H     H_    0.377098 0.074518 0.146273 0.166304
H16   H     H_    0.512906 0.317738 0.242175 0.151514
H17   H     H_    0.599734 0.463024 0.204790 0.142552
H18   H     H_    0.713821 0.804129 0.022003 0.170441
N1    N     N_R   0.585360 0.204570 0.560800 -0.188906
N2    N     N_R   0.414550 0.795430 0.439160 -0.257225
C31   C     C_R   0.721564 0.282372 0.666263 -0.270528
C32   C     C_R   0.687156 0.202203 0.636981 0.096602
C33   C     C_R   0.514096 0.284020 0.510251 0.029373
C34   C     C_R   0.543097 0.367987 0.536874 -0.021368
C35   C     C_R   0.649770 0.364918 0.616858 0.145215
C36   C     C_R   0.470680 0.453568 0.488689 0.052432
C37   C     C_R   0.512020 0.537035 0.517602 0.132921
C38   C     C_R   0.613734 0.525615 0.601935 -0.040166
C39   C     C_R   0.682107 0.442872 0.649252 -0.202440
C40   C     C_R   0.356225 0.457091 0.415842 -0.224600
C41   C     C_R   0.283462 0.538191 0.374476 -0.078722
C42   C     C_R   0.325342 0.622615 0.398913 0.015033
C43   C     C_R   0.444804 0.625975 0.466099 -0.106729
C44   C     C_R   0.250976 0.704567 0.356462 0.289190
C45   C     C_R   0.296362 0.788593 0.380258 -0.030288
C46   C     C_R   0.492552 0.719107 0.477476 0.507570
H19   H     H_    0.760163 0.439430 0.713013 0.171537
H20   H     H_    0.237531 0.850016 0.349940 0.174433
H21   H     H_    0.194131 0.534349 0.321654 0.207800
H22   H     H_    0.802794 0.279462 0.727766 0.154483
H23   H     H_    0.740824 0.137360 0.675392 0.127967
H24   H     H_    0.435942 0.279649 0.450030 0.158146
H25   H     H_    0.640476 0.577491 0.637035 0.249648
H26   H     H_    0.317202 0.396051 0.392062 0.181630
N3    N     N_R   0.175233 0.978967 0.678224 0.135211
O9    O     O_R   0.260688 0.923458 0.748148 -0.327825
O10   O     O_R   0.158172 0.061727 0.681888 -0.378666
Cl1   Cl    Cl    0.310334 0.695707 0.757448 -0.539070
N4    N     N_R   0.471416 0.551223 0.775552 0.130377
O11   O     O_R   0.396202 0.536029 0.698540 -0.355574
O12   O     O_R   0.582859 0.606166 0.764743 -0.374267
N5    N     N_R   0.628183 0.739950 0.512587 0.089315
O13   O     O_R   0.668056 0.750663 0.597800 -0.335349
O14   O     O_R   0.711734 0.725240 0.471814 -0.419662
Cl2   Cl    Cl    0.098784 0.704782 0.275474 -0.612680
N6    N     N_R   0.112122 0.176227 0.349615 0.115615
O15   O     O_R   0.212614 0.243996 0.334213 -0.404773
O16   O     O_R   0.029672 0.168019 0.271833 -0.365139

loop_
_geom_bond_atom_site_label_1
_geom_bond_atom_site_label_2
_geom_bond_distance
_ccdc_geom_bond_type
C5    C6    1.536408 S    
C10   C12   1.557644 S    
C21   C22   1.424114 A    
C39   H19   1.084807 S    
C15   C16   1.392393 A    
C41   H21   1.081967 S    
Cu1   Cu2   2.722481 S    
C36   C40   1.408882 A    
N3    O9    1.300871 A    
Cu1   O7    1.967641 S    
C17   C18   1.404922 A    
C8    H7    1.111133 S    
C8    N6    1.472545 S    
Cu2   N1    2.044961 S    
C18   C19   1.416407 A    
O7    C4    1.308616 A    
C5    C9    1.558328 S    
C2    C9    1.480658 S    
C1    C13   1.470060 S    
C31   H22   1.084026 S    
C5    H1    1.114085 S    
C13   C16   1.398192 A    
C5    H2    1.110851 S    
C6    H3    1.112569 S    
O5    C3    1.311483 A    
C8    C12   1.549236 S    
C17   H16   1.074576 S    
C38   C39   1.379791 A    
N1    C32   1.353215 A    
N6    O16   1.301770 A    
C40   C41   1.392770 A    
C37   C43   1.444737 A    
C4    C10   1.482114 S    
N4    O12   1.299683 A    
C40   H26   1.076115 S    
C30   Cl1   1.774391 S    
C36   C37   1.428058 A    
C25   H13   1.084461 S    
H6    C11   1.112632 S    
C15   H14   1.084127 S    
O3    Cu1   1.962140 S    
C27   C30   1.415887 A    
N3    O10   1.301571 A    
C26   C28   1.401533 A    
C14   C30   1.405517 A    
C44   C45   1.395142 A    
C33   H24   1.074965 S    
C37   C38   1.411866 A    
C11   H10   1.112935 S    
C8    C9    1.568583 S    
O3    C2    1.302563 A    
C19   C23   1.388812 A    
C25   C26   1.390198 A    
N2    C46   1.377962 A    
C13   C17   1.402385 A    
O1    C1    1.312976 A    
C34   C36   1.438033 A    
C15   C19   1.405162 A    
C12   H8    1.112692 S    
C24   H17   1.076059 S    
Cu2   O8    1.962141 S    
C29   H12   1.083251 S    
N6    O15   1.300300 A    
N5    O14   1.301648 A    
C21   C27   1.430506 A    
C7    C11   1.548115 S    
C46   N5    1.429162 S    
C42   C44   1.412394 A    
C28   C29   1.391941 A    
C32   H23   1.081899 S    
O8    C4    1.300400 A    
H5    C7    1.115672 S    
C43   C46   1.431917 A    
C22   C23   1.393580 A    
Cu1   N2    2.045320 S    
C24   C25   1.387877 A    
Cu1   O5    1.945216 S    
C26   C27   1.415239 A    
C20   C21   1.424879 A    
C14   C29   1.401389 A    
O1    Cu1   1.955922 S    
C38   H25   1.059749 S    
C44   Cl2   1.763820 S    
O2    Cu2   1.945216 S    
C6    C10   1.551858 S    
C42   C43   1.416361 A    
O6    C3    1.307574 A    
O4    Cu2   1.967641 S    
C28   H18   1.083855 S    
N2    C45   1.356457 A    
N1    C33   1.361864 A    
C22   N4    1.430903 S    
C34   C35   1.418051 A    
O2    C1    1.305405 A    
C3    C14   1.471418 S    
C12   H9    1.113529 S    
C16   H15   1.083067 S    
C18   C20   1.427755 A    
C23   H11   1.084697 S    
O4    C2    1.304624 A    
C35   C39   1.382503 A    
N5    O13   1.300933 A    
C6    H4    1.101320 S    
C7    C9    1.565144 S    
C31   C32   1.383734 A    
C45   H20   1.081651 S    
C33   C34   1.413634 A    
C31   C35   1.399351 A    
C20   C24   1.418535 A    
C41   C42   1.402928 A    
Cu2   O6    1.955922 S    
C7    N3    1.470739 S    
C10   C11   1.549642 S    
N4    O11   1.301414 A    
