data_mof_unit_11919.cif
_audit_creation_date              2012-12-11T15:26:52-0500
_audit_creation_method            fapswitch 2.2
_symmetry_space_group_name_H-M    P1
_symmetry_Int_Tables_number       1
_space_group_crystal_system       triclinic
_cell_length_a                    13.811007
_cell_length_b                    13.929051
_cell_length_c                    27.39741
_cell_angle_alpha                 90.078894
_cell_angle_beta                  90.044517
_cell_angle_gamma                 119.588409
_cell_volume                      4583.23698753

loop_
_atom_site_label
_atom_site_type_symbol
_atom_type_description
_atom_site_fract_x
_atom_site_fract_y
_atom_site_fract_z
_atom_type_partial_charge
C1    C     C_R   0.234166 0.787020 0.568562 0.541773
C2    C     C_1   0.696949 0.859311 0.860517 -0.060076
C3    C     C_1   0.120889 0.868112 0.853581 -0.059986
C4    C     C_1   0.122330 0.244096 0.852379 -0.059468
C5    C     C_1   0.621275 0.811749 0.659688 -0.072361
C6    C     C_1   0.181654 0.813753 0.657221 -0.073095
C7    C     C_1   0.182469 0.365606 0.656769 -0.073021
C8    C     C_1   0.596856 0.794382 0.617187 -0.013709
C9    C     C_1   0.201863 0.803840 0.615599 -0.012791
C10   C     C_1   0.194857 0.396991 0.615344 -0.013447
C11   C     C_R   0.071910 0.164517 0.941362 0.538050
C12   C     C_R   0.212760 0.446805 0.568549 0.544105
C13   C     C_R   0.778766 0.886674 0.949263 0.544370
C14   C     C_R   0.093066 0.925909 0.941421 0.532759
C15   C     C_R   0.606211 0.802471 0.383624 -0.014833
C16   C     C_R   0.191739 0.809956 0.386355 -0.017449
C17   C     C_R   0.185764 0.374662 0.387378 -0.021093
C18   C     C_R   0.583503 0.874152 0.356335 -0.154624
C19   C     C_R   0.107456 0.721932 0.360150 -0.142121
C20   C     C_R   0.268726 0.361260 0.363987 -0.150493
C21   C     C_R   0.607669 0.888644 0.307144 -0.191965
C22   C     C_R   0.088307 0.736131 0.311819 -0.164858
C23   C     C_R   0.552197 0.765075 0.568989 0.541351
C24   C     C_R   0.248224 0.310254 0.318378 -0.160771
C25   C     C_R   0.656851 0.833555 0.284389 0.039019
C26   C     C_R   0.153048 0.838306 0.289058 0.048004
C27   C     C_R   0.143850 0.269527 0.295973 0.045961
C28   C     C_R   0.232733 0.787807 0.431741 0.544930
C29   C     C_R   0.212171 0.445266 0.431155 0.547026
C30   C     C_R   0.553322 0.765981 0.431208 0.546096
C31   C     C_R   0.686420 0.765951 0.311804 0.271823
C32   C     C_R   0.231854 0.930178 0.315926 0.274350
C33   C     C_R   0.056896 0.273813 0.320868 0.271693
C34   C     C_3   0.696942 0.757698 0.787450 -0.221428
C35   C     C_R   0.661828 0.752383 0.361962 -0.120134
C36   C     C_R   0.248606 0.915283 0.365276 -0.121754
C37   C     C_R   0.079815 0.329432 0.365846 -0.116747
C38   C     C_R   0.640845 0.750900 0.202371 -0.081074
C39   C     C_R   0.239163 0.890267 0.206882 -0.076166
C40   C     C_R   0.047877 0.129239 0.230191 -0.052993
C41   C     C_R   0.666822 0.762940 0.153058 -0.135921
C42   C     C_R   0.230159 0.900227 0.156842 -0.129945
C43   C     C_R   0.029162 0.101965 0.180705 -0.144186
C44   C     C_R   0.741401 0.960871 0.160270 -0.141847
C45   C     C_3   0.230054 0.956568 0.780815 -0.224055
C46   C     C_R   0.028924 0.809917 0.164822 -0.134300
C47   C     C_R   0.175162 0.286076 0.159405 -0.102868
C48   C     C_R   0.718497 0.949111 0.209818 -0.139131
C49   C     C_R   0.038267 0.803091 0.214863 -0.134369
C50   C     C_R   0.195048 0.312860 0.208816 -0.121449
C51   C     C_R   0.672612 0.844596 0.231491 0.058769
C52   C     C_R   0.143455 0.845165 0.236229 0.063075
C53   C     C_R   0.130170 0.235349 0.244430 0.070348
C54   C     C_R   0.721822 0.868588 0.132406 0.015482
C55   C     C_R   0.125076 0.861726 0.135780 0.022537
C56   C     C_3   0.028379 0.247032 0.776775 -0.224889
C57   C     C_R   0.090851 0.181022 0.145179 0.022754
C58   C     C_R   0.066254 0.152510 0.093557 0.562189
C59   C     C_R   0.777434 0.884816 0.085712 0.540439
C60   C     C_R   0.115116 0.893836 0.086409 0.553485
C61   C     C_3   0.532290 0.802174 0.739611 -0.219110
C62   C     C_3   0.182909 0.742321 0.740094 -0.219630
C63   C     C_3   0.234603 0.438263 0.741046 -0.220869
C64   C     C_3   0.732425 0.945281 0.724845 -0.209789
C65   C     C_3   0.044035 0.803002 0.717755 -0.208382
C66   C     C_3   0.211066 0.252706 0.718321 -0.207393
C67   C     C_3   0.678207 0.744805 0.731611 -0.217355
C68   C     C_3   0.753080 0.958479 0.780957 -0.080544
C69   C     C_3   0.025680 0.814076 0.773009 -0.082049
C70   C     C_3   0.194942 0.219339 0.773062 -0.082816
C71   C     C_1   0.728137 0.870679 0.902218 -0.010865
C72   C     C_1   0.108382 0.892375 0.894223 -0.002765
C73   C     C_1   0.101677 0.209370 0.893388 -0.006882
C74   C     C_3   0.640982 0.826042 0.712550 0.053472
C75   C     C_3   0.163896 0.825081 0.708973 0.054951
C76   C     C_3   0.168378 0.334573 0.708281 0.055245
C77   C     C_3   0.551018 0.813683 0.795759 -0.217081
C78   C     C_3   0.246917 0.943581 0.726062 -0.218633
C79   C     C_3   0.169669 0.758252 0.795421 -0.213001
C80   C     C_3   0.217183 0.406018 0.795893 -0.213020
C81   C     C_3   0.673698 0.848278 0.807730 0.053626
C82   C     C_3   0.135232 0.847931 0.802231 0.055625
C83   C     C_3   0.141791 0.279274 0.801092 0.055782
C84   C     C_3   0.695156 0.605946 0.299504 -0.025201
C85   C     C_3   0.731568 0.551190 0.261166 -0.377590
C86   C     C_3   0.401686 0.089323 0.303635 -0.023824
C87   C     C_3   0.462446 0.174016 0.263791 -0.373582
C88   C     C_3   0.865889 0.161051 0.324122 -0.012104
C89   C     C_3   0.043826 0.279460 0.722243 -0.218869
C90   C     C_3   0.767961 0.181793 0.319151 -0.379902
C91   C     C_1   0.741881 0.052110 0.799665 0.163675
C92   C     C_1   0.932241 0.709783 0.791597 0.158155
C93   C     C_1   0.301802 0.241404 0.795113 0.160927
Cr1   Cr    Cr6+3 0.164410 0.584450 0.499910 1.018455
Cr2   Cr    Cr6+3 0.415550 0.579960 0.499910 1.018311
Cr3   Cr    Cr6+3 0.420040 0.835590 0.499910 1.014137
Cr4   Cr    Cr6+3 0.156760 0.076070 0.017830 1.036590
Cr5   Cr    Cr6+3 0.923930 0.080690 0.017830 1.022579
Cr6   Cr    Cr6+3 0.919310 0.843240 0.017830 1.021216
H1    H     H_    0.529796 0.875611 0.810272 0.135083
H2    H     H_    0.784337 0.780460 0.795700 0.131435
H3    H     H_    0.209558 0.022968 0.785701 0.118893
H4    H     H_    0.972614 0.156766 0.779827 0.109390
H5    H     H_    0.539899 0.913477 0.372060 0.142275
H6    H     H_    0.061688 0.640023 0.375744 0.143768
H7    H     H_    0.351367 0.395630 0.379557 0.134222
H8    H     H_    0.599413 0.668978 0.218054 0.124059
H9    H     H_    0.320766 0.919442 0.222815 0.121533
H10   H     H_    0.997735 0.068292 0.257288 0.129867
H11   H     H_    0.649442 0.690644 0.131692 0.120221
H12   H     H_    0.106675 0.678604 0.811739 0.139947
H13   H     H_    0.304914 0.940933 0.134868 0.117629
H14   H     H_    0.966114 0.019581 0.170083 0.105266
H15   H     H_    0.583366 0.939482 0.286345 0.107188
H16   H     H_    0.027806 0.665219 0.291266 0.115603
H17   H     H_    0.315274 0.306673 0.299544 0.119838
H18   H     H_    0.741485 0.022247 0.231472 0.115462
H19   H     H_    0.963832 0.768355 0.237074 0.145840
H20   H     H_    0.258504 0.395287 0.219302 0.105272
H21   H     H_    0.783422 0.043152 0.144839 0.134862
H22   H     H_    0.946918 0.781529 0.149394 0.140290
H23   H     H_    0.299167 0.433859 0.813759 0.136676
H24   H     H_    0.224057 0.347615 0.132294 0.132332
H25   H     H_    0.504374 0.860547 0.727005 0.119108
H26   H     H_    0.122084 0.656109 0.729229 0.121783
H27   H     H_    0.324931 0.478637 0.732205 0.117459
H28   H     H_    0.682784 0.700635 0.383861 0.115983
H29   H     H_    0.309232 0.984239 0.386656 0.118144
H30   H     H_    0.015855 0.341840 0.382648 0.133673
H31   H     H_    0.811291 0.964207 0.706005 0.093944
H32   H     H_    0.030086 0.863616 0.696838 0.096126
H33   H     H_    0.164231 0.177391 0.695413 0.096768
H34   H     H_    0.464426 0.717248 0.730835 0.108413
H35   H     H_    0.707187 0.004536 0.710491 0.128326
H36   H     H_    0.983320 0.719678 0.703374 0.127618
H37   H     H_    0.300123 0.290924 0.707253 0.128741
H38   H     H_    0.840170 0.977881 0.788072 0.079259
H39   H     H_    0.002033 0.879301 0.777583 0.077979
H40   H     H_    0.136119 0.129188 0.775261 0.077875
H41   H     H_    0.613690 0.658353 0.722966 0.129627
H42   H     H_    0.333947 0.961553 0.719823 0.127585
H43   H     H_    0.011488 0.337224 0.715194 0.130107
H44   H     H_    0.756621 0.760656 0.713239 0.119113
H45   H     H_    0.267748 0.754603 0.733288 0.107009
H46   H     H_    0.234780 0.004767 0.704667 0.117005
H47   H     H_    0.994256 0.204539 0.699444 0.114519
H48   H     H_    0.642131 0.677300 0.805609 0.144235
H49   H     H_    0.309296 0.981993 0.800849 0.143290
H50   H     H_    0.987347 0.287992 0.795875 0.150189
H51   H     H_    0.602330 0.564244 0.298698 0.114824
H52   H     H_    0.723333 0.593007 0.335673 0.134451
H53   H     H_    0.822957 0.584943 0.263137 0.148119
H54   H     H_    0.689631 0.460821 0.267788 0.094829
H55   H     H_    0.709022 0.565936 0.224110 0.151665
H56   H     H_    0.206940 0.499661 0.733819 0.109896
H57   H     H_    0.436708 0.032255 0.304716 0.109361
H58   H     H_    0.417992 0.134120 0.338952 0.131898
H59   H     H_    0.431329 0.233749 0.261960 0.154064
H60   H     H_    0.553139 0.219692 0.271776 0.087412
H61   H     H_    0.448891 0.132064 0.227904 0.154580
H62   H     H_    0.882399 0.158573 0.363802 0.115183
H63   H     H_    0.841998 0.078382 0.308903 0.146841
H64   H     H_    0.743171 0.176382 0.280247 0.150281
H65   H     H_    0.695965 0.119642 0.340454 0.093900
H66   H     H_    0.791520 0.265250 0.333322 0.152536
H67   H     H_    0.494139 0.733546 0.813623 0.112355
H68   H     H_    0.249833 0.783505 0.814582 0.113591
H69   H     H_    0.177992 0.449301 0.814524 0.118258
N1    N     N_1   0.733160 0.125426 0.814324 -0.296005
N2    N     N_1   0.859353 0.627998 0.806152 -0.298843
N3    N     N_1   0.385381 0.258618 0.812379 -0.291507
O1    O     O_R   0.137310 0.468260 0.552980 -0.509903
O2    O     O_R   0.139940 0.470480 0.446230 -0.523840
O3    O     O_R   0.529520 0.669460 0.446230 -0.521715
O4    O     O_R   0.330540 0.860060 0.446230 -0.526368
O5    O     O_R   0.176560 0.690850 0.450770 -0.502025
O6    O     O_R   0.309150 0.485710 0.450770 -0.500141
O7    O     O_R   0.514290 0.823440 0.450770 -0.503570
O8    O     O_3   0.333333 0.666667 0.499990 -0.263116
O9    O     O_3   0.000000 0.000000 0.017910 -0.291619
O10   O     O_R   0.149710 0.171070 0.967700 -0.486521
O11   O     O_R   0.828930 0.978640 0.967700 -0.514092
O12   O     O_R   0.531740 0.669050 0.552980 -0.509247
O13   O     O_R   0.021360 0.850290 0.967700 -0.477572
O14   O     O_R   0.178510 0.985930 0.071830 -0.513616
O15   O     O_R   0.014070 0.192580 0.071830 -0.491763
O16   O     O_R   0.807420 0.821490 0.071830 -0.517208
O17   O     O_R   0.147830 0.173300 0.066650 -0.479599
O18   O     O_R   0.826700 0.974530 0.066650 -0.521134
O19   O     O_R   0.025470 0.852170 0.066650 -0.496187
O20   O     O_3   0.744648 0.720197 0.289366 -0.566820
O21   O     O_3   0.286119 0.033161 0.293472 -0.555626
O22   O     O_3   0.956936 0.242033 0.297043 -0.561696
O23   O     O_R   0.330950 0.862690 0.552980 -0.508624
O24   O     O_R   0.180530 0.983530 0.965090 -0.498815
O25   O     O_R   0.016470 0.197000 0.965090 -0.479104
O26   O     O_R   0.803000 0.819470 0.965090 -0.505774
O27   O     O_R   0.174120 0.688790 0.549730 -0.499048
O28   O     O_R   0.311210 0.485330 0.549730 -0.499055
O29   O     O_R   0.514670 0.825880 0.549730 -0.497187

loop_
_geom_bond_atom_site_label_1
_geom_bond_atom_site_label_2
_ccdc_geom_bond_type
C25   C31   A    
Cr4   O17   S    
C44   C48   A    
C14   O24   A    
C26   C32   A    
C60   O14   A    
Cr3   O4    S    
C58   O15   A    
C18   C21   A    
C17   C29   S    
C15   C18   A    
C45   C82   S    
C11   O10   A    
C24   C27   A    
C67   H44   S    
C17   C20   A    
C79   C82   S    
Cr6   O16   S    
C61   H34   S    
C6    C75   S    
C12   O1    A    
C80   H23   S    
C27   C33   A    
Cr4   O14   S    
C46   C49   A    
C13   O26   A    
C77   H1    S    
C61   H25   S    
C68   C81   S    
C64   C68   S    
Cr2   O3    S    
Cr5   O18   S    
C56   C89   S    
C88   H63   S    
C65   H36   S    
C63   C76   S    
C44   H21   S    
C89   H43   S    
C45   H49   S    
C31   O20   S    
C5    C74   S    
C68   C91   S    
C87   H61   S    
C32   O21   S    
C84   O20   S    
C7    C10   T    
C38   H8    S    
C86   H57   S    
C89   H47   S    
C42   H13   S    
C69   C82   S    
C78   H46   S    
Cr1   O1    S    
Cr2   O6    S    
C40   C43   A    
C1    O27   A    
C37   H30   S    
C13   O11   A    
C46   C55   A    
C46   H22   S    
C59   O16   A    
C45   C78   S    
C34   C81   S    
C39   C42   A    
C69   C92   S    
C7    C76   S    
C66   H33   S    
C16   C28   S    
C76   C89   S    
C63   C80   S    
C85   H55   S    
Cr3   O23   S    
C39   C52   A    
C33   O22   S    
C70   H40   S    
C29   O6    A    
C55   C60   S    
C68   H38   S    
C36   H29   S    
C8    C23   S    
C80   C83   S    
C75   C78   S    
C15   C35   A    
C65   H32   S    
C47   C50   A    
C20   H7    S    
C54   C59   S    
C48   C51   A    
C39   H9    S    
C64   H35   S    
C34   H2    S    
C91   N1    T    
C58   O17   A    
C50   H20   S    
C50   C53   A    
C20   C24   A    
C62   C79   S    
C70   C93   S    
C1    C9    S    
C84   C85   S    
C56   H4    S    
C38   C41   A    
C11   C73   S    
C78   H42   S    
C92   N2    T    
C86   C87   S    
C28   O5    A    
Cr4   O9    S    
C17   C37   A    
C38   C51   A    
C13   C71   S    
C62   H26   S    
C77   H67   S    
C23   O29   A    
C33   C37   A    
C90   H65   S    
Cr1   O27   S    
Cr5   O11   S    
C25   C51   S    
C23   O12   A    
C30   O3    A    
C70   C83   S    
C26   C52   S    
C42   C55   A    
C47   C57   A    
C34   H48   S    
C47   H24   S    
C49   H19   S    
C15   C30   S    
C77   C81   S    
C49   C52   A    
C66   C76   S    
Cr6   O26   S    
C3    C82   S    
C30   O7    A    
Cr5   O25   S    
C67   C74   S    
C85   H54   S    
C11   O25   A    
C35   H28   S    
C67   H41   S    
C4    C73   T    
C40   H10   S    
C10   C12   S    
C66   H37   S    
C19   H6    S    
Cr2   O8    S    
C22   H16   S    
C88   C90   S    
C24   H17   S    
C61   C77   S    
C41   H11   S    
C90   H66   S    
C31   C35   A    
C62   C75   S    
C59   O18   A    
C5    C8    T    
Cr5   O9    S    
C2    C71   T    
C32   C36   A    
C56   C83   S    
Cr6   O13   S    
C69   H39   S    
Cr3   O29   S    
C21   C25   A    
C93   N3    T    
C29   O2    A    
C60   O19   A    
C14   C72   S    
C88   O22   S    
C18   H5    S    
C62   H45   S    
C21   H15   S    
C34   C67   S    
Cr6   O19   S    
C14   O13   A    
C27   C53   S    
C28   O4    A    
Cr4   O10   S    
C48   H18   S    
C61   C74   S    
C86   O21   S    
C65   C75   S    
C87   H59   S    
C79   H12   S    
C90   H64   S    
C79   H68   S    
Cr4   O24   S    
C3    C72   T    
C85   H53   S    
C63   H56   S    
Cr6   O9    S    
Cr5   O15   S    
C43   H14   S    
Cr2   O12   S    
C57   C58   S    
C66   C70   S    
C4    C83   S    
C16   C19   A    
C65   C69   S    
C12   O28   A    
C87   H60   S    
C1    O23   A    
Cr1   O8    S    
Cr3   O8    S    
C86   H58   S    
C41   C54   A    
C63   H27   S    
C45   H3    S    
C43   C57   A    
Cr1   O2    S    
C40   C53   A    
C84   H52   S    
C44   C54   A    
C6    C9    T    
Cr2   O28   S    
C19   C22   A    
C22   C26   A    
C64   H31   S    
C64   C74   S    
C2    C81   S    
Cr3   O7    S    
C56   H50   S    
C80   H69   S    
C16   C36   A    
C88   H62   S    
Cr1   O5    S    
C84   H51   S    
