data_mof_unit_22841.cif
_audit_creation_date              2013-03-05T16:11:56-0500
_audit_creation_method            fapswitch 2.2
_symmetry_space_group_name_H-M    P1
_symmetry_Int_Tables_number       1
_space_group_crystal_system       triclinic
_cell_length_a                    15.735152
_cell_length_b                    10.635622
_cell_length_c                    9.940738
_cell_angle_alpha                 89.06731
_cell_angle_beta                  90.272937
_cell_angle_gamma                 92.240591
_cell_volume                      1662.1072952

loop_
_atom_site_label
_atom_site_type_symbol
_atom_site_description
_atom_site_fract_x
_atom_site_fract_y
_atom_site_fract_z
_atom_type_partial_charge
O1    O     O_R   0.499990 0.316750 0.614620 -0.541799
O2    O     O_R   0.500010 0.683250 0.385380 -0.544331
O3    O     O_R   0.500000 0.316780 0.385290 -0.583036
O4    O     O_R   0.500000 0.683220 0.614710 -0.587723
C1    C     C_R   0.498593 0.260613 0.501110 1.006617
C2    C     C_R   0.501926 0.739372 0.498905 0.999381
O5    O     O_R   0.376780 0.499970 0.614640 -0.573940
O6    O     O_R   0.623220 0.500030 0.385360 -0.572685
O7    O     O_R   0.376780 0.500000 0.385310 -0.604851
O8    O     O_R   0.623220 0.500000 0.614690 -0.642849
C3    C     C_R   0.338315 0.501518 0.499906 0.943177
C4    C     C_R   0.661707 0.499871 0.500357 0.935877
Zn1   Zn    Zn3+2 0.500000 0.499980 0.653120 1.093612
Zn2   Zn    Zn3+2 0.500000 0.500020 0.346880 1.110565
C5    C     C_3   0.971427 0.450912 0.612692 0.257361
C6    C     C_3   0.028878 0.570303 0.394014 0.251513
C7    C     C_3   0.024312 0.392937 0.503050 0.226082
C8    C     C_3   0.975884 0.628287 0.503660 0.240071
H1    H     H_    0.943512 0.403699 0.300468 0.227087
H2    H     H_    0.056879 0.617588 0.706310 0.226800
C9    C     C_1   0.249832 0.505549 0.500589 -0.048603
C10   C     C_1   0.750336 0.504089 0.501355 -0.028610
C11   C     C_3   0.031594 0.569645 0.615304 -0.345270
C12   C     C_3   0.968796 0.451612 0.391502 -0.366102
C13   C     C_3   0.084263 0.510223 0.502920 -0.104925
C14   C     C_3   0.916082 0.510942 0.503728 -0.099242
C15   C     C_1   0.174831 0.508397 0.501784 0.162470
C16   C     C_1   0.825457 0.508146 0.502682 0.162082
C17   C     C_R   0.423573 0.059390 0.470414 0.245433
C18   C     C_R   0.577392 0.940515 0.529412 0.248445
C19   C     C_R   0.425830 0.929394 0.465725 0.202408
C20   C     C_R   0.575099 0.070610 0.534141 0.202391
C21   C     C_R   0.502444 0.871976 0.495329 -0.324657
C22   C     C_R   0.498399 0.127985 0.504689 -0.330515
C23   C     C_R   0.542857 0.593395 0.070113 0.162395
C24   C     C_R   0.457232 0.406723 0.930040 0.122225
C25   C     C_R   0.544874 0.591269 0.926814 0.398024
C26   C     C_R   0.451010 0.413210 0.074098 0.415705
N1    N     N_R   0.499980 0.499970 0.857200 -0.200067
N2    N     N_R   0.500020 0.500030 0.142800 -0.192414
N3    N     N_R   0.048622 0.262087 0.504983 0.248607
O9    O     O_R   0.990085 0.172351 0.504668 -0.226400
O10   O     O_R   0.128287 0.234042 0.506105 -0.289581
N4    N     N_R   0.951104 0.758862 0.501320 0.246104
O11   O     O_R   0.009271 0.849097 0.502721 -0.226887
O12   O     O_R   0.871336 0.786127 0.496430 -0.288959
N5    N     N_R   0.941497 0.382805 0.732891 0.246441
O13   O     O_R   0.996213 0.337854 0.817577 -0.317884
O14   O     O_R   0.860565 0.366650 0.756498 -0.338055
N6    N     N_R   0.058604 0.638707 0.273901 0.247857
O15   O     O_R   0.003743 0.682205 0.188547 -0.319102
O16   O     O_R   0.139479 0.658317 0.252121 -0.327099
N7    N     N_R   0.346096 0.121203 0.439202 0.239318
O17   O     O_R   0.299179 0.084914 0.337779 -0.286399
O18   O     O_R   0.318517 0.206305 0.518745 -0.341062
N8    N     N_R   0.655000 0.878619 0.559991 0.234376
O19   O     O_R   0.702718 0.915394 0.660281 -0.298115
O20   O     O_R   0.681718 0.792253 0.481297 -0.348941
N9    N     N_R   0.349441 0.855176 0.439547 0.224942
O21   O     O_R   0.284416 0.861134 0.519342 -0.285232
O22   O     O_R   0.342503 0.789179 0.330710 -0.314487
N10   N     N_R   0.651499 0.144954 0.559915 0.225316
O23   O     O_R   0.716793 0.137717 0.480976 -0.281770
O24   O     O_R   0.658138 0.212474 0.667673 -0.314550
N11   N     N_R   0.579261 0.701008 0.136869 0.242424
O25   O     O_R   0.557828 0.813324 0.099727 -0.292591
O26   O     O_R   0.641624 0.689102 0.221452 -0.341992
N12   N     N_R   0.422227 0.298339 0.863057 0.233507
O27   O     O_R   0.445884 0.187025 0.899758 -0.305337
O28   O     O_R   0.356401 0.307980 0.784716 -0.336081
O29   O     O_3   0.591031 0.684876 0.857769 -0.562032
C27   C     C_3   0.675711 0.647891 0.837402 0.131664
H3    H     H_    0.692292 0.672803 0.731933 0.220612
H4    H     H_    0.684769 0.544686 0.850724 0.138090
C28   C     C_3   0.738974 0.720624 0.927443 -0.325739
H5    H     H_    0.722005 0.820924 0.931957 0.305804
H6    H     H_    0.737087 0.678987 0.030077 0.255142
C29   C     C_3   0.829925 0.713369 0.875684 -0.757516
H7    H     H_    0.848162 0.613750 0.870086 0.269351
H8    H     H_    0.874431 0.763656 0.945250 0.305609
H9    H     H_    0.835876 0.758172 0.774325 0.302341
O30   O     O_3   0.395491 0.333962 0.147669 -0.570430
C30   C     C_3   0.311774 0.330771 0.092238 0.170430
H10   H     H_    0.297040 0.233858 0.056424 0.232733
H11   H     H_    0.302436 0.397960 0.006625 0.128917
C31   C     C_3   0.246836 0.363885 0.198312 -0.379349
H12   H     H_    0.258512 0.311557 0.293285 0.297214
H13   H     H_    0.253389 0.466247 0.217824 0.251061
C32   C     C_3   0.156045 0.333503 0.150924 -0.704671
H14   H     H_    0.142263 0.386580 0.056659 0.277466
H15   H     H_    0.110629 0.360710 0.229234 0.260133
H16   H     H_    0.146703 0.231039 0.133216 0.296701

loop_
_geom_bond_atom_site_label_1
_geom_bond_atom_site_label_2
_geom_bond_distance
_ccdc_geom_bond_type
C26   N2    1.368798 A    
N3    O9    1.300228 A    
C8    C14   1.533360 S    
C5    N5    1.457635 S    
C28   H5    1.111407 S    
N5    O14   1.300293 A    
N7    O17   1.301455 A    
O5    C3    1.288806 A    
O1    C1    1.284851 A    
C23   C25   1.425566 A    
C12   C14   1.550296 S    
C29   H8    1.110333 S    
C23   N11   1.431184 S    
C4    C10   1.393551 S    
N8    O19   1.301264 A    
C19   N9    1.437051 S    
O4    Zn1   1.979814 S    
N10   O24   1.300838 A    
N5    O13   1.300257 A    
N12   O27   1.300919 A    
N11   O26   1.297812 A    
N6    O16   1.300088 A    
C19   C21   1.400424 A    
C32   H15   1.108696 S    
C5    C11   1.548874 S    
C9    C15   1.181838 T    
N9    O21   1.301742 A    
C6    C12   1.547716 S    
C10   C16   1.181156 T    
C26   O30   1.391723 S    
N3    O10   1.299794 A    
O2    C2    1.284900 A    
C27   C28   1.531109 S    
N4    O12   1.299722 A    
N7    O18   1.300035 A    
C25   N1    1.372727 A    
N9    O22   1.301065 A    
C7    C12   1.546924 S    
C8    C11   1.549220 S    
C27   H4    1.118038 S    
C31   H12   1.106370 S    
C5    C14   1.533389 S    
C18   N8    1.438697 S    
C17   C22   1.404175 A    
C3    C9    1.394688 S    
C31   C32   1.526348 S    
C20   C22   1.401083 A    
O7    Zn2   1.977940 S    
N10   O23   1.301196 A    
C8    N4    1.456847 S    
C28   H6    1.105651 S    
C30   H10   1.111475 S    
H2    C11   1.110154 S    
O6    C4    1.291116 A    
C1    C22   1.410340 S    
N6    O15   1.300246 A    
C32   H16   1.110711 S    
O7    C3    1.293143 A    
O3    Zn2   1.979815 S    
O8    C4    1.290419 A    
O4    C2    1.288154 A    
C30   H11   1.115243 S    
N11   O25   1.301141 A    
C25   O29   1.384095 S    
O1    Zn1   1.992087 S    
N4    O11   1.300224 A    
C6    C13   1.533579 S    
C5    C7    1.526843 S    
O6    Zn2   1.974465 S    
C18   C21   1.404979 A    
C29   H7    1.110781 S    
C24   N1    1.374551 A    
C6    N6    1.457449 S    
C27   H3    1.107090 S    
O3    C1    1.288305 A    
O8    Zn1   1.977938 S    
C24   N12   1.430871 S    
C13   C15   1.426103 S    
C14   C16   1.425147 S    
C2    C21   1.409897 S    
C7    C13   1.534234 S    
C24   C26   1.438818 A    
H1    C12   1.110237 S    
C20   N10   1.437136 S    
O29   C27   1.420321 S    
C17   C19   1.385978 A    
C18   C20   1.387092 A    
C29   H9    1.110329 S    
C17   N7    1.437747 S    
N8    O20   1.299680 A    
C23   N2    1.375293 A    
C31   H13   1.109680 S    
C11   C13   1.551480 S    
O2    Zn2   1.992087 S    
C28   C29   1.528323 S    
C7    N3    1.457437 S    
Zn1   N1    2.028706 S    
Zn2   N2    2.028706 S    
O5    Zn1   1.974468 S    
C30   C31   1.526591 S    
C6    C8    1.527882 S    
O30   C30   1.424866 S    
N12   O28   1.299185 A    
C32   H14   1.110941 S    
