data_mof_unit_45645.cif
_audit_creation_date              2012-12-11T14:49:49-0500
_audit_creation_method            fapswitch 2.2
_symmetry_space_group_name_H-M    P1
_symmetry_Int_Tables_number       1
_space_group_crystal_system       triclinic
_cell_length_a                    16.935691
_cell_length_b                    7.080047
_cell_length_c                    16.916259
_cell_angle_alpha                 89.945408
_cell_angle_beta                  100.399835
_cell_angle_gamma                 90.263074
_cell_volume                      1995.00945909

loop_
_atom_site_label
_atom_site_type_symbol
_atom_type_description
_atom_site_fract_x
_atom_site_fract_y
_atom_site_fract_z
_atom_type_partial_charge
O1    O     O_R   0.579510 0.506290 0.439030 -0.534312
O2    O     O_R   0.420490 0.006290 0.560970 -0.533782
O3    O     O_R   0.412540 0.170090 0.405290 -0.521132
O4    O     O_R   0.587460 0.670090 0.594710 -0.521162
C1    C     C_R   0.384350 0.345805 0.383033 0.665908
C2    C     C_R   0.615701 0.846236 0.616877 0.666052
O5    O     O_R   0.578390 0.176230 0.429330 -0.544293
O6    O     O_R   0.421610 0.676230 0.570670 -0.544258
O7    O     O_R   0.587530 0.011250 0.585190 -0.540179
O8    O     O_R   0.412470 0.511250 0.414810 -0.540380
C3    C     C_R   0.604808 0.344197 0.414071 0.708660
C4    C     C_R   0.395172 0.843536 0.585935 0.709555
O9    O     O_3   0.502800 0.340940 0.551110 -0.361586
O10   O     O_3   0.497200 0.840940 0.448890 -0.362149
V1    V     V_3+5 0.499480 0.064020 0.490520 1.464660
V2    V     V_3+5 0.500520 0.564020 0.509480 1.464017
C5    C     C_R   0.160970 0.923861 0.854250 -0.154375
C6    C     C_R   0.837687 0.424293 0.144439 -0.147252
C7    C     C_R   0.330920 0.840801 0.635313 -0.081840
C8    C     C_R   0.668969 0.342931 0.364613 -0.083225
C9    C     C_R   0.222358 0.666274 0.680163 -0.150283
C10   C     C_R   0.775981 0.168122 0.318465 -0.146274
C11   C     C_R   0.278250 0.685293 0.629238 -0.140924
C12   C     C_R   0.720571 0.186534 0.369753 -0.136206
C13   C     C_R   0.325167 0.980538 0.692607 -0.231710
C14   C     C_R   0.675253 0.484020 0.307731 -0.232037
C15   C     C_R   0.270200 0.960151 0.745732 0.140635
C16   C     C_R   0.729858 0.464219 0.254265 0.145915
C17   C     C_R   0.218297 0.800548 0.740737 0.081138
C18   C     C_R   0.781074 0.304920 0.259132 0.086231
C19   C     C_R   0.162672 0.782909 0.794787 -0.064563
C20   C     C_R   0.836286 0.286878 0.205155 -0.060326
C21   C     C_R   0.212381 0.081067 0.856085 -0.161639
C22   C     C_R   0.787610 0.583249 0.143054 -0.142553
C23   C     C_R   0.266367 0.098496 0.803505 -0.143854
C24   C     C_R   0.734275 0.602389 0.196324 -0.175392
H1    H     H_    0.209950 0.194943 0.898054 0.164025
H2    H     H_    0.790866 0.697370 0.101281 0.162029
H3    H     H_    0.183131 0.544394 0.671601 0.160799
H4    H     H_    0.813386 0.043482 0.324548 0.143054
H5    H     H_    0.304717 0.222427 0.807596 0.127793
H6    H     H_    0.696821 0.726991 0.192509 0.122617
H7    H     H_    0.280555 0.576252 0.584816 0.151213
H8    H     H_    0.717454 0.075762 0.413342 0.149533
H9    H     H_    0.365614 0.100904 0.698052 0.124396
H10   H     H_    0.635374 0.604527 0.302717 0.124872
C25   C     C_3   0.738198 0.793571 0.839333 -0.041622
C26   C     C_3   0.261869 0.295289 0.160115 -0.038493
H11   H     H_    0.762296 0.647540 0.842792 0.202782
H12   H     H_    0.237643 0.148637 0.156038 0.202495
C27   C     C_3   0.661669 0.788098 0.768568 -0.034007
C28   C     C_3   0.338397 0.289832 0.230945 -0.035839
H13   H     H_    0.649753 0.634638 0.756869 0.174240
H14   H     H_    0.350298 0.136384 0.242024 0.175579
H15   H     H_    0.870682 0.689903 0.760161 0.224573
H16   H     H_    0.129511 0.185896 0.238385 0.198192
H17   H     H_    0.750323 0.604601 0.683170 0.182628
H18   H     H_    0.249949 0.101296 0.315689 0.182684
C29   C     C_3   0.834394 0.815538 0.740870 -0.349741
C30   C     C_3   0.165802 0.311382 0.258544 -0.366142
C31   C     C_3   0.773721 0.120532 0.783883 -0.097740
C32   C     C_3   0.226421 0.619547 0.216906 -0.095501
C33   C     C_3   0.808693 0.918474 0.814442 -0.085405
C34   C     C_3   0.191465 0.417907 0.185471 -0.071295
C35   C     C_3   0.685410 0.869796 0.689288 -0.043500
C36   C     C_3   0.314652 0.368707 0.310583 -0.044544
C37   C     C_3   0.760865 0.757892 0.676650 -0.358349
C38   C     C_3   0.239267 0.254147 0.322686 -0.349147
C39   C     C_3   0.710623 0.087106 0.702516 -0.212656
C40   C     C_3   0.289336 0.585676 0.298141 -0.212389
H19   H     H_    0.655030 0.164149 0.706807 0.150101
H20   H     H_    0.344895 0.664394 0.294156 0.150267
H21   H     H_    0.875405 0.902626 0.712273 0.239260
H22   H     H_    0.124400 0.394252 0.287723 0.243209
H23   H     H_    0.773909 0.775510 0.615123 0.196741
H24   H     H_    0.226109 0.269894 0.384231 0.195863
O11   O     O_R   0.087500 0.266000 0.085220 -0.538724
O12   O     O_R   0.912500 0.766000 0.914780 -0.529518
O13   O     O_R   0.921600 0.589950 0.070670 -0.537658
O14   O     O_R   0.078400 0.089950 0.929330 -0.553630
C41   C     C_R   0.897019 0.422538 0.088479 0.723537
C42   C     C_R   0.102661 0.922739 0.911220 0.737709
O15   O     O_R   0.087460 0.596020 0.094710 -0.506311
O16   O     O_R   0.912540 0.096020 0.905290 -0.509239
O17   O     O_R   0.079520 0.760970 0.939020 -0.520089
O18   O     O_R   0.920480 0.260970 0.060980 -0.515726
C43   C     C_R   0.117040 0.427808 0.116899 0.684635
C44   C     C_R   0.883046 0.927670 0.883035 0.707188
O19   O     O_3   0.997180 0.425140 0.948910 -0.354068
O20   O     O_3   0.002820 0.925140 0.051090 -0.340549
V3    V     V_3+5 0.000520 0.702080 0.009480 1.610901
V4    V     V_3+5 0.999480 0.202080 0.990520 1.578802
C45   C     C_2   0.102683 0.627633 0.785345 0.736924
O21   O     O_2   0.031068 0.664497 0.773270 -0.572013
O22   O     O_R   0.127929 0.439985 0.790596 -0.676516
H25   H     H_    0.081365 0.347349 0.783511 0.298537
C46   C     C_2   0.901352 0.147114 0.221897 0.730803
O23   O     O_2   0.897946 0.000640 0.183239 -0.556447
O24   O     O_R   0.966057 0.184559 0.283739 -0.657465
H26   H     H_    0.007450 0.080918 0.291065 0.286290
C47   C     C_2   0.841349 0.260305 0.772081 0.719449
O25   O     O_2   0.854986 0.398728 0.815460 -0.559851
O26   O     O_R   0.891952 0.226344 0.716957 -0.651267
H27   H     H_    0.933726 0.329245 0.716717 0.312074
C48   C     C_2   0.158264 0.754650 0.229303 0.717993
O27   O     O_2   0.143978 0.894208 0.186823 -0.565524
O28   O     O_R   0.107097 0.712474 0.283075 -0.647921
H28   H     H_    0.060000 0.801274 0.278564 0.301681
C49   C     C_2   0.732186 0.209498 0.849155 0.705039
O29   O     O_2   0.662983 0.266279 0.834277 -0.603039
O30   O     O_R   0.774974 0.226958 0.927667 -0.651315
H29   H     H_    0.739102 0.250255 0.968416 0.266223
C50   C     C_2   0.267792 0.712475 0.152115 0.703169
O31   O     O_2   0.336956 0.770911 0.167262 -0.602568
O32   O     O_R   0.224981 0.731354 0.073715 -0.652750
H30   H     H_    0.260867 0.756631 0.033087 0.264751
C51   C     C_2   0.734475 0.177383 0.627824 0.784212
O33   O     O_2   0.785654 0.107379 0.594597 -0.545778
O34   O     O_R   0.695723 0.341676 0.596301 -0.664119
H31   H     H_    0.719770 0.395949 0.550456 0.275249
C52   C     C_2   0.265281 0.673753 0.373010 0.783882
O35   O     O_2   0.214453 0.600932 0.406250 -0.545838
O36   O     O_R   0.303208 0.839756 0.404458 -0.665021
H32   H     H_    0.278931 0.892454 0.450309 0.274269
C53   C     C_3   0.721674 0.825135 0.926444 -0.349253
C54   C     C_3   0.680392 0.657026 0.958160 -0.764948
H33   H     H_    0.633918 0.593779 0.911630 0.267468
H34   H     H_    0.726003 0.549468 0.979406 0.229129
H35   H     H_    0.652316 0.701070 0.009654 0.214426
H36   H     H_    0.778747 0.848043 0.969080 0.184099
H37   H     H_    0.685618 0.950917 0.932709 0.197542
C55   C     C_3   0.278415 0.329772 0.073165 -0.349850
C56   C     C_3   0.320201 0.164119 0.040981 -0.765621
H38   H     H_    0.367014 0.102002 0.087253 0.266376
H39   H     H_    0.275014 0.054798 0.019668 0.227635
H40   H     H_    0.347927 0.210459 0.989459 0.214640
H41   H     H_    0.221314 0.351410 0.030525 0.181119
H42   H     H_    0.314164 0.457214 0.067439 0.197522
C57   C     C_3   0.580262 0.871449 0.785310 -0.321411
C58   C     C_3   0.512420 0.724585 0.775006 -0.798281
H43   H     H_    0.502736 0.664000 0.713766 0.241245
H44   H     H_    0.526022 0.607286 0.818486 0.238943
H45   H     H_    0.456101 0.792095 0.785058 0.224655
H46   H     H_    0.583791 0.933322 0.845312 0.222337
H47   H     H_    0.559011 0.988528 0.743451 0.183041
C59   C     C_3   0.419776 0.375731 0.214517 -0.321879
C60   C     C_3   0.487704 0.230552 0.224768 -0.799479
H48   H     H_    0.497454 0.169982 0.286016 0.240499
H49   H     H_    0.474135 0.112990 0.181361 0.239039
H50   H     H_    0.543941 0.299507 0.214598 0.224677
H51   H     H_    0.416299 0.438118 0.154570 0.222335
H52   H     H_    0.440837 0.492904 0.256535 0.183968

loop_
_geom_bond_atom_site_label_1
_geom_bond_atom_site_label_2
_ccdc_geom_bond_type
O15   C43   A    
O11   V4    S    
O4    V2    S    
C47   O25   D    
H15   C29   S    
C33   C44   S    
C15   C17   A    
C24   H6    S    
O22   H25   S    
O1    C3    A    
C58   H45   S    
C31   C49   S    
C2    O7    A    
C46   O23   D    
O17   V3    S    
O3    V1    S    
O36   H32   S    
C25   H11   S    
C32   C48   S    
C36   C40   S    
O5    C3    A    
C48   O28   S    
C45   O21   D    
C60   H49   S    
C58   H44   S    
C59   C60   S    
C51   O34   S    
C25   C33   S    
C35   C39   S    
C26   C34   S    
C36   C38   S    
C55   H42   S    
O32   H30   S    
C6    C41   S    
C11   H7    S    
C20   C46   S    
C32   C40   S    
C31   C33   S    
C5    C42   S    
C27   C35   S    
C39   C51   S    
C30   H22   S    
C39   H19   S    
C32   C34   S    
C60   H48   S    
C29   C37   S    
C53   H36   S    
C2    C35   S    
C8    C12   A    
C55   C56   S    
C35   C37   S    
C56   H40   S    
C28   C59   S    
O28   H28   S    
O19   V3    S    
C29   H21   S    
C34   C43   S    
O13   V3    S    
C41   O18   A    
C26   H12   S    
O2    C4    A    
C45   O22   S    
C5    C21   A    
H17   C37   S    
C7    C13   A    
C46   O24   S    
C28   H14   S    
C25   C53   S    
C57   C58   S    
C3    C8    S    
C60   H50   S    
C58   H43   S    
C32   C50   S    
O14   C42   A    
O13   C41   A    
C25   C27   S    
C54   H35   S    
C15   C23   A    
C55   H41   S    
C19   C45   S    
C9    C17   A    
C21   H1    S    
C31   C47   S    
H16   C30   S    
C27   H13   S    
O14   V4    S    
C7    C11   A    
C57   H46   S    
C53   H37   S    
O20   V4    S    
O24   H26   S    
C9    H3    S    
C26   C28   S    
O6    C4    A    
C16   C24   A    
C10   H4    S    
O1    V2    S    
O19   V4    S    
O2    V1    S    
C6    C22   A    
C30   C38   S    
C52   O35   D    
C59   H52   S    
H18   C38   S    
C9    C11   A    
C56   H38   S    
C5    C19   A    
C10   C12   A    
O4    C2    A    
C37   H23   S    
O18   V4    S    
C13   H9    S    
C28   C36   S    
C50   O31   D    
C47   O26   S    
O12   C44   A    
C57   H47   S    
C54   H34   S    
C10   C18   A    
O30   H29   S    
C22   H2    S    
C14   C16   A    
O16   C44   A    
C1    C36   S    
O3    C1    A    
O34   H31   S    
O12   V3    S    
C38   H24   S    
C42   O17   A    
O15   V3    S    
C48   O27   D    
C29   C33   S    
C30   C34   S    
C31   C39   S    
C49   O30   S    
O7    V1    S    
C16   C18   A    
C17   C19   A    
O8    V2    S    
C51   O33   D    
C18   C20   A    
C40   C52   S    
O20   V3    S    
C53   C54   S    
C8    C14   A    
C54   H33   S    
C12   H8    S    
C4    C7    S    
O5    V1    S    
C21   C23   A    
C22   C24   A    
C23   H5    S    
C52   O36   S    
C14   H10   S    
C59   H51   S    
C1    O8    A    
C6    C20   A    
O11   C43   A    
O6    V2    S    
O9    V2    S    
O26   H27   S    
C56   H39   S    
O10   V1    S    
C26   C55   S    
C40   H20   S    
O16   V4    S    
C49   O29   D    
C50   O32   S    
C13   C15   A    
C27   C57   S    
