data_mof_unit_31637.cif
_audit_creation_date              2012-12-10T20:28:40-0500
_audit_creation_method            fapswitch 2.2
_symmetry_space_group_name_H-M    P1
_symmetry_Int_Tables_number       1
_space_group_crystal_system       triclinic
_cell_length_a                    10.619956
_cell_length_b                    10.672789
_cell_length_c                    9.987324
_cell_angle_alpha                 89.291422
_cell_angle_beta                  91.062921
_cell_angle_gamma                 92.348308
_cell_volume                      1130.78712981

loop_
_atom_site_label
_atom_site_type_symbol
_atom_type_description
_atom_site_fract_x
_atom_site_fract_y
_atom_site_fract_z
_atom_type_partial_charge
C1    C     C_R   0.498721 0.260806 0.500496 0.899455
C2    C     C_R   0.073320 0.606341 0.567977 0.123783
C3    C     C_R   0.129101 0.507886 0.501028 -0.006438
C4    C     C_R   0.059041 0.407595 0.446676 -0.075008
C5    C     C_R   0.930439 0.409243 0.445843 -0.127426
C6    C     C_R   0.872483 0.507144 0.507479 -0.074229
C7    C     C_R   0.549654 0.064031 0.602312 0.297164
C8    C     C_R   0.488039 0.128922 0.501960 -0.169953
C9    C     C_R   0.411098 0.066354 0.407054 -0.227419
C10   C     C_R   0.406678 0.936128 0.403673 0.425311
C11   C     C_R   0.481315 0.871237 0.498681 -0.269272
C12   C     C_R   0.260999 0.500587 0.499523 0.874975
C13   C     C_R   0.545538 0.936032 0.600668 0.134863
C14   C     C_3   0.681707 0.930339 0.637682 -0.527291
C15   C     C_3   0.687222 0.071556 0.637523 -0.435029
C16   C     C_R   0.392201 0.467744 0.068789 0.020938
C17   C     C_R   0.598223 0.555604 0.069130 0.498321
C18   C     C_R   0.595707 0.554909 0.926642 -0.115066
C19   C     C_R   0.398929 0.451680 0.928384 0.073335
C20   C     C_3   0.353813 0.315421 0.947849 0.500798
C21   C     C_3   0.309479 0.353400 0.087188 0.095719
C22   C     C_R   0.493663 0.739158 0.498819 0.902959
C23   C     C_R   0.739437 0.503404 0.501748 0.845552
C24   C     C_R   0.145141 0.706506 0.627445 -0.078295
C25   C     C_R   0.087101 0.797638 0.699993 -0.088395
C26   C     C_R   0.957151 0.791667 0.713150 -0.083208
C27   C     C_R   0.884487 0.696866 0.650003 -0.184304
C28   C     C_R   0.941801 0.603539 0.575661 0.085423
H1    H     H_    0.104585 0.329016 0.403297 0.179868
H2    H     H_    0.673036 0.595977 0.870081 0.185111
H3    H     H_    0.337942 0.292734 0.172461 0.134102
H4    H     H_    0.246244 0.715712 0.618817 0.143634
H5    H     H_    0.143162 0.872703 0.746587 0.170780
H6    H     H_    0.912877 0.861627 0.771583 0.167400
H7    H     H_    0.875739 0.333113 0.399039 0.157187
N1    N     N_R   0.499160 0.499140 0.142800 -0.155777
N2    N     N_R   0.499160 0.499180 0.857150 -0.128391
O1    O     O_R   0.500020 0.316790 0.614690 -0.535331
O2    O     O_R   0.500000 0.316760 0.385350 -0.627104
O3    O     O_R   0.316770 0.500020 0.614690 -0.595266
O4    O     O_R   0.316760 0.499980 0.385350 -0.566741
O5    O     O_R   0.500000 0.683240 0.614650 -0.647342
O6    O     O_R   0.499980 0.683210 0.385310 -0.502345
O7    O     O_R   0.683240 0.500020 0.614650 -0.632970
O8    O     O_R   0.683230 0.499980 0.385310 -0.541414
Zn1   Zn    Zn3+2 0.500010 0.500020 0.653130 1.039714
Zn2   Zn    Zn3+2 0.499990 0.499980 0.346870 1.105772
H8    H     H_    0.737961 0.891264 0.556443 0.208077
H9    H     H_    0.709082 0.109640 0.738268 0.277385
H10   H     H_    0.745631 0.113868 0.555993 0.186902
S1    S     S_3+6 0.737422 0.630681 0.137923 0.090911
O9    O     O_2   0.828258 0.531941 0.177647 -0.270789
O10   O     O_2   0.799276 0.713535 0.033170 -0.302074
O11   O     O_3   0.710049 0.722029 0.268844 -0.519446
H11   H     H_    0.794565 0.746928 0.305609 0.368807
S2    S     S_3+6 0.236623 0.250081 0.830815 0.093549
O12   O     O_2   0.164943 0.349338 0.758784 -0.278120
O13   O     O_2   0.299409 0.173773 0.727979 -0.300851
O14   O     O_3   0.135062 0.154422 0.914546 -0.498416
H12   H     H_    0.078230 0.117006 0.844738 0.372081
S3    S     S_3+6 0.485530 0.212217 0.965647 0.048822
O15   O     O_2   0.583019 0.248833 0.864328 -0.281284
O16   O     O_2   0.546646 0.221956 0.102370 -0.329443
O17   O     O_3   0.437395 0.062077 0.941013 -0.463681
H13   H     H_    0.374697 0.043671 0.011419 0.395218
S4    S     S_3+6 0.148217 0.402716 0.098982 0.109599
O18   O     O_2   0.142543 0.506046 0.198457 -0.233865
O19   O     O_2   0.098057 0.454067 0.969086 -0.194705
O20   O     O_3   0.055578 0.279917 0.148489 -0.508800
H14   H     H_    0.968822 0.310634 0.144775 0.401174
H15   H     H_    0.783880 0.697235 0.661195 0.151798
H16   H     H_    0.358213 0.119261 0.333670 0.210189
S5    S     S_3+6 0.312407 0.862039 0.276968 0.051616
O21   O     O_2   0.396150 0.816876 0.169440 -0.252956
O22   O     O_2   0.237962 0.752599 0.334967 -0.301115
O23   O     O_3   0.211862 0.963887 0.209076 -0.545497
H17   H     H_    0.169230 0.918136 0.134173 0.407364
H18   H     H_    0.694632 0.888317 0.739112 0.239398

loop_
_geom_bond_atom_site_label_1
_geom_bond_atom_site_label_2
_ccdc_geom_bond_type
S4    O19   D    
C16   C21   S    
C23   O8    A    
C21   S4    S    
C1    C8    S    
S5    O21   D    
C19   C20   S    
C9    H16   S    
C20   S2    S    
C17   S1    S    
C7    C8    A    
O3    Zn1   S    
C21   H3    S    
C26   C27   A    
C18   N2    A    
C5    C6    A    
C10   S5    S    
S4    O20   S    
C14   H18   S    
S2    O12   D    
N1    Zn2   S    
O5    Zn1   S    
C15   H10   S    
C20   S3    S    
S3    O16   D    
C3    C12   S    
C19   N2    A    
C26   H6    S    
C6    C28   A    
C8    C9    A    
C18   H2    S    
C17   N1    A    
C9    C10   A    
C4    H1    S    
C7    C15   S    
S4    O18   D    
O14   H12   S    
C13   C14   S    
S5    O22   D    
O20   H14   S    
O7    Zn1   S    
O8    Zn2   S    
S1    O9    D    
C24   C25   A    
C14   H8    S    
C25   C26   A    
C23   O7    A    
S1    O10   D    
C12   O3    A    
S3    O17   S    
C24   H4    S    
C12   O4    A    
C22   O6    A    
C17   C18   A    
O4    Zn2   S    
O23   H17   S    
C1    O1    A    
C2    C24   A    
S5    O23   S    
C3    C4    A    
C27   H15   S    
O2    Zn2   S    
O11   H11   S    
C4    C5    A    
C11   C22   S    
S2    O14   S    
S1    O11   S    
O17   H13   S    
C2    C3    A    
C16   N1    A    
C11   C13   A    
C22   O5    A    
C16   C19   A    
C6    C23   S    
C5    H7    S    
S2    O13   D    
C15   H9    S    
S3    O15   D    
O1    Zn1   S    
C10   C11   A    
C1    O2    A    
C7    C13   A    
C20   C21   S    
C27   C28   A    
C14   C15   S    
C2    C28   A    
N2    Zn1   S    
O6    Zn2   S    
C25   H5    S    
