data_mof_unit_27322.cif
_audit_creation_date              2012-12-11T18:07:14-0500
_audit_creation_method            fapswitch 2.2
_symmetry_space_group_name_H-M    P1
_symmetry_Int_Tables_number       1
_space_group_crystal_system       triclinic
_cell_length_a                    8.240118
_cell_length_b                    12.649366
_cell_length_c                    27.04011
_cell_angle_alpha                 96.24772
_cell_angle_beta                  92.583546
_cell_angle_gamma                 81.42712
_cell_volume                      2769.21507846

loop_
_atom_site_label
_atom_site_type_symbol
_atom_type_description
_atom_site_fract_x
_atom_site_fract_y
_atom_site_fract_z
_atom_type_partial_charge
Ba1   Ba    Ba6+2 0.859560 0.448380 0.523550 1.336493
Ba2   Ba    Ba6+2 0.330270 0.551530 0.476440 1.283171
C1    C     C_3   0.661330 0.088773 0.681373 -0.409909
C2    C     C_R   0.954405 0.605005 0.182645 0.575220
C3    C     C_2   0.762337 0.576096 0.271203 -0.193363
C4    C     C_3   0.205553 0.174212 0.659261 0.529128
C5    C     C_3   0.734534 0.611216 0.325559 -0.046534
C6    C     C_1   0.983359 0.484263 0.343813 0.065959
C7    C     C_2   0.020658 0.468113 0.295731 -0.152578
C8    C     C_2   0.906244 0.517227 0.256640 0.231677
C9    C     C_R   0.029267 0.502320 0.103111 -0.103001
C10   C     C_R   0.034013 0.407078 0.126221 -0.055200
C11   C     C_R   0.074889 0.308239 0.097679 -0.008405
C12   C     C_3   0.706762 0.161255 0.644438 0.365872
C13   C     C_R   0.989244 0.601816 0.131726 -0.020331
C14   C     C_2   0.855022 0.553064 0.360884 0.126090
C15   C     C_2   0.344030 0.461497 0.639069 -0.215135
C16   C     C_3   0.219907 0.106829 0.703293 0.305187
C17   C     C_R   0.153814 0.393822 0.972399 -0.022585
C18   C     C_R   0.081603 0.590459 0.976170 0.009700
C19   C     C_R   0.135370 0.489996 0.948656 0.061379
C20   C     C_R   0.217006 0.296915 0.944336 -0.129254
C21   C     C_R   0.258858 0.293146 0.894573 0.359799
C22   C     C_R   0.231050 0.387251 0.869662 -0.094868
C23   C     C_3   0.495328 0.696336 0.627189 0.275980
C24   C     C_R   0.170925 0.485761 0.896908 -0.169642
C25   C     C_R   0.147043 0.580333 0.872503 0.019597
C26   C     C_R   0.182910 0.575694 0.821379 0.577760
C27   C     C_R   0.264231 0.385406 0.818438 0.560380
C28   C     C_3   0.218820 0.223213 0.418180 0.263892
C29   C     C_2   0.428116 0.419216 0.726032 -0.107743
C30   C     C_3   0.452088 0.388287 0.671146 -0.030935
C31   C     C_1   0.205525 0.517106 0.656281 -0.005490
C32   C     C_2   0.163930 0.522721 0.703873 -0.078703
C33   C     C_2   0.282925 0.473970 0.742187 0.189633
C34   C     C_3   0.478040 0.720738 0.683179 -0.371493
C35   C     C_R   0.111092 0.397385 0.023390 0.018880
C36   C     C_R   0.064744 0.498189 0.051410 0.094452
C37   C     C_R   0.053569 0.594971 0.028299 -0.021607
C38   C     C_R   0.112444 0.303292 0.047615 -0.156964
C39   C     C_R   0.985025 0.696576 0.108955 -0.035644
C40   C     C_3   0.256128 0.102526 0.404664 -0.444902
C41   C     C_R   0.056652 0.683246 0.950250 -0.091784
C42   C     C_R   0.088493 0.678101 0.899787 -0.107434
C43   C     C_R   0.015967 0.693441 0.058559 -0.111815
C44   C     C_R   0.767635 0.822947 0.487095 -0.346522
C45   C     C_3   0.929837 0.856286 0.347716 0.213542
C46   C     C_R   0.435394 0.190405 0.521909 -0.246790
C47   C     C_R   0.414217 0.011145 0.540316 -0.147906
C48   C     C_R   0.350537 0.119100 0.542127 0.001788
C49   C     C_R   0.576928 0.153116 0.495099 0.060386
C50   C     C_R   0.641346 0.042082 0.491069 -0.055145
C51   C     C_R   0.559538 0.970974 0.515020 -0.046290
C52   C     C_3   0.979830 0.780724 0.585036 0.337931
C53   C     C_R   0.623371 0.860979 0.511960 0.085951
C54   C     C_R   0.850092 0.891057 0.464093 0.079714
C55   C     C_R   0.784883 0.999582 0.464461 -0.123253
C56   C     C_3   0.953042 0.883538 0.295403 -0.307901
C57   C     C_3   0.983951 0.900227 0.597135 -0.350594
C58   C     C_3   0.694562 0.314950 0.376216 0.295794
C59   C     C_3   0.708984 0.287498 0.320281 -0.401957
C60   C     C_3   0.489904 0.173245 0.880744 0.206776
C61   C     C_3   0.017772 0.176072 0.760033 0.177723
C62   C     C_3   0.460198 0.828581 0.340455 0.708007
C63   C     C_3   0.486459 0.886363 0.295434 0.095438
C64   C     C_R   0.995175 0.412592 0.177176 0.556609
H1    H     H_    0.797325 0.114208 0.618577 0.082362
H2    H     H_    0.810268 0.340966 0.391744 0.016845
H3    H     H_    0.592128 0.381649 0.383260 0.109116
H4    H     H_    0.595038 0.025575 0.661592 0.086988
H5    H     H_    0.816613 0.224804 0.312132 0.136946
H6    H     H_    0.724598 0.360098 0.302495 0.076610
H7    H     H_    0.595930 0.257335 0.304307 0.140182
H8    H     H_    0.595175 0.185157 0.621214 -0.022523
H9    H     H_    0.581324 0.137051 0.710016 0.114128
H10   H     H_    0.380578 0.669770 0.610895 0.023981
H11   H     H_    0.599529 0.630728 0.619993 0.094449
H12   H     H_    0.350116 0.084635 0.375605 0.104162
H13   H     H_    0.369626 0.782725 0.691465 0.143515
H14   H     H_    0.461934 0.646784 0.699851 0.076977
H15   H     H_    0.590050 0.750661 0.700141 0.135955
H16   H     H_    0.772889 0.049121 0.700010 0.166896
H17   H     H_    0.302416 0.138749 0.733078 0.038760
H18   H     H_    0.904311 0.772377 0.345488 0.050297
H19   H     H_    0.824051 0.912608 0.363626 0.058990
H20   H     H_    0.058215 0.828641 0.278370 0.214735
H21   H     H_    0.840929 0.874522 0.272075 0.109480
H22   H     H_    0.977034 0.967900 0.296624 0.106655
H23   H     H_    0.303507 0.061929 0.437741 0.102452
H24   H     H_    0.578930 0.816146 0.361921 0.015853
H25   H     H_    0.373653 0.881872 0.365591 0.091107
H26   H     H_    0.566542 0.830758 0.269099 0.114937
H27   H     H_    0.549531 0.957325 0.307400 0.026099
H28   H     H_    0.152506 0.258555 0.671397 0.014025
H29   H     H_    0.138628 0.423626 0.284588 0.119459
H30   H     H_    0.077733 0.233441 0.114011 0.108916
H31   H     H_    0.519308 0.384422 0.752165 0.097351
H32   H     H_    0.240383 0.221488 0.960193 0.079917
H33   H     H_    0.138775 0.223558 0.028703 0.069981
H34   H     H_    0.142554 0.070708 0.390403 0.159144
H35   H     H_    0.677085 0.612478 0.243957 0.101828
H36   H     H_    0.956725 0.774497 0.130130 0.109743
H37   H     H_    0.009170 0.761700 0.967674 0.058577
H38   H     H_    0.331368 0.173218 0.646034 -0.371891
H39   H     H_    0.067019 0.752023 0.882118 0.129602
H40   H     H_    0.043080 0.561812 0.715212 0.127505
H41   H     H_    0.012468 0.770399 0.044699 0.055222
H42   H     H_    0.368914 0.452962 0.599658 0.076023
H43   H     H_    0.345717 0.959570 0.557610 0.095999
H44   H     H_    0.849573 0.048993 0.444580 0.101276
H45   H     H_    0.851234 0.766583 0.579359 0.006703
H46   H     H_    0.821606 0.740112 0.488388 0.105074
H47   H     H_    0.384142 0.274589 0.523909 0.069499
H48   H     H_    0.280780 0.024689 0.690354 0.040114
H49   H     H_    0.334447 0.254534 0.429546 0.011292
H50   H     H_    0.132902 0.239252 0.449445 0.076951
H51   H     H_    0.283276 0.984030 0.290732 0.308662
H52   H     H_    0.555546 0.237518 0.869713 0.026867
H53   H     H_    0.540346 0.096938 0.858945 0.049593
H54   H     H_    0.514794 0.162778 0.920837 -0.021285
H55   H     H_    0.785415 0.661393 0.413604 0.292904
H56   H     H_    0.050603 0.753055 0.550862 0.035628
H57   H     H_    0.022598 0.258604 0.750127 0.071992
H58   H     H_    0.096244 0.159395 0.793585 0.097509
H59   H     H_    0.889305 0.172306 0.769467 0.058097
H60   H     H_    0.918040 0.929446 0.631963 0.120504
H61   H     H_    0.924502 0.944919 0.566567 0.069297
H62   H     H_    0.113209 0.915301 0.602311 0.142924
N1    N     N_R   0.953996 0.511019 0.204791 -0.405614
N2    N     N_R   0.241346 0.478821 0.794729 -0.416065
O1    O     O_2   0.907040 0.557650 0.617910 -0.447178
O2    O     O_2   0.188636 0.883193 0.466359 -0.505216
O3    O     O_3   0.074005 0.867326 0.376052 -0.588549
O4    O     O_3   0.139040 0.557570 0.557730 -0.450547
O5    O     O_3   0.571310 0.369620 0.475470 -0.478662
O6    O     O_2   0.348200 0.764910 0.523260 -0.274400
O7    O     O_3   0.523937 0.789488 0.607354 -0.674265
O8    O     O_2   0.437874 0.524964 0.324728 -0.500865
O9    O     O_3   0.392055 0.733950 0.324516 -0.485631
O10   O     O_2   0.995865 0.329769 0.196658 -0.585997
O11   O     O_2   0.312990 0.299910 0.794689 -0.590682
O12   O     O_3   0.664585 0.223630 0.397302 -0.645328
O13   O     O_2   0.924859 0.691970 0.207405 -0.605024
O14   O     O_2   0.164593 0.658340 0.800916 -0.612496
O15   O     O_3   0.684960 0.360550 0.588460 -0.464648
O16   O     O_2   0.767677 0.457755 0.676833 -0.492665
O17   O     O_3   0.047155 0.728943 0.625664 -0.631930
O18   O     O_3   0.777586 0.247512 0.670171 -0.561863
O19   O     O_2   0.841490 0.235060 0.476710 -0.421896
O20   O     O_3   0.099640 0.305100 0.564190 -0.467761
O21   O     O_2   0.019767 0.115433 0.528780 -0.476243
O22   O     O_3   0.336518 0.918287 0.270964 -0.726258
O23   O     O_3   0.102414 0.129893 0.622513 -0.533203
O24   O     O_3   0.319852 0.194592 0.869898 -0.552025
O25   O     O_3   0.847617 0.588155 0.410744 -0.687157
O26   O     O_3   0.062820 0.097599 0.719976 -0.650276
O27   O     O_2   0.282660 0.442310 0.382060 -0.454099
O28   O     O_3   0.050670 0.442340 0.442260 -0.414889
O29   O     O_3   0.504750 0.639360 0.411530 -0.426876
O30   O     O_3   0.148928 0.270245 0.376329 -0.572497
O31   O     O_3   0.618400 0.630290 0.524520 -0.451025
O32   O     O_3   0.090070 0.694820 0.435810 -0.421450
P1    P     P_3+3 0.072810 0.589830 0.610360 0.974693
P2    P     P_3+3 0.661990 0.251250 0.462170 0.963030
P3    P     P_3+3 0.144229 0.166519 0.564524 0.945131
P4    P     P_3+3 0.116900 0.410080 0.389630 1.027909
P5    P     P_3+3 0.048600 0.835172 0.436166 0.968077
P6    P     P_3+3 0.670834 0.368535 0.652832 0.975396
P7    P     P_3+3 0.531113 0.763164 0.542558 0.847740
P8    P     P_3+3 0.517879 0.623713 0.346225 1.002115

loop_
_geom_bond_atom_site_label_1
_geom_bond_atom_site_label_2
_ccdc_geom_bond_type
C63   H26   S    
C19   C24   A    
C20   H32   S    
O29   P8    S    
C44   H46   S    
O8    P8    D    
O5    P2    S    
Ba1   O15   S    
O2    P5    D    
C62   H24   S    
C56   H21   S    
C16   H48   S    
C2    O13   D    
C61   H58   S    
C28   H50   S    
C42   H39   S    
C39   H36   S    
C57   H60   S    
C28   O30   S    
C24   C25   A    
Ba2   O4    S    
C23   H11   S    
C12   H8    S    
Ba1   O28   S    
C17   C19   A    
C22   C24   A    
C61   O26   S    
C32   C33   S    
C35   C38   A    
O3    P5    S    
O12   P2    S    
C36   C37   A    
C48   P3    S    
C57   H61   S    
C12   O18   S    
C54   C55   A    
O9    P8    S    
Ba1   Ba2   S    
C22   C27   A    
C1    H16   S    
C11   C38   A    
O16   P6    D    
C17   C35   A    
C58   O12   S    
C9    C13   A    
C25   C42   A    
C46   C49   A    
C29   C30   S    
Ba1   P2    S    
Ba2   O29   S    
C4    H28   S    
C44   C53   A    
C12   H1    S    
Ba1   O19   S    
C26   O14   D    
O30   P4    S    
O6    P7    D    
C1    H9    S    
C7    C8    S    
C7    H29   S    
C60   H54   S    
C52   C57   S    
Ba2   O28   S    
C37   C43   A    
C64   N1    Am   
O31   P7    S    
C59   H5    S    
C46   C48   A    
C52   H56   S    
Ba1   O31   S    
C6    C14   D    
C45   O3    S    
Ba2   O32   S    
C15   C31   D    
C38   H33   S    
C56   H20   S    
Ba2   O31   S    
C31   C32   D    
C28   H49   S    
C51   C53   A    
C4    C16   S    
C3    H35   S    
C11   H30   S    
C49   C50   A    
C32   H40   S    
Ba1   O20   S    
C1    H4    S    
C13   C39   A    
C34   H14   S    
C15   H42   S    
C3    C5    S    
C18   C37   A    
C6    C7    D    
C59   H7    S    
C57   H62   S    
O21   P3    D    
O20   P3    S    
C10   C64   A    
Ba2   O6    S    
C60   O24   S    
C58   C59   S    
O4    P1    S    
C9    C36   A    
C23   O7    S    
C41   C42   A    
C35   C36   A    
C40   H34   S    
C52   O17   S    
C27   N2    Am   
O1    P1    D    
C34   H15   S    
C21   C22   A    
C27   O11   D    
C17   C20   A    
C14   O25   S    
C16   H17   S    
C49   P2    S    
O19   P2    D    
C45   H18   S    
C18   C19   A    
C33   N2    S    
Ba1   P1    S    
C60   H53   S    
C61   H59   S    
C1    C12   S    
C6    P4    S    
C59   H6    S    
C5    C14   S    
C40   H12   S    
C4    H38   S    
C30   P6    S    
O18   P6    S    
C29   C33   D    
C5    P8    S    
Ba1   O4    S    
C45   H19   S    
C18   C41   A    
C16   O26   S    
C50   C51   A    
O28   P4    S    
C47   H43   S    
Ba2   P4    S    
H55   O25   S    
O23   P3    S    
O7    P7    S    
Ba1   O1    S    
C34   H13   S    
C56   H22   S    
O27   P4    D    
C61   H57   S    
C9    C10   A    
C55   H44   S    
C2    N1    Am   
Ba2   O5    S    
C40   H23   S    
C62   C63   S    
C23   H10   S    
C63   O22   S    
C8    N1    S    
C3    C8    D    
O17   P1    S    
C45   C56   S    
C58   H3    S    
C2    C13   A    
Ba2   O27   S    
C47   C51   A    
C54   P5    S    
C63   H27   S    
C31   P1    S    
C52   H45   S    
H51   O22   S    
C26   N2    Am   
C29   H31   S    
C41   H37   S    
C60   H52   S    
C4    O23   S    
C50   C55   A    
C23   C34   S    
O32   P5    S    
C64   O10   D    
C10   C11   A    
C58   H2    S    
C47   C48   A    
C21   O24   S    
C44   C54   A    
C25   C26   A    
C15   C30   S    
C39   C43   A    
C20   C21   A    
C28   C40   S    
C62   H25   S    
Ba1   O5    S    
O15   P6    S    
C53   P7    S    
C43   H41   S    
C46   H47   S    
C62   O9    S    
