data_mof_unit_63765.cif
_audit_creation_date              2013-03-05T16:20:58-0500
_audit_creation_method            fapswitch 2.2
_symmetry_space_group_name_H-M    P1
_symmetry_Int_Tables_number       1
_space_group_crystal_system       triclinic
_cell_length_a                    21.743815
_cell_length_b                    21.751882
_cell_length_c                    22.143761
_cell_angle_alpha                 119.509258
_cell_angle_beta                  119.182336
_cell_angle_gamma                 89.65297
_cell_volume                      7570.60701427

loop_
_atom_site_label
_atom_site_type_symbol
_atom_site_description
_atom_site_fract_x
_atom_site_fract_y
_atom_site_fract_z
_atom_type_partial_charge
O1    O     O_R   0.447800 0.090170 0.500010 -0.589455
O2    O     O_R   0.552190 0.090170 0.499980 -0.592453
C1    C     C_R   0.499986 0.118726 0.500216 0.783882
O3    O     O_R   0.508090 0.060280 0.620580 -0.586185
O4    O     O_R   0.612480 0.060280 0.620550 -0.563627
C2    C     C_R   0.579713 0.080335 0.659919 0.876144
Cu1   Cu    Cu3+1 0.438190 0.000000 0.500020 0.957849
Cu2   Cu    Cu3+1 0.561810 0.000000 0.499980 0.982761
O5    O     O_R   0.447810 0.909830 0.500020 -0.590112
O6    O     O_R   0.552200 0.909830 0.499990 -0.559440
O7    O     O_R   0.387520 0.939720 0.379450 -0.586993
O8    O     O_R   0.491910 0.939720 0.379420 -0.584567
C3    C     C_R   0.500747 0.881896 0.500880 0.880787
C4    C     C_R   0.420263 0.919994 0.340089 0.813533
C5    C     C_3   0.660583 0.243144 0.952538 -0.372931
C6    C     C_3   0.770901 0.273197 0.950736 -0.381985
C7    C     C_3   0.819572 0.321680 0.047742 -0.368570
H1    H     H_    0.706731 0.349398 0.072998 0.163429
H2    H     H_    0.634795 0.277835 0.929520 0.162118
H3    H     H_    0.805983 0.250267 0.926868 0.166611
H4    H     H_    0.747156 0.308402 0.927613 0.161385
H5    H     H_    0.819040 0.380048 0.070997 0.163674
H6    H     H_    0.877929 0.321974 0.070241 0.161981
C8    C     C_1   0.875116 0.375282 0.250316 -0.167988
C9    C     C_3   0.707726 0.208955 0.917457 0.300626
C10   C     C_3   0.709297 0.291575 0.049595 -0.378296
C11   C     C_3   0.790667 0.291474 0.082662 0.321313
C12   C     C_3   0.791757 0.210077 0.048411 -0.385617
C13   C     C_3   0.743019 0.161602 0.951381 -0.338702
C14   C     C_1   0.837081 0.337572 0.174889 -0.115235
C15   C     C_1   0.661563 0.162896 0.825201 -0.093582
C16   C     C_1   0.624088 0.125236 0.749750 -0.114982
H7    H     H_    0.698853 0.115140 0.928779 0.185823
H8    H     H_    0.777524 0.136537 0.927462 0.177152
H9    H     H_    0.770916 0.186775 0.072211 0.168214
H10   H     H_    0.614856 0.198205 0.929915 0.169520
H11   H     H_    0.686909 0.269741 0.073374 0.161695
H12   H     H_    0.849571 0.208216 0.070873 0.165551
C17   C     C_R   0.437038 0.195406 0.452286 0.128043
C18   C     C_R   0.501056 0.185922 0.502119 -0.084655
C19   C     C_R   0.567840 0.244070 0.553842 -0.212240
H13   H     H_    0.619416 0.239621 0.594262 0.153345
C20   C     C_R   0.567788 0.309163 0.554355 -0.212752
H14   H     H_    0.619313 0.353659 0.595050 0.152553
C21   C     C_R   0.501409 0.315413 0.500970 -0.089160
C22   C     C_R   0.437495 0.256452 0.450401 0.125156
C23   C     C_3   0.356434 0.229457 0.386517 -0.484215
C24   C     C_3   0.356028 0.159297 0.387944 -0.471445
H15   H     H_    0.326477 0.263794 0.411912 0.191928
H16   H     H_    0.343794 0.219043 0.326619 0.205238
H17   H     H_    0.325351 0.152827 0.413562 0.206944
H18   H     H_    0.343666 0.108505 0.329058 0.192420
C25   C     C_3   0.215591 0.745055 0.049492 -0.372561
C26   C     C_3   0.330159 0.736539 0.047795 -0.373098
C27   C     C_3   0.281478 0.688023 0.950765 -0.373018
H19   H     H_    0.151375 0.636999 0.929473 0.162510
H20   H     H_    0.223337 0.708703 0.072888 0.160863
H21   H     H_    0.385083 0.768089 0.070269 0.164453
H22   H     H_    0.340050 0.700031 0.071163 0.160819
H23   H     H_    0.268106 0.628320 0.927747 0.163456
H24   H     H_    0.313132 0.696383 0.926856 0.162524
C28   C     C_1   0.124985 0.624687 0.749714 -0.173390
C29   C     C_3   0.291925 0.791070 0.082597 0.321904
C30   C     C_3   0.166905 0.696542 0.952463 -0.375413
C31   C     C_3   0.209038 0.708465 0.917398 0.321420
C32   C     C_3   0.230033 0.791963 0.951223 -0.371457
C33   C     C_3   0.278715 0.840478 0.048247 -0.375081
C34   C     C_1   0.162775 0.662358 0.825156 -0.113665
C35   C     C_1   0.338162 0.837216 0.174838 -0.115754
C36   C     C_1   0.375792 0.874997 0.250280 -0.170396
H25   H     H_    0.250958 0.880069 0.071957 0.161562
H26   H     H_    0.332669 0.873984 0.070723 0.162972
H27   H     H_    0.179000 0.808357 0.928551 0.163424
H28   H     H_    0.186642 0.782845 0.073222 0.163525
H29   H     H_    0.114686 0.711143 0.929807 0.161688
H30   H     H_    0.260714 0.802277 0.927318 0.162943
C37   C     C_R   0.469075 0.747290 0.428213 0.053330
C38   C     C_R   0.503972 0.816920 0.503441 -0.190193
C39   C     C_R   0.547270 0.822168 0.579559 0.318638
C40   C     C_R   0.546006 0.756526 0.577435 -0.267367
H31   H     H_    0.577222 0.760354 0.635693 0.205195
C41   C     C_R   0.503552 0.686663 0.501125 -0.171705
C42   C     C_R   0.468714 0.683260 0.426958 0.146640
C43   C     C_3   0.390503 0.644089 0.352790 -0.430921
C44   C     C_3   0.391050 0.714593 0.354098 -0.490833
H32   H     H_    0.386298 0.596634 0.296976 0.196251
H33   H     H_    0.352189 0.631167 0.367513 0.192573
H34   H     H_    0.387365 0.707819 0.299176 0.194727
H35   H     H_    0.352958 0.742613 0.369432 0.208195
O9    O     O_R   0.910020 0.552220 0.500020 -0.584721
O10   O     O_R   0.909990 0.447840 0.500030 -0.594119
C45   C     C_R   0.881331 0.499726 0.499099 0.810809
O11   O     O_R   0.939920 0.491910 0.379430 -0.584081
O12   O     O_R   0.939890 0.387530 0.379440 -0.585185
C46   C     C_R   0.920285 0.420099 0.340102 0.824243
Cu3   Cu    Cu3+1 0.000200 0.561800 0.500000 0.943584
Cu4   Cu    Cu3+1 0.000170 0.438200 0.500000 0.943853
O13   O     O_R   0.090380 0.552160 0.499970 -0.587284
O14   O     O_R   0.090350 0.447780 0.499980 -0.585858
O15   O     O_R   0.060480 0.612470 0.620560 -0.581599
O16   O     O_R   0.060450 0.508090 0.620570 -0.579374
C47   C     C_R   0.118710 0.499449 0.499458 0.793483
C48   C     C_R   0.080063 0.579897 0.659906 0.825324
O17   O     O_R   0.625130 0.534920 0.569820 -0.588404
O18   O     O_R   0.555400 0.465140 0.430260 -0.592641
C49   C     C_R   0.618917 0.499550 0.499577 0.822857
O19   O     O_R   0.534920 0.444720 0.569790 -0.587953
O20   O     O_R   0.465190 0.374940 0.430230 -0.588778
C50   C     C_R   0.500108 0.381200 0.500154 0.806541
Cu5   Cu    Cu3+1 0.541330 0.541310 0.582630 0.948233
Cu6   Cu    Cu3+1 0.458770 0.458690 0.417370 0.935238
O21   O     O_R   0.444700 0.534860 0.569740 -0.581788
O22   O     O_R   0.374970 0.465080 0.430180 -0.590627
O23   O     O_R   0.534910 0.625060 0.569770 -0.589587
O24   O     O_R   0.465180 0.555280 0.430210 -0.586195
C51   C     C_R   0.381171 0.500172 0.500357 0.800025
C52   C     C_R   0.499893 0.619278 0.500065 0.829585
C53   C     C_R   0.814592 0.547945 0.565724 0.076440
C54   C     C_R   0.813457 0.497997 0.495184 -0.095064
C55   C     C_R   0.744366 0.445339 0.421522 0.133706
C56   C     C_R   0.680197 0.446206 0.423446 -0.238926
H36   H     H_    0.627300 0.406557 0.367263 0.165716
C57   C     C_R   0.684436 0.497964 0.497503 -0.140145
C58   C     C_R   0.753442 0.547496 0.567208 0.130491
C59   C     C_3   0.794038 0.610595 0.656701 -0.432144
C60   C     C_3   0.864064 0.610659 0.655015 -0.496137
H37   H     H_    0.776852 0.660903 0.664885 0.201368
H38   H     H_    0.794597 0.593619 0.696760 0.198189
H39   H     H_    0.887480 0.661092 0.662504 0.207996
H40   H     H_    0.904840 0.593329 0.693714 0.194424
C61   C     C_R   0.247065 0.562653 0.558790 0.103298
C62   C     C_R   0.186099 0.498672 0.501073 -0.078912
C63   C     C_R   0.193524 0.431679 0.450093 -0.206805
H41   H     H_    0.148484 0.380291 0.407896 0.152155
C64   C     C_R   0.257678 0.431762 0.449571 -0.216175
H42   H     H_    0.261475 0.380477 0.407259 0.148176
C65   C     C_R   0.315612 0.498406 0.502196 -0.081469
C66   C     C_R   0.311272 0.562260 0.560194 0.131121
C67   C     C_3   0.323742 0.638488 0.578220 -0.483772
C68   C     C_3   0.252959 0.638760 0.576388 -0.452821
H43   H     H_    0.374179 0.679169 0.641217 0.207867
H44   H     H_    0.319578 0.639079 0.526416 0.192820
H45   H     H_    0.262615 0.679691 0.638303 0.196259
H46   H     H_    0.207606 0.639335 0.523352 0.210921
N1    N     N_R   0.589953 0.892635 0.658898 0.111449
O25   O     O_R   0.625934 0.946602 0.666970 -0.377996
O26   O     O_R   0.600865 0.900042 0.725701 -0.375432
C69   C     C_3   0.737004 0.389607 0.340600 -0.414854
C70   C     C_3   0.733405 0.424980 0.294623 -0.828589
H47   H     H_    0.784890 0.471218 0.332933 0.260100
H48   H     H_    0.726849 0.382711 0.234953 0.235169
H49   H     H_    0.685288 0.446616 0.280355 0.254499
H50   H     H_    0.783891 0.366187 0.352559 0.213100
H51   H     H_    0.685743 0.342003 0.299009 0.199148

loop_
_geom_bond_atom_site_label_1
_geom_bond_atom_site_label_2
_geom_bond_distance
_ccdc_geom_bond_type
C9    C15   1.476793 S    
C2    C16   1.437916 S    
C6    H4    1.113018 S    
O19   C50   1.278794 A    
C19   H13   1.083207 S    
C26   C27   1.553248 S    
C25   H28   1.113016 S    
H1    C10   1.113033 S    
C68   H45   1.111536 S    
O21   C51   1.280215 A    
O17   C49   1.283356 A    
N1    O25   1.300032 A    
Cu1   Cu2   2.688402 S    
C39   N1    1.439330 S    
C21   C22   1.385398 A    
Cu1   O7    1.939486 S    
C10   C11   1.550720 S    
C7    H6    1.113031 S    
C42   C43   1.493561 S    
C12   C13   1.553259 S    
C45   C54   1.435170 S    
C43   H32   1.111548 S    
C51   C65   1.447084 S    
C70   H48   1.110265 S    
O4    C2    1.298158 A    
Cu2   O6    1.973846 S    
O7    C4    1.297568 A    
C21   C50   1.439925 S    
C5    C9    1.550960 S    
C26   C29   1.550590 S    
C37   C42   1.379281 A    
C13   H7    1.113046 S    
O20   C50   1.280473 A    
C64   C65   1.404535 A    
C33   H26   1.113012 S    
O5    C3    1.294623 A    
C53   C54   1.382680 A    
C25   C29   1.550773 S    
C61   C68   1.492393 S    
Cu4   O14   1.973392 S    
Cu5   Cu6   2.645388 S    
C43   C44   1.519528 S    
C24   H17   1.111461 S    
C29   C35   1.476574 S    
C12   H9    1.113033 S    
C62   C63   1.406509 A    
O24   C52   1.285767 A    
Cu3   O13   1.971062 S    
C49   C57   1.447258 S    
C59   H38   1.111534 S    
C43   H33   1.112357 S    
Cu5   O23   1.971915 S    
Cu2   O8    1.942994 S    
O22   C51   1.282201 A    
C64   H42   1.083409 S    
C32   C33   1.553145 S    
O18   Cu6   1.973596 S    
C65   C66   1.395278 A    
C37   C44   1.492351 S    
O11   C46   1.298470 A    
O1    Cu1   1.973842 S    
C27   H23   1.113006 S    
C11   C14   1.476390 S    
C4    C36   1.437572 S    
O12   C46   1.297905 A    
C69   H51   1.111851 S    
O3    Cu1   1.942996 S    
N1    O26   1.301494 A    
C23   H16   1.111452 S    
Cu5   O21   1.973594 S    
C26   H22   1.113031 S    
C9    C13   1.550677 S    
C67   C68   1.519767 S    
C29   C33   1.550670 S    
C7    C11   1.550509 S    
C57   C58   1.384720 A    
C69   C70   1.525764 S    
C23   H15   1.111725 S    
C70   H49   1.110891 S    
C17   C18   1.385903 A    
C25   H20   1.113041 S    
C38   C39   1.415856 A    
C6    C7    1.552865 S    
C5    C10   1.553682 S    
C60   H39   1.111489 S    
O13   C47   1.296024 A    
C32   H27   1.113025 S    
C13   H8    1.113028 S    
C41   C42   1.394374 A    
O15   C48   1.298122 A    
O1    C1    1.293885 A    
C5    H2    1.112980 S    
C20   H14   1.083237 S    
O9    C45   1.290988 A    
C23   C24   1.542104 S    
C12   H12   1.113008 S    
C6    H3    1.113033 S    
C31   C34   1.476595 S    
C32   H30   1.113018 S    
Cu3   Cu4   2.688537 S    
H19   C30   1.113006 S    
Cu6   O22   1.970297 S    
C53   C58   1.346169 A    
O10   Cu4   1.971061 S    
C20   C21   1.411105 A    
C56   H36   1.083563 S    
C17   C22   1.349165 A    
C40   C41   1.408195 A    
C18   C19   1.411902 A    
O8    C4    1.298638 A    
C1    C18   1.441356 S    
C55   C69   1.512888 S    
O11   Cu3   1.941750 S    
C59   C60   1.541213 S    
O19   Cu5   1.972547 S    
C8    C46   1.437308 S    
O3    C2    1.298236 A    
C69   H50   1.110115 S    
C27   H24   1.113024 S    
C61   C62   1.394827 A    
C5    H10   1.112968 S    
O10   C45   1.290110 A    
C55   C56   1.416279 A    
C63   C64   1.400634 A    
C28   C48   1.437600 S    
C26   H21   1.113002 S    
C44   H34   1.111679 S    
C6    C9    1.550593 S    
Cu1   O5    1.971230 S    
C22   C23   1.488412 S    
C44   H35   1.112233 S    
C27   C31   1.550756 S    
C15   C16   1.207747 T    
O2    Cu2   1.971229 S    
C19   C20   1.410344 A    
C68   H46   1.112111 S    
C47   C62   1.448382 S    
C40   H31   1.082990 S    
O6    C3    1.289490 A    
O4    Cu2   1.939488 S    
C54   C55   1.421327 A    
C10   H11   1.113063 S    
O9    Cu3   1.973390 S    
O18   C49   1.279517 A    
C7    H5    1.113024 S    
O12   Cu4   1.940706 S    
O20   Cu6   1.971916 S    
C28   C34   1.207646 T    
C25   C30   1.553220 S    
C30   C31   1.550628 S    
O2    C1    1.291659 A    
C61   C66   1.381270 A    
C70   H47   1.109706 S    
O17   Cu5   1.970298 S    
C67   H43   1.111560 S    
C63   H41   1.083329 S    
Cu3   O15   1.940705 S    
C67   H44   1.112425 S    
C30   H29   1.113051 S    
C33   H25   1.113034 S    
C35   C36   1.207633 T    
C8    C14   1.207487 T    
C56   C57   1.414324 A    
O23   C52   1.281359 A    
C66   C67   1.493333 S    
C3    C38   1.442086 S    
C39   C40   1.405252 A    
C24   H18   1.111653 S    
O14   C47   1.292933 A    
O16   C48   1.298378 A    
C31   C32   1.550663 S    
C11   C12   1.550717 S    
C59   H37   1.111618 S    
C60   H40   1.111654 S    
C37   C38   1.393007 A    
C17   C24   1.488823 S    
Cu6   O24   1.972548 S    
C53   C60   1.487964 S    
C41   C52   1.456367 S    
Cu4   O16   1.941748 S    
C58   C59   1.489794 S    
