data_mof_unit_33763.cif
_audit_creation_date              2012-10-26T19:40:06-0400
_audit_creation_method            fapswitch 2.2
_symmetry_space_group_name_H-M    P1
_symmetry_Int_Tables_number       1
_space_group_crystal_system       triclinic
_cell_length_a                    14.951405
_cell_length_b                    8.76
_cell_length_c                    7.473483
_cell_angle_alpha                 102.678351
_cell_angle_beta                  94.64051
_cell_angle_gamma                 94.100102
_cell_volume                      947.819369302

loop_
_atom_site_label
_atom_site_type_symbol
_atom_type_description
_atom_site_fract_x
_atom_site_fract_y
_atom_site_fract_z
_atom_type_partial_charge
C1    C     C_R   0.497379 0.200207 0.453739 0.571647
C2    C     C_R   0.176380 0.359582 0.415061 -0.142319
C3    C     C_R   0.767463 0.506660 0.496806 -0.003700
C4    C     C_R   0.232537 0.493340 0.503193 -0.003702
C5    C     C_R   0.802882 0.370733 0.409936 -0.132281
C6    C     C_R   0.197118 0.629267 0.590065 -0.132282
C7    C     C_R   0.896144 0.361469 0.421992 0.005956
C8    C     C_R   0.103856 0.638530 0.578011 0.005956
C9    C     C_R   0.953243 0.500637 0.499992 0.044266
C10   C     C_R   0.046757 0.499362 0.500012 0.044267
C11   C     C_R   0.916557 0.641138 0.578914 0.005855
C12   C     C_R   0.502621 0.799793 0.546261 0.571646
C13   C     C_R   0.083443 0.358861 0.421090 0.005855
C14   C     C_R   0.933587 0.217860 0.356870 -0.009555
C15   C     C_R   0.066413 0.782139 0.643136 -0.009556
C16   C     C_R   0.877141 0.064298 0.303230 0.030603
C17   C     C_R   0.813433 0.023789 0.417995 -0.108810
C18   C     C_R   0.756380 0.885063 0.361143 -0.091259
C19   C     C_R   0.767663 0.778492 0.197758 -0.071274
C20   C     C_R   0.833484 0.813679 0.087423 -0.103003
C21   C     C_R   0.886328 0.957371 0.137225 -0.092209
C22   C     C_R   0.122859 0.935701 0.696775 0.030603
C23   C     C_R   0.027264 0.219592 0.352428 -0.131017
C24   C     C_R   0.113674 0.042628 0.862783 -0.092207
C25   C     C_R   0.166517 0.186321 0.912580 -0.103000
C26   C     C_R   0.232335 0.221508 0.802238 -0.071275
C27   C     C_R   0.243617 0.114937 0.638853 -0.091261
C28   C     C_R   0.186564 0.976211 0.582005 -0.108810
C29   C     C_R   0.972736 0.780407 0.647580 -0.131017
C30   C     C_2   0.496952 0.033297 0.427477 0.313677
C31   C     C_2   0.503048 0.966703 0.572523 0.313677
C32   C     C_R   0.328897 0.494225 0.500616 0.517529
C33   C     C_R   0.671103 0.505775 0.499384 0.517529
C34   C     C_R   0.823620 0.640418 0.584940 -0.142317
Cu1   Cu    Cu3+1 0.510010 0.517380 0.684380 1.033661
Cu2   Cu    Cu3+1 0.489990 0.482620 0.315620 1.033661
F1    F     F_    0.490647 0.947497 0.250334 -0.617783
F2    F     F_    0.509354 0.052503 0.749666 -0.617783
H1    H     H_    0.794596 0.744974 0.652984 0.100741
H2    H     H_    0.704684 0.858533 0.445917 0.109358
H3    H     H_    0.726047 0.668136 0.157260 0.126584
H4    H     H_    0.842986 0.730000 0.962619 0.119281
H5    H     H_    0.933161 0.985995 0.045082 0.089628
H6    H     H_    0.066843 0.014003 0.954931 0.089627
H7    H     H_    0.157016 0.270002 0.037386 0.119280
H8    H     H_    0.273949 0.331867 0.842730 0.126586
H9    H     H_    0.295311 0.141467 0.554075 0.109357
H10   H     H_    0.193792 0.898403 0.450733 0.114982
H11   H     H_    0.205403 0.255026 0.347018 0.100739
H12   H     H_    0.756529 0.272004 0.337153 0.141867
H13   H     H_    0.243470 0.727996 0.662848 0.141867
H14   H     H_    0.056844 0.110918 0.301268 0.109955
H15   H     H_    0.943156 0.889081 0.698742 0.109955
H16   H     H_    0.432266 0.371500 0.948172 0.254862
H17   H     H_    0.567735 0.628499 0.051828 0.254860
H18   H     H_    0.806204 0.101597 0.549266 0.114983
N1    N     N_2   0.474890 0.456420 0.038520 -0.230592
N2    N     N_2   0.525110 0.543580 0.961480 -0.230592
O1    O     O_R   0.506510 0.286130 0.619770 -0.481013
O2    O     O_R   0.493490 0.713870 0.380230 -0.481013
O3    O     O_R   0.489600 0.256770 0.308360 -0.448800
O4    O     O_R   0.510400 0.743230 0.691640 -0.448800
O5    O     O_R   0.378710 0.514640 0.655720 -0.519780
O6    O     O_R   0.621290 0.485360 0.344280 -0.519780
O7    O     O_R   0.361800 0.485290 0.344300 -0.507054
O8    O     O_R   0.638200 0.514710 0.655700 -0.507055

loop_
_geom_bond_atom_site_label_1
_geom_bond_atom_site_label_2
_ccdc_geom_bond_type
C14   C23   A    
C20   H4    S    
C5    C7    A    
C16   C21   A    
C21   H5    S    
C2    H11   S    
C6    H13   S    
C8    C15   A    
C12   O4    A    
C9    C10   A    
C2    C4    A    
C19   C20   A    
Cu1   O8    S    
C31   F2    S    
Cu1   O5    S    
C17   C18   A    
C23   H14   S    
C19   H3    S    
C3    C33   S    
C22   C28   A    
C24   C25   A    
C9    C11   A    
C17   H18   S    
C11   C29   A    
N1    N2    D    
C4    C32   S    
C29   H15   S    
C33   O6    A    
C4    C6    A    
C1    C30   S    
C15   C22   S    
C28   H10   S    
C33   O8    A    
C15   C29   A    
Cu1   O4    S    
C22   C24   A    
C1    O1    A    
C12   C31   S    
C26   C27   A    
C30   C31   D    
C24   H6    S    
Cu1   O1    S    
C14   C16   S    
C5    H12   S    
C16   C17   A    
C26   H8    S    
Cu2   O3    S    
C12   O2    A    
C25   H7    S    
Cu1   N2    S    
C32   O5    A    
C20   C21   A    
C13   C23   A    
C8    C10   A    
Cu2   N1    S    
H17   N2    S    
C27   H9    S    
C27   C28   A    
C7    C9    A    
C2    C13   A    
C18   H2    S    
Cu2   O7    S    
C18   C19   A    
C6    C8    A    
C3    C34   A    
C3    C5    A    
C25   C26   A    
Cu2   O6    S    
C34   H1    S    
C10   C13   A    
C11   C34   A    
C7    C14   A    
Cu1   Cu2   S    
C30   F1    S    
C32   O7    A    
Cu2   O2    S    
H16   N1    S    
C1    O3    A    
