data_mof_unit_64415.cif
_audit_creation_date              2012-10-26T17:57:28-0400
_audit_creation_method            fapswitch 2.2
_symmetry_space_group_name_H-M    P1
_symmetry_Int_Tables_number       1
_space_group_crystal_system       triclinic
_cell_length_a                    21.443323
_cell_length_b                    21.426157
_cell_length_c                    47.269859
_cell_angle_alpha                 90.000197
_cell_angle_beta                  90.000205
_cell_angle_gamma                 89.157359
_cell_volume                      21715.6937492

loop_
_atom_site_label
_atom_site_type_symbol
_atom_type_description
_atom_site_fract_x
_atom_site_fract_y
_atom_site_fract_z
_atom_type_partial_charge
C1    C     C_R   0.120389 0.000239 0.500032 0.615244
C2    C     C_3   0.770349 0.979967 0.474571 0.210354
C3    C     C_R   0.385565 0.002920 0.735509 0.266414
C4    C     C_R   0.389326 0.972847 0.235022 0.266349
C5    C     C_R   0.103994 0.546507 0.235059 0.264846
C6    C     C_R   0.610676 0.027150 0.235022 0.266349
C7    C     C_R   0.895995 0.453525 0.235059 0.264847
C8    C     C_R   0.943071 0.494622 0.719885 0.002657
C9    C     C_R   0.557394 0.999654 0.720230 0.001393
C10   C     C_R   0.056931 0.505392 0.719886 0.002655
C11   C     C_R   0.442608 0.000348 0.720229 0.001394
C12   C     C_R   0.444175 0.987870 0.219765 0.002355
C13   C     C_3   0.946242 0.771429 0.487582 0.182964
C14   C     C_R   0.051925 0.523885 0.219782 -0.001112
C15   C     C_R   0.555827 0.012127 0.219765 0.002355
C16   C     C_R   0.948066 0.476141 0.219783 -0.001112
C17   C     C_R   0.000001 0.500007 0.734929 -0.121366
C18   C     C_R   0.500001 0.000001 0.735298 -0.120584
C19   C     C_R   0.500001 0.999999 0.234828 -0.120001
C20   C     C_R   0.999995 0.500015 0.234836 -0.120028
C21   C     C_R   0.944522 0.499584 0.689997 0.434113
C22   C     C_R   0.555468 0.001682 0.690251 0.437753
C23   C     C_R   0.055480 0.500432 0.689997 0.434115
C24   C     C_3   0.229650 0.020029 0.474571 0.210364
C25   C     C_R   0.444534 0.998319 0.690251 0.437753
C26   C     C_R   0.445195 0.992066 0.189827 0.437103
C27   C     C_R   0.049841 0.523804 0.189819 0.438011
C28   C     C_R   0.554807 0.007932 0.189827 0.437103
C29   C     C_R   0.950153 0.476212 0.189820 0.438011
C30   C     C_R   0.032618 0.545632 0.630080 -0.066203
C31   C     C_R   0.476797 0.051758 0.630815 -0.050309
C32   C     C_R   0.967382 0.454378 0.630081 -0.066203
C33   C     C_R   0.523205 0.948243 0.630815 -0.050300
C34   C     C_R   0.523151 0.051187 0.130002 -0.056339
C35   C     C_3   0.508404 0.729756 0.973142 0.208287
C36   C     C_R   0.975246 0.550998 0.130740 -0.047234
C37   C     C_R   0.476851 0.948812 0.130002 -0.056338
C38   C     C_R   0.024750 0.449008 0.130741 -0.047232
C39   C     C_R   0.034926 0.544428 0.600411 0.180923
C40   C     C_R   0.475643 0.051841 0.601181 0.198599
C41   C     C_R   0.965071 0.455581 0.600413 0.180922
C42   C     C_R   0.524358 0.948160 0.601181 0.198595
C43   C     C_R   0.525269 0.050601 0.100313 0.187244
C44   C     C_R   0.973833 0.550971 0.101123 0.203081
C45   C     C_R   0.474731 0.949398 0.100312 0.187245
C46   C     C_3   0.271409 0.462085 0.978888 0.198700
C47   C     C_R   0.026163 0.449032 0.101124 0.203081
C48   C     C_R   1.000000 0.500003 0.585507 0.042368
C49   C     C_R   0.500000 0.000000 0.585974 0.011682
C50   C     C_R   0.500000 1.000000 0.085443 0.041323
C51   C     C_R   0.999999 0.500001 0.085902 0.016299
C52   C     C_R   0.458360 0.039320 0.369626 0.280103
C53   C     C_R   0.043849 0.463298 0.369308 0.284364
C54   C     C_R   0.541641 0.960678 0.369626 0.280103
C55   C     C_R   0.956147 0.536735 0.369312 0.284370
C56   C     C_R   0.959807 0.540811 0.869668 0.273783
C57   C     C_3   0.491596 0.270243 0.973142 0.208287
C58   C     C_R   0.524783 0.948398 0.869999 0.283850
C59   C     C_R   0.040194 0.459191 0.869668 0.273780
C60   C     C_R   0.475217 0.051602 0.870000 0.283850
C61   C     C_R   0.500000 1.000000 0.414361 -0.067789
C62   C     C_R   1.000000 0.500008 0.414164 -0.051608
C63   C     C_R   1.000000 0.500000 0.914379 -0.066256
C64   C     C_R   0.500000 0.000000 0.914610 -0.048770
C65   C     C_R   0.500001 0.999999 0.354650 0.138094
C66   C     C_R   0.999997 0.500018 0.354450 0.144933
C67   C     C_R   0.000001 0.500001 0.854678 0.134337
C68   C     C_3   0.728591 0.537914 0.978888 0.198699
C69   C     C_R   0.500000 0.000000 0.855063 0.146324
C70   C     C_3   0.997957 0.230575 0.526604 0.187103
C71   C     C_3   0.768958 0.055909 0.505848 0.187212
C72   C     C_3   0.001991 0.769426 0.526606 0.187072
C73   C     C_3   0.231046 0.944087 0.505848 0.187209
C74   C     C_3   0.548998 0.729694 0.015817 0.179960
C75   C     C_3   0.267157 0.557346 0.995944 0.196042
C76   C     C_3   0.451002 0.270307 0.015816 0.179960
C77   C     C_3   0.732843 0.442653 0.995944 0.196043
C78   C     C_3   0.947533 0.271974 0.512313 -0.186954
C79   C     C_3   0.003852 0.270425 0.473249 0.257453
C80   C     C_3   0.728928 0.016532 0.526199 -0.201228
C81   C     C_3   0.052440 0.728026 0.512332 -0.186942
C82   C     C_3   0.271076 0.983465 0.526198 -0.201248
C83   C     C_3   0.494734 0.771353 0.026866 -0.203065
C84   C     C_3   0.227210 0.535537 0.021184 -0.189663
C85   C     C_3   0.505266 0.228647 0.026866 -0.203064
C86   C     C_3   0.772790 0.464463 0.021185 -0.189664
C87   C     C_3   0.000920 0.311525 0.499900 -0.035621
C88   C     C_3   0.688498 0.998046 0.500405 -0.047716
C89   C     C_3   0.999075 0.688476 0.499900 -0.035601
C90   C     C_3   0.730414 0.940485 0.494695 0.254325
C91   C     C_3   0.311503 0.001952 0.500405 -0.047729
C92   C     C_3   0.501380 0.811649 0.999862 -0.034613
C93   C     C_3   0.188190 0.497650 0.999957 -0.036242
C94   C     C_3   0.498620 0.188351 0.999862 -0.034612
C95   C     C_3   0.811810 0.502350 0.999958 -0.036244
C96   C     C_3   0.050649 0.269813 0.514272 0.217675
C97   C     C_3   0.728626 0.037464 0.480432 0.231849
C98   C     C_3   0.949317 0.730190 0.514254 0.217642
C99   C     C_3   0.271376 0.962533 0.480432 0.231847
C100  C     C_3   0.555492 0.770039 0.989176 0.236724
C101  C     C_3   0.996192 0.729573 0.473248 0.257476
C102  C     C_3   0.228250 0.519453 0.975037 0.237742
C103  C     C_3   0.444508 0.229961 0.989175 0.236725
C104  C     C_3   0.771749 0.480546 0.975037 0.237742
C105  C     C_3   0.444218 0.134026 0.348948 0.013176
C106  C     C_3   0.399727 0.173443 0.331107 -0.309963
C107  C     C_3   0.063212 0.369022 0.348948 0.022201
C108  C     C_3   0.110193 0.331376 0.331643 -0.308411
C109  C     C_3   0.555784 0.865972 0.348948 0.013176
C110  C     C_3   0.600275 0.826555 0.331107 -0.309964
C111  C     C_3   0.936785 0.631017 0.348957 0.022209
C112  C     C_R   0.000398 0.120388 0.500089 0.609417
C113  C     C_3   0.269585 0.059512 0.494695 0.254364
C114  C     C_3   0.889799 0.668674 0.331660 -0.308403
C115  C     C_3   0.949789 0.635866 0.848882 0.008925
C116  C     C_3   0.907012 0.677031 0.830989 -0.312663
C117  C     C_3   0.503388 0.855048 0.849798 0.017028
C118  C     C_3   0.531073 0.800728 0.833087 -0.307750
C119  C     C_3   0.050213 0.364138 0.848881 0.008927
C120  C     C_3   0.092991 0.322973 0.830987 -0.312665
C121  C     C_3   0.496612 0.144953 0.849800 0.017029
C122  C     C_3   0.468927 0.199274 0.833088 -0.307749
C123  C     C_3   0.131694 0.578426 0.588739 0.008229
C124  C     C_3   0.454228 0.771254 0.983993 0.244010
C125  C     C_3   0.166844 0.619295 0.568000 -0.367481
C126  C     C_3   0.387927 0.098811 0.584047 0.004518
C127  C     C_3   0.363601 0.153443 0.566491 -0.318345
C128  C     C_3   0.868294 0.421621 0.588735 0.008231
C129  C     C_3   0.833131 0.380746 0.568003 -0.367490
C130  C     C_3   0.612070 0.901194 0.584041 0.004543
C131  C     C_3   0.636392 0.846565 0.566482 -0.318378
C132  C     C_3   0.612318 0.103611 0.087946 -0.011553
C133  C     C_3   0.636776 0.154797 0.068815 -0.326037
C134  C     C_3   0.883572 0.594834 0.085020 0.013199
C135  C     C_3   0.231000 0.440016 0.003809 0.243855
C136  C     C_3   0.853926 0.656699 0.076235 -0.313568
C137  C     C_3   0.387683 0.896389 0.087945 -0.011552
C138  C     C_3   0.363224 0.845203 0.068814 -0.326036
C139  C     C_3   0.116425 0.405169 0.085023 0.013196
C140  C     C_3   0.146070 0.343305 0.076236 -0.313569
C141  C     C_3   0.983886 0.254825 0.573679 0.008534
C142  C     C_3   0.996168 0.231433 0.603541 -0.340904
C143  C     C_3   0.748724 0.154309 0.523680 0.010758
C144  C     C_3   0.773818 0.220136 0.526037 -0.350940
C145  C     C_3   0.015983 0.745174 0.573685 0.008400
C146  C     C_3   0.545772 0.228745 0.983993 0.244010
C147  C     C_3   0.003654 0.768570 0.603542 -0.340894
C148  C     C_3   0.251287 0.845694 0.523687 0.010768
C149  C     C_3   0.226208 0.779861 0.526042 -0.350881
C150  C     C_3   0.623080 0.750782 0.049621 0.001932
C151  C     C_3   0.683063 0.726751 0.063137 -0.332103
C152  C     C_3   0.234762 0.660039 0.992287 0.016850
C153  C     C_3   0.249196 0.720297 0.976812 -0.302189
C154  C     C_3   0.376920 0.249219 0.049620 0.001932
C155  C     C_3   0.316938 0.273251 0.063137 -0.332101
C156  C     C_3   0.765238 0.339961 0.992287 0.016851
C157  C     C_3   0.769000 0.559983 0.003809 0.243854
C158  C     C_3   0.750804 0.279702 0.976813 -0.302189
C159  C     C_3   0.141007 0.248541 0.539475 0.040371
C160  C     C_3   0.180976 0.274512 0.563152 -0.347970
C161  C     C_3   0.746252 0.114938 0.447451 0.040654
C162  C     C_3   0.722240 0.138817 0.419134 -0.309674
C163  C     C_3   0.858953 0.751440 0.539454 0.040163
C164  C     C_3   0.818620 0.725294 0.562962 -0.347890
C165  C     C_3   0.253756 0.885053 0.447453 0.040667
C166  C     C_3   0.277763 0.861179 0.419134 -0.309679
C167  C     C_3   0.655378 0.748334 0.973197 0.048107
C168  C     C_3   0.951598 0.230118 0.485640 0.201306
C169  C     C_3   0.705447 0.772570 0.953448 -0.286028
C170  C     C_3   0.244657 0.556909 0.929707 0.026548
C171  C     C_3   0.213385 0.594661 0.906302 -0.331223
C172  C     C_3   0.344621 0.251665 0.973196 0.048106
C173  C     C_3   0.294552 0.227428 0.953448 -0.286030
C174  C     C_3   0.755342 0.443089 0.929707 0.026550
C175  C     C_3   0.786612 0.405334 0.906303 -0.331225
C176  C     C_3   0.771618 0.959167 0.519926 0.186249
C177  C     C_3   0.048423 0.769880 0.485658 0.201290
C178  C     C_3   0.228383 0.040829 0.519926 0.186290
C179  C     C_3   0.448137 0.730125 0.010604 0.183542
C180  C     C_R   0.879612 0.999758 0.500032 0.615235
C181  C     C_3   0.270817 0.477700 0.024677 0.194280
C182  C     C_3   0.551863 0.269875 0.010604 0.183542
C183  C     C_3   0.729184 0.522301 0.024677 0.194279
C184  C     C_3   0.001176 0.188612 0.500140 -0.007662
C185  C     C_3   0.811409 0.998834 0.499927 -0.002099
C186  C     C_3   0.998820 0.811388 0.500140 -0.007616
C187  C     C_3   0.188591 0.001160 0.499928 -0.002102
C188  C     C_3   0.502295 0.688631 0.999877 -0.003643
C189  C     C_3   0.311161 0.500314 0.999818 -0.002877
C190  C     C_3   0.497704 0.311369 0.999877 -0.003643
C191  C     C_R   0.999600 0.879611 0.500089 0.609433
C192  C     C_3   0.688839 0.499686 0.999818 -0.002877
C193  C     C_R   0.456883 0.037717 0.399318 0.172250
C194  C     C_R   0.045399 0.464906 0.398978 0.197692
C195  C     C_R   0.543117 0.962282 0.399319 0.172250
C196  C     C_R   0.954601 0.535118 0.398981 0.197698
C197  C     C_R   0.958061 0.539034 0.899337 0.165692
C198  C     C_R   0.526476 0.949251 0.899694 0.182143
C199  C     C_R   0.041940 0.460967 0.899337 0.165691
C200  C     C_R   0.473524 0.050749 0.899694 0.182142
C201  C     C_R   1.000000 0.500000 0.554398 0.601481
C202  C     C_R   0.620485 0.498956 0.000022 0.612535
C203  C     C_R   0.500000 0.000000 0.554563 0.539304
C204  C     C_R   0.500000 0.000000 0.054375 0.597928
C205  C     C_R   1.000000 0.500000 0.054542 0.542864
C206  C     C_R   0.000325 0.379733 0.499926 0.603494
C207  C     C_R   0.620288 0.999432 0.500196 0.588293
C208  C     C_R   0.999675 0.620267 0.499926 0.603495
C209  C     C_R   0.379713 0.000567 0.500196 0.588298
C210  C     C_R   0.500385 0.879773 0.999910 0.610114
C211  C     C_R   0.120185 0.499330 0.999968 0.593883
C212  C     C_R   0.499615 0.120227 0.999910 0.610113
C213  C     C_R   0.501320 0.620378 0.000031 0.612108
C214  C     C_R   0.879815 0.500670 0.999968 0.593881
C215  C     C_R   1.000000 0.500002 0.445514 0.628589
C216  C     C_R   0.500000 1.000000 0.445583 0.635298
C217  C     C_R   0.500000 1.000000 0.945676 0.644706
C218  C     C_R   1.000000 0.500000 0.945588 0.639696
C219  C     C_R   0.551776 0.019204 0.309895 0.448236
C220  C     C_R   0.951407 0.473868 0.309897 0.447273
C221  C     C_R   0.448225 0.980794 0.309895 0.448235
C222  C     C_R   0.048581 0.526174 0.309896 0.447278
C223  C     C_R   0.053195 0.515001 0.809889 0.449614
C224  C     C_R   0.379515 0.501043 0.000022 0.612536
C225  C     C_R   0.444624 0.997090 0.810422 0.447427
C226  C     C_R   0.946808 0.485005 0.809888 0.449614
C227  C     C_R   0.555377 0.002912 0.810422 0.447427
C228  C     C_R   0.445169 0.984153 0.279978 -0.012600
C229  C     C_R   0.051521 0.524524 0.279975 -0.011772
C230  C     C_R   0.554833 0.015845 0.279979 -0.012600
C231  C     C_R   0.948467 0.475516 0.279975 -0.011771
C232  C     C_R   0.943856 0.489543 0.780025 -0.011418
C233  C     C_R   0.557344 0.000069 0.780473 -0.010750
C234  C     C_R   0.056146 0.510466 0.780025 -0.011418
C235  C     C_R   0.498681 0.379622 0.000031 0.612108
C236  C     C_R   0.442658 0.999933 0.780473 -0.010749
C237  C     C_R   0.000001 0.500006 0.645130 0.141949
C238  C     C_R   0.500001 0.000000 0.645705 0.142457
C239  C     C_R   0.500001 0.999999 0.145027 0.140550
C240  C     C_R   0.999998 0.500004 0.145512 0.146424
C241  C     C_R   0.500001 0.999999 0.264913 -0.129800
C242  C     C_R   0.999994 0.500018 0.264912 -0.127680
C243  C     C_R   0.000001 0.500005 0.764978 -0.131682
C244  C     C_R   0.500001 0.000001 0.765399 -0.128435
C245  C     C_R   0.389682 0.971571 0.264753 0.263916
C246  C     C_3   0.053776 0.228570 0.487602 0.182928
C247  C     C_R   0.103896 0.546526 0.264772 0.263472
C248  C     C_R   0.610320 0.028426 0.264753 0.263915
C249  C     C_R   0.896091 0.453513 0.264772 0.263474
C250  C     C_R   0.887204 0.483247 0.764835 0.264648
C251  C     C_R   0.614393 0.997220 0.765241 0.264489
C252  C     C_R   0.112798 0.516764 0.764836 0.264648
C253  C     C_R   0.385609 0.002782 0.765241 0.264490
C254  C     C_R   0.886850 0.485426 0.735113 0.266973
C255  C     C_R   0.614437 0.997082 0.735510 0.266414
C256  C     C_R   0.113152 0.514587 0.735114 0.266973
Cl1   Cl    Cl    0.814626 0.472146 0.717844 -0.397549
Cl2   Cl    Cl    0.796123 0.954448 0.440549 -0.376113
Cl3   Cl    Cl    0.878542 0.802068 0.470262 -0.395491
Cl4   Cl    Cl    0.203875 0.045544 0.440549 -0.376109
Cl5   Cl    Cl    0.516071 0.704535 0.937304 -0.451192
Cl6   Cl    Cl    0.300880 0.411702 0.951848 -0.536713
Cl7   Cl    Cl    0.483929 0.295464 0.937304 -0.451196
Cl8   Cl    Cl    0.699120 0.588297 0.951848 -0.536711
Cl9   Cl    Cl    0.006072 0.298467 0.437796 -0.420591
Cl10  Cl    Cl    0.705951 0.862806 0.487688 -0.409881
Cl11  Cl    Cl    0.994035 0.701522 0.437795 -0.420653
Cl12  Cl    Cl    0.688141 0.991137 0.718394 -0.387601
Cl13  Cl    Cl    0.294047 0.137191 0.487687 -0.409757
Cl14  Cl    Cl    0.392150 0.800131 0.962372 -0.508080
Cl15  Cl    Cl    0.207296 0.361307 0.008221 -0.585415
Cl16  Cl    Cl    0.607849 0.199869 0.962372 -0.508081
Cl17  Cl    Cl    0.792704 0.638693 0.008221 -0.585417
Cl18  Cl    Cl    0.886794 0.202215 0.466067 -0.549951
Cl19  Cl    Cl    0.801821 0.907435 0.546189 -0.616117
Cl20  Cl    Cl    0.113255 0.797783 0.466105 -0.550001
Cl21  Cl    Cl    0.198188 0.092556 0.546192 -0.616132
Cl22  Cl    Cl    0.378524 0.701857 0.026137 -0.554934
Cl23  Cl    Cl    0.185376 0.527870 0.717845 -0.397542
Cl24  Cl    Cl    0.297622 0.449144 0.057986 -0.544031
Cl25  Cl    Cl    0.621476 0.298143 0.026137 -0.554933
Cl26  Cl    Cl    0.702378 0.550857 0.057986 -0.544033
Cl27  Cl    Cl    0.398619 0.081712 0.417138 -0.416725
Cl28  Cl    Cl    0.103829 0.420028 0.416272 -0.414574
Cl29  Cl    Cl    0.601382 0.918287 0.417139 -0.416723
Cl30  Cl    Cl    0.896179 0.579999 0.416280 -0.414598
Cl31  Cl    Cl    0.900856 0.584569 0.917082 -0.461988
Cl32  Cl    Cl    0.559915 0.884935 0.917897 -0.460518
Cl33  Cl    Cl    0.099144 0.415431 0.917082 -0.461989
Cl34  Cl    Cl    0.311861 0.008866 0.718392 -0.387604
Cl35  Cl    Cl    0.440084 0.115065 0.917898 -0.460519
Cl36  Cl    Cl    0.317610 0.957390 0.282015 -0.355909
Cl37  Cl    Cl    0.172666 0.572190 0.281999 -0.354171
Cl38  Cl    Cl    0.682392 0.042607 0.282016 -0.355915
Cl39  Cl    Cl    0.827318 0.427859 0.282000 -0.354180
Cl40  Cl    Cl    0.814057 0.476774 0.782188 -0.383250
Cl41  Cl    Cl    0.687920 0.990497 0.782465 -0.374152
Cl42  Cl    Cl    0.185946 0.523237 0.782189 -0.383253
Cl43  Cl    Cl    0.312081 0.009506 0.782463 -0.374153
Cl44  Cl    Cl    0.319024 0.951603 0.217826 -0.375047
Cl45  Cl    Cl    0.171906 0.574755 0.217995 -0.361886
Cl46  Cl    Cl    0.680978 0.048394 0.217827 -0.375050
Cl47  Cl    Cl    0.828081 0.425278 0.217996 -0.361889
Cl48  Cl    Cl    0.121523 0.197930 0.470321 -0.395575
Cu1   Cu    Cu3+1 1.000000 0.000000 0.471910 1.233278
Cu2   Cu    Cu3+1 0.000050 0.437180 0.000030 1.085149
Cu3   Cu    Cu3+1 0.562820 0.000050 0.000030 1.078372
Cu4   Cu    Cu3+1 0.999950 0.562820 0.000030 1.085151
Cu5   Cu    Cu3+1 0.500000 0.500000 0.971910 1.179150
Cu6   Cu    Cu3+1 1.000000 0.000000 0.528200 1.154248
Cu7   Cu    Cu3+1 0.500000 0.500000 0.028200 1.219979
Cu8   Cu    Cu3+1 0.937180 0.499950 0.500030 1.095750
Cu9   Cu    Cu3+1 0.500050 0.937180 0.500030 1.085858
Cu10  Cu    Cu3+1 0.062820 0.500050 0.500030 1.095823
Cu11  Cu    Cu3+1 0.499950 0.062820 0.500030 1.085882
Cu12  Cu    Cu3+1 0.437180 0.999950 0.000030 1.078372
H1    H     H_    0.056561 0.582027 0.641457 0.158821
H2    H     H_    0.710508 0.029868 0.547328 0.132093
H3    H     H_    0.985879 0.269310 0.618967 0.125999
H4    H     H_    0.965944 0.191082 0.608249 0.182024
H5    H     H_    0.738178 0.137714 0.545432 0.145753
H6    H     H_    0.704983 0.156114 0.510953 0.153761
H7    H     H_    0.782912 0.239360 0.504654 0.197312
H8    H     H_    0.739135 0.250766 0.536897 0.100903
H9    H     H_    0.817813 0.219621 0.538445 0.171344
H10   H     H_    0.065710 0.730373 0.572197 0.149688
H11   H     H_    0.985788 0.704087 0.569985 0.184252
H12   H     H_    0.953979 0.783234 0.605707 0.171184
H13   H     H_    0.095788 0.709159 0.522126 0.129692
H14   H     H_    0.013911 0.730692 0.618973 0.126010
H15   H     H_    0.033876 0.808916 0.608262 0.182039
H16   H     H_    0.261815 0.862293 0.545440 0.145751
H17   H     H_    0.295037 0.843898 0.510966 0.153747
H18   H     H_    0.217146 0.760626 0.504657 0.197332
H19   H     H_    0.260885 0.749245 0.536913 0.100890
H20   H     H_    0.182197 0.780368 0.538438 0.171383
H21   H     H_    0.589582 0.762382 0.066868 0.156691
H22   H     H_    0.633974 0.793942 0.037525 0.150181
H23   H     H_    0.717869 0.715369 0.046504 0.207106
H24   H     H_    0.289498 0.970131 0.547327 0.132093
H25   H     H_    0.702456 0.763078 0.077244 0.103305
H26   H     H_    0.673731 0.684319 0.075837 0.221666
H27   H     H_    0.223903 0.671172 0.014746 0.166747
H28   H     H_    0.192376 0.640447 0.982179 0.157700
H29   H     H_    0.265471 0.709917 0.954982 0.189720
H30   H     H_    0.206541 0.750212 0.975668 0.102729
H31   H     H_    0.285552 0.746238 0.988320 0.245307
H32   H     H_    0.410419 0.237618 0.066867 0.156690
H33   H     H_    0.366025 0.206059 0.037524 0.150182
H34   H     H_    0.282132 0.284634 0.046504 0.207110
H35   H     H_    0.488339 0.789840 0.048612 0.163186
H36   H     H_    0.297545 0.236925 0.077243 0.103305
H37   H     H_    0.326272 0.315682 0.075837 0.221665
H38   H     H_    0.776097 0.328828 0.014746 0.166747
H39   H     H_    0.807624 0.359552 0.982180 0.157700
H40   H     H_    0.734528 0.290082 0.954983 0.189720
H41   H     H_    0.793458 0.249788 0.975668 0.102728
H42   H     H_    0.714447 0.253761 0.988320 0.245307
H43   H     H_    0.172432 0.232668 0.522166 0.237158
H44   H     H_    0.115620 0.207748 0.548058 0.206388
H45   H     H_    0.150824 0.290227 0.580966 0.157012
H46   H     H_    0.208218 0.564988 0.038577 0.155008
H47   H     H_    0.213819 0.237777 0.570906 0.146009
H48   H     H_    0.208196 0.314664 0.555293 0.177764
H49   H     H_    0.791495 0.090059 0.443671 0.202588
H50   H     H_    0.754255 0.155775 0.461370 0.195715
H51   H     H_    0.677820 0.165304 0.422148 0.167430
H52   H     H_    0.757131 0.170100 0.409450 0.159623
H53   H     H_    0.714061 0.098955 0.404640 0.214890
H54   H     H_    0.827774 0.767647 0.522117 0.237312
H55   H     H_    0.884387 0.792023 0.548210 0.206231
H56   H     H_    0.848513 0.709216 0.580800 0.157061
H57   H     H_    0.511661 0.210161 0.048612 0.163185
H58   H     H_    0.785827 0.762042 0.570746 0.145851
H59   H     H_    0.791335 0.685362 0.554922 0.177983
H60   H     H_    0.208506 0.909923 0.443676 0.202588
H61   H     H_    0.245767 0.844214 0.461372 0.195742
H62   H     H_    0.322190 0.834702 0.422145 0.167435
H63   H     H_    0.242876 0.829889 0.409452 0.159616
H64   H     H_    0.285928 0.901043 0.404640 0.214893
H65   H     H_    0.635207 0.705982 0.963396 0.219856
H66   H     H_    0.677928 0.735246 0.993529 0.193482
H67   H     H_    0.727530 0.814342 0.962810 0.164803
H68   H     H_    0.791783 0.435013 0.038578 0.155007
H69   H     H_    0.741810 0.735872 0.950082 0.186020
H70   H     H_    0.684492 0.785334 0.932713 0.218961
H71   H     H_    0.265155 0.514034 0.920109 0.222584
H72   H     H_    0.282598 0.585529 0.938823 0.172610
H73   H     H_    0.192822 0.638350 0.915163 0.152515
H74   H     H_    0.248278 0.606870 0.889928 0.146875
H75   H     H_    0.175873 0.567012 0.896313 0.210896
H76   H     H_    0.364792 0.294017 0.963395 0.219857
H77   H     H_    0.322073 0.264755 0.993528 0.193483
H78   H     H_    0.272469 0.185657 0.962811 0.164803
H79   H     H_    0.488237 0.127296 0.336730 0.145460
H80   H     H_    0.258189 0.264126 0.950082 0.186019
H81   H     H_    0.315506 0.214662 0.932713 0.218960
H82   H     H_    0.734845 0.485964 0.920109 0.222584
H83   H     H_    0.717400 0.414471 0.938824 0.172610
H84   H     H_    0.807174 0.361646 0.915165 0.152516
H85   H     H_    0.751719 0.393125 0.889929 0.146873
H86   H     H_    0.824125 0.432982 0.896314 0.210893
H87   H     H_    0.454416 0.159937 0.368808 0.174558
H88   H     H_    0.355518 0.181982 0.342821 0.208962
H89   H     H_    0.459230 0.092070 0.642304 0.162541
H90   H     H_    0.421276 0.218981 0.326178 0.125351
H91   H     H_    0.389365 0.148906 0.310980 0.180378
H92   H     H_    0.019194 0.372713 0.336530 0.153583
H93   H     H_    0.054049 0.343330 0.368975 0.210923
H94   H     H_    0.154525 0.325883 0.343600 0.208726
H95   H     H_    0.091378 0.284433 0.327070 0.139527
H96   H     H_    0.119562 0.355561 0.311327 0.175331
H97   H     H_    0.511765 0.872703 0.336730 0.145461
H98   H     H_    0.545585 0.840061 0.368808 0.174557
H99   H     H_    0.644484 0.818016 0.342822 0.208960
H100  H     H_    0.943436 0.417986 0.641459 0.158832
H101  H     H_    0.578726 0.781017 0.326178 0.125352
H102  H     H_    0.610638 0.851091 0.310981 0.180379
H103  H     H_    0.980797 0.627327 0.336534 0.153594
H104  H     H_    0.945961 0.656700 0.368985 0.210927
H105  H     H_    0.845473 0.674166 0.343622 0.208732
H106  H     H_    0.908616 0.715617 0.327088 0.139533
H107  H     H_    0.880418 0.644498 0.311343 0.175335
H108  H     H_    0.993446 0.627047 0.836643 0.142699
H109  H     H_    0.961219 0.661457 0.868685 0.168128
H110  H     H_    0.863253 0.687672 0.842720 0.203313
H111  H     H_    0.540772 0.907931 0.642303 0.162548
H112  H     H_    0.930582 0.721468 0.825940 0.122900
H113  H     H_    0.895463 0.652783 0.810926 0.183991
H114  H     H_    0.465149 0.876468 0.836967 0.150279
H115  H     H_    0.483600 0.836441 0.869838 0.198660
H116  H     H_    0.568851 0.777582 0.845484 0.209136
H117  H     H_    0.494323 0.766165 0.828522 0.133337
H118  H     H_    0.550480 0.817822 0.812770 0.177433
H119  H     H_    0.006557 0.372957 0.836640 0.142700
H120  H     H_    0.038781 0.338545 0.868683 0.168128
H121  H     H_    0.136749 0.312331 0.842719 0.203313
H122  H     H_    0.539646 0.091530 0.141423 0.165714
H123  H     H_    0.069421 0.278537 0.825937 0.122900
H124  H     H_    0.104541 0.347223 0.810925 0.183991
H125  H     H_    0.534851 0.123533 0.836968 0.150279
H126  H     H_    0.516400 0.163559 0.869840 0.198662
H127  H     H_    0.431149 0.222419 0.845485 0.209136
H128  H     H_    0.505677 0.233836 0.828524 0.133336
H129  H     H_    0.449521 0.182180 0.812771 0.177433
H130  H     H_    0.144192 0.528775 0.583987 0.157332
H131  H     H_    0.147282 0.590025 0.610543 0.160849
H132  H     H_    0.159175 0.669311 0.573201 0.135246
H133  H     H_    0.956233 0.590573 0.142295 0.157799
H134  H     H_    0.217584 0.608564 0.569277 0.119424
H135  H     H_    0.150609 0.610376 0.546076 0.173904
H136  H     H_    0.364375 0.100146 0.605048 0.160576
H137  H     H_    0.375704 0.054816 0.572855 0.132955
H138  H     H_    0.384605 0.151913 0.545019 0.201570
H139  H     H_    0.312180 0.151023 0.564503 0.170580
H140  H     H_    0.375618 0.198208 0.576849 0.164113
H141  H     H_    0.855822 0.471271 0.583972 0.157320
H142  H     H_    0.852694 0.410053 0.610541 0.160861
H143  H     H_    0.840761 0.330733 0.573219 0.135240
H144  H     H_    0.460356 0.908469 0.141422 0.165714
H145  H     H_    0.782398 0.391514 0.569269 0.119420
H146  H     H_    0.849390 0.389621 0.546078 0.173893
H147  H     H_    0.635633 0.899863 0.605039 0.160586
H148  H     H_    0.624283 0.945190 0.572847 0.132936
H149  H     H_    0.615371 0.848088 0.545013 0.201567
H150  H     H_    0.687811 0.848994 0.564485 0.170578
H151  H     H_    0.624390 0.801798 0.576843 0.164081
H152  H     H_    0.634221 0.058485 0.081192 0.155491
H153  H     H_    0.626610 0.114202 0.110049 0.167046
H154  H     H_    0.617214 0.200752 0.075497 0.203396
H155  H     H_    0.043762 0.409435 0.142297 0.157800
H156  H     H_    0.688427 0.156200 0.070192 0.132259
H157  H     H_    0.623230 0.145681 0.046530 0.192166
H158  H     H_    0.861971 0.580799 0.105490 0.150937
H159  H     H_    0.872972 0.559185 0.068632 0.163418
H160  H     H_    0.874506 0.672738 0.055996 0.211847
H161  H     H_    0.802928 0.651058 0.073502 0.166018
H162  H     H_    0.862111 0.692466 0.092776 0.157228
H163  H     H_    0.365779 0.941515 0.081192 0.155491
H164  H     H_    0.373391 0.885798 0.110048 0.167047
H165  H     H_    0.382787 0.799248 0.075495 0.203398
H166  H     H_    0.904168 0.290842 0.522090 0.129685
H167  H     H_    0.311573 0.843800 0.070191 0.132260
H168  H     H_    0.376769 0.854319 0.046530 0.192166
H169  H     H_    0.138026 0.419200 0.105493 0.150938
H170  H     H_    0.127025 0.440820 0.068636 0.163412
H171  H     H_    0.125491 0.327269 0.055996 0.211848
H172  H     H_    0.197069 0.348945 0.073503 0.166018
H173  H     H_    0.137886 0.307535 0.092775 0.157229
H174  H     H_    0.934158 0.269611 0.572172 0.149568
H175  H     H_    0.014077 0.295920 0.569990 0.184351
H176  H     H_    0.045842 0.216775 0.605723 0.171142
N1    N     N_R   0.500001 0.999999 0.324035 -0.398253
N2    N     N_R   0.999994 0.500021 0.323932 -0.396308
N3    N     N_R   0.000001 0.500002 0.824061 -0.397072
N4    N     N_R   0.500000 0.000001 0.824498 -0.395285
N5    N     N_R   0.000001 0.500007 0.675768 -0.402228
N6    N     N_R   0.500001 0.000000 0.676206 -0.406762
N7    N     N_R   0.500001 0.999999 0.175645 -0.402701
N8    N     N_R   0.999997 0.500006 0.175888 -0.411515
O1    O     O_R   0.091540 0.999980 0.476290 -0.480374
O2    O     O_R   0.000040 0.091500 0.523820 -0.478217
O3    O     O_R   0.908500 0.000040 0.523820 -0.477820
O4    O     O_R   0.999960 0.908500 0.523820 -0.478177
O5    O     O_R   0.591500 0.499960 0.023820 -0.458546
O6    O     O_R   0.500040 0.591500 0.023820 -0.469571
O7    O     O_R   0.408500 0.500040 0.023820 -0.458545
O8    O     O_R   0.499960 0.408500 0.023820 -0.469571
O9    O     O_R   0.946940 0.499940 0.541080 -0.512487
O10   O     O_R   0.500060 0.946940 0.541080 -0.489448
O11   O     O_R   0.053060 0.500060 0.541080 -0.512451
O12   O     O_R   0.000020 0.091540 0.476290 -0.464281
O13   O     O_R   0.499940 0.053060 0.541080 -0.489437
O14   O     O_R   0.446940 0.999940 0.041080 -0.525673
O15   O     O_R   0.000060 0.446940 0.041080 -0.482936
O16   O     O_R   0.553060 0.000060 0.041080 -0.525673
O17   O     O_R   0.999940 0.553060 0.041080 -0.482934
O18   O     O_R   0.946950 0.408380 0.500020 -0.526334
O19   O     O_R   0.591620 0.946950 0.500020 -0.470373
O20   O     O_R   0.053050 0.591620 0.500020 -0.526310
O21   O     O_R   0.408380 0.053050 0.500020 -0.470371
O22   O     O_R   0.446950 0.908380 0.000020 -0.489191
O23   O     O_R   0.908460 0.000020 0.476290 -0.480383
O24   O     O_R   0.091620 0.446950 0.000020 -0.447684
O25   O     O_R   0.553050 0.091620 0.000020 -0.489191
O26   O     O_R   0.908380 0.553050 0.000020 -0.447684
O27   O     O_R   0.052960 0.408390 0.500010 -0.447488
O28   O     O_R   0.591610 0.052960 0.500010 -0.507950
O29   O     O_R   0.947040 0.591610 0.500010 -0.447462
O30   O     O_R   0.408390 0.947040 0.500010 -0.507952
O31   O     O_R   0.552960 0.908390 0.000010 -0.475358
O32   O     O_R   0.091610 0.552960 0.000010 -0.534816
O33   O     O_R   0.447040 0.091610 0.000010 -0.475358
O34   O     O_R   0.999980 0.908460 0.476290 -0.464305
O35   O     O_R   0.908390 0.447040 0.000010 -0.534815
O36   O     O_R   0.946950 0.499970 0.458960 -0.455026
O37   O     O_R   0.500030 0.946950 0.458960 -0.461547
O38   O     O_R   0.053050 0.500030 0.458960 -0.455003
O39   O     O_R   0.499970 0.053050 0.458960 -0.461548
O40   O     O_R   0.446950 0.999970 0.958960 -0.459651
O41   O     O_R   0.000030 0.446950 0.958960 -0.466463
O42   O     O_R   0.553050 0.000030 0.958960 -0.459651
O43   O     O_R   0.999970 0.553050 0.958960 -0.466464
O44   O     O_2   0.599329 0.042481 0.325028 -0.379113
O45   O     O_R   0.591540 0.499980 0.976290 -0.495703
O46   O     O_2   0.906990 0.445586 0.325208 -0.374276
O47   O     O_2   0.400673 0.957517 0.325028 -0.379110
O48   O     O_2   0.092998 0.554458 0.325207 -0.374267
O49   O     O_2   0.102296 0.535355 0.824898 -0.392848
O50   O     O_2   0.392111 0.990369 0.825699 -0.381043
O51   O     O_2   0.897707 0.464649 0.824897 -0.392846
O52   O     O_2   0.607889 0.009633 0.825699 -0.381043
O53   O     O_2   0.891247 0.505486 0.675061 -0.424514
O54   O     O_2   0.608146 0.006239 0.674906 -0.409809
O55   O     O_2   0.108755 0.494531 0.675061 -0.424504
O56   O     O_R   0.500020 0.591540 0.976290 -0.479110
O57   O     O_2   0.391857 0.993762 0.674905 -0.409813
O58   O     O_2   0.391974 0.989679 0.174745 -0.418168
O59   O     O_2   0.096733 0.547262 0.174327 -0.394470
O60   O     O_2   0.608028 0.010320 0.174745 -0.418168
O61   O     O_2   0.903262 0.452748 0.174328 -0.394469
O62   O     O_3   0.416008 0.076481 0.355077 -0.465843
O63   O     O_3   0.087913 0.428455 0.354612 -0.479109
O64   O     O_3   0.583994 0.923517 0.355077 -0.465843
O65   O     O_3   0.912083 0.571584 0.354619 -0.479114
O66   O     O_3   0.919013 0.579765 0.855161 -0.468641
O67   O     O_R   0.408460 0.500020 0.976290 -0.495703
O68   O     O_3   0.550695 0.898465 0.855423 -0.479943
O69   O     O_3   0.080988 0.420238 0.855161 -0.468642
O70   O     O_3   0.449305 0.101535 0.855423 -0.479943
O71   O     O_3   0.066960 0.589809 0.585758 -0.583062
O72   O     O_3   0.453084 0.104148 0.587226 -0.537231
O73   O     O_3   0.933025 0.410205 0.585761 -0.583059
O74   O     O_3   0.546916 0.895851 0.587226 -0.537231
O75   O     O_3   0.546720 0.101858 0.085626 -0.576768
O76   O     O_3   0.948707 0.602284 0.087310 -0.536599
O77   O     O_3   0.453281 0.898142 0.085626 -0.576769
O78   O     O_R   0.499980 0.408460 0.976290 -0.479110
O79   O     O_3   0.051290 0.397718 0.087313 -0.536599
O80   O     O_3   0.996338 0.206142 0.554311 -0.534095
O81   O     O_3   0.794212 0.115348 0.510919 -0.526321
O82   O     O_3   0.003580 0.793862 0.554312 -0.534162
O83   O     O_3   0.205799 0.884644 0.510919 -0.526272
O84   O     O_3   0.598531 0.704093 0.031933 -0.521739
O85   O     O_3   0.286947 0.618899 0.990962 -0.501230
O86   O     O_3   0.401469 0.295908 0.031933 -0.521740
O87   O     O_3   0.713053 0.381101 0.990963 -0.501231
O88   O     O_3   0.100429 0.296067 0.529525 -0.545315
O89   O     O_R   0.091500 0.999960 0.523820 -0.477841
O90   O     O_3   0.700942 0.076246 0.459671 -0.532010
O91   O     O_3   0.899501 0.703919 0.529478 -0.545260
O92   O     O_3   0.299062 0.923754 0.459670 -0.532004
O93   O     O_3   0.610165 0.795783 0.977674 -0.510679
O94   O     O_3   0.199344 0.541096 0.949976 -0.531039
O95   O     O_3   0.389834 0.204217 0.977673 -0.510679
O96   O     O_3   0.800655 0.458902 0.949976 -0.531039

loop_
_geom_bond_atom_site_label_1
_geom_bond_atom_site_label_2
_ccdc_geom_bond_type
C138  H165  S    
C194  Cl28  S    
Cu3   O16   S    
C94   C146  S    
C85   C182  S    
C64   C198  A    
Cu8   O36   S    
Cu3   O42   S    
C62   C196  A    
C74   C83   S    
C79   C87   S    
C153  H30   S    
C215  O38   A    
C116  H110  S    
C145  O82   S    
C112  C184  S    
C54   C65   A    
C123  H130  S    
C173  H81   S    
Cu5   O78   S    
C116  H112  S    
C107  H93   S    
C56   O66   S    
C6    C248  A    
C35   C124  S    
C140  H172  S    
C143  O81   S    
C201  O9    A    
C37   C239  A    
C255  Cl12  S    
Cu1   Cu6   S    
C33   H111  S    
C90   C176  S    
C114  H105  S    
C70   O80   S    
C151  H25   S    
C220  O46   S    
C2    C90   S    
C133  H156  S    
C173  H80   S    
C28   O60   S    
C222  C229  A    
C93   C211  S    
C171  H74   S    
C167  H65   S    
C61   C216  S    
C236  C253  A    
C4    C12   A    
C5    C14   A    
C88   C97   S    
C208  O20   A    
C36   C44   A    
C237  N5    S    
C89   C101  S    
C76   C103  S    
Cu5   Cu7   S    
Cu8   O9    S    
C159  H44   S    
Cu9   O37   S    
C53   C194  A    
C143  H6    S    
C125  H134  S    
C223  O49   S    
C47   O79   S    
C211  O24   A    
C197  Cl31  S    
C37   H144  S    
C210  O31   A    
C125  H132  S    
C198  Cl32  S    
C227  C233  A    
C69   N4    S    
C154  H32   S    
C129  H143  S    
C180  O3    A    
C158  H40   S    
C111  O65   S    
C202  O5    A    
C108  H94   S    
C225  N4    A    
C74   C100  S    
C179  C188  S    
C115  H108  S    
C54   C195  A    
Cu2   O35   S    
C82   C91   S    
C63   C197  A    
C117  H114  S    
C85   H57   S    
C3    C253  A    
C174  H83   S    
C10   C17   A    
C132  H152  S    
C38   H155  S    
C16   C20   A    
C82   C178  S    
C154  H33   S    
C135  Cl15  S    
C252  Cl42  S    
C217  O42   A    
C206  O18   A    
C154  C155  S    
C77   O87   S    
C154  O86   S    
C64   C200  A    
C45   O77   S    
C86   C183  S    
C31   H89   S    
Cu7   O7    S    
C112  O12   A    
C221  O47   S    
C219  C230  A    
C37   C45   A    
C225  O50   S    
C25   O57   S    
C214  O26   A    
C27   O59   S    
C36   H133  S    
C208  O29   A    
C170  H72   S    
C130  H147  S    
C199  Cl33  S    
Cu10  O20   S    
C121  H126  S    
C77   C192  S    
Cu12  O22   S    
C141  H174  S    
C141  O80   S    
C183  Cl26  S    
C139  C140  S    
C175  H85   S    
C228  C245  A    
C28   N7    A    
C120  H121  S    
C24   Cl4   S    
C8    C17   A    
Cu3   O31   S    
C142  H4    S    
C212  O33   A    
C156  C158  S    
C130  C131  S    
C80   C88   S    
C214  O35   A    
C157  Cl17  S    
C229  C242  A    
C117  H115  S    
C22   O54   S    
C45   C50   A    
C226  C232  A    
C109  H98   S    
C156  H39   S    
C110  H101  S    
C74   O84   S    
C84   C93   S    
C169  H70   S    
C76   O86   S    
C161  O90   S    
C76   C190  S    
C86   C95   S    
C19   C241  A    
C38   C240  A    
C164  H56   S    
C91   C113  S    
C100  O93   S    
C111  H103  S    
C17   C243  A    
C174  H82   S    
Cu2   O15   S    
C119  H120  S    
C190  C235  S    
C4    Cl44  S    
Cu5   O56   S    
C134  H158  S    
C5    Cl45  S    
C76   C85   S    
C222  N2    A    
C133  H157  S    
C52   C65   A    
C143  C144  S    
C177  Cl20  S    
C4    C245  A    
C7    Cl47  S    
C78   C87   S    
C11   C18   A    
C94   C212  S    
C105  H79   S    
C232  C243  A    
C1    O89   A    
C92   C210  S    
C108  H96   S    
C220  N2    A    
C128  C129  S    
Cu4   O43   S    
C213  O6    A    
C167  C169  S    
C44   O76   S    
C138  H168  S    
Cu4   O17   S    
C71   C97   S    
C124  Cl14  S    
C64   C217  S    
C24   C187  S    
C144  H8    S    
C33   C42   A    
C126  H137  S    
C113  Cl13  S    
C96   O88   S    
C160  H48   S    
C152  H27   S    
C52   O62   S    
C75   C84   S    
Cu9   Cu11  S    
C170  C171  S    
C11   C25   A    
C123  H131  S    
C40   C49   A    
C22   N6    A    
C218  O43   A    
C174  C175  S    
C33   C238  A    
C59   C67   A    
C175  H84   S    
C200  Cl35  S    
Cu4   O26   S    
C35   C188  S    
C124  C179  S    
C32   C41   A    
Cu7   O5    S    
C136  H160  S    
C162  H52   S    
C169  H67   S    
C226  O51   S    
C168  Cl18  S    
C55   C196  A    
C193  Cl27  S    
C127  H140  S    
C171  H75   S    
C122  H127  S    
C9    C255  A    
C205  O17   A    
C148  H17   S    
C71   C185  S    
C174  O96   S    
C62   C194  A    
C29   N8    A    
C34   H122  S    
C139  H170  S    
C128  H141  S    
C1    C187  S    
C98   O91   S    
C120  H123  S    
C118  H117  S    
C145  H10   S    
C3    C11   A    
C179  Cl22  S    
C209  O30   A    
C60   C200  A    
C254  Cl1   S    
C25   N6    A    
Cu10  O27   S    
C110  H99   S    
C12   C26   A    
C149  H18   S    
C78   H166  S    
C70   C96   S    
C53   C66   A    
C164  H58   S    
C115  H109  S    
C39   O71   S    
C27   N8    A    
C159  O88   S    
Cu6   O3    S    
C209  O21   A    
C109  O64   S    
C155  H36   S    
C21   O53   S    
C53   O63   S    
C70   C184  S    
C31   C238  A    
C54   O64   S    
C59   O69   S    
C135  C181  S    
C46   C189  S    
C35   C100  S    
C231  C249  A    
C176  Cl19  S    
C61   C193  A    
C68   Cl8   S    
C106  H88   S    
C18   C244  A    
C26   N7    A    
C61   C195  A    
C102  O94   S    
C81   H13   S    
C220  C231  A    
C95   C157  S    
C156  O87   S    
C136  H161  S    
C93   C135  S    
C51   C205  S    
C43   C50   A    
C172  H77   S    
C182  C190  S    
C78   C168  S    
C83   C179  S    
C89   C98   S    
C172  O95   S    
C218  O41   A    
C142  H176  S    
C13   Cl3   S    
C2    C185  S    
C81   C177  S    
C144  H7    S    
C117  C118  S    
C65   N1    S    
C166  H62   S    
C119  H119  S    
C60   C69   A    
C30   C39   A    
C114  H106  S    
C160  H45   S    
C253  Cl43  S    
C86   H68   S    
C211  O32   A    
C229  C247  A    
C9    C18   A    
C115  O66   S    
C152  C153  S    
C156  H38   S    
C171  H73   S    
C95   C214  S    
C150  C151  S    
C1    O1    A    
C3    Cl34  S    
C91   C99   S    
C121  O70   S    
C201  O11   A    
C147  H14   S    
C105  H87   S    
C250  C254  A    
C49   C203  S    
C40   O72   S    
C62   C215  S    
C256  Cl23  S    
C240  N8    S    
C91   C209  S    
C83   H35   S    
C183  C192  S    
C131  H150  S    
C161  C162  S    
C189  C224  S    
C176  C185  S    
C191  O34   A    
C29   O61   S    
Cu9   O30   S    
C95   C104  S    
C20   C242  A    
C165  C166  S    
C7    C249  A    
C10   C256  A    
C107  H92   S    
C73   O83   S    
C149  H20   S    
C150  O84   S    
C75   C189  S    
C139  O79   S    
C92   C124  S    
C123  O71   S    
C140  H173  S    
C165  O92   S    
C123  C125  S    
C103  O95   S    
C127  H138  S    
C150  H22   S    
C129  H145  S    
C31   C40   A    
C167  O93   S    
C186  C191  S    
C155  H34   S    
C161  H50   S    
C6    Cl46  S    
C145  C147  S    
C46   C135  S    
C181  C189  S    
C228  C241  A    
C163  C164  S    
C2    C97   S    
Cu2   Cu4   S    
Cu12  O40   S    
C14   C27   A    
C207  O19   A    
C238  N6    S    
C72   C81   S    
C224  O7    A    
C81   C89   S    
C113  C178  S    
C246  Cl48  S    
C223  N3    A    
C57   C146  S    
C162  H53   S    
C225  C236  A    
C151  H23   S    
C212  O25   A    
C249  Cl39  S    
C96   C246  S    
C73   C187  S    
C74   C188  S    
C57   C103  S    
C250  Cl40  S    
Cu11  O21   S    
C121  H125  S    
C143  H5    S    
C14   C20   A    
C231  C242  A    
C130  H148  S    
C148  H16   S    
C140  H171  S    
Cu4   O32   S    
C146  C182  S    
C236  C244  A    
C239  N7    S    
C32   H100  S    
C160  H47   S    
Cu8   O18   S    
C79   C246  S    
C87   C206  S    
C131  H149  S    
C72   C98   S    
C223  C234  A    
C46   C102  S    
C233  C244  A    
C251  C255  A    
C159  C160  S    
C109  H97   S    
C110  H102  S    
C248  Cl38  S    
C195  Cl29  S    
C167  H66   S    
C169  H69   S    
C34   C239  A    
C153  H29   S    
C72   C186  S    
C121  C122  S    
C163  H54   S    
C178  C187  S    
C163  O91   S    
C7    C16   A    
C88   C90   S    
C94   C103  S    
Cu3   O25   S    
Cu2   O41   S    
C147  H12   S    
C125  H135  S    
C88   C207  S    
C134  H159  S    
C150  H21   S    
C222  O48   S    
C73   C82   S    
C55   C66   A    
C233  C251  A    
C56   C197  A    
C164  H59   S    
Cu11  O39   S    
C57   Cl7   S    
C13   C186  S    
C204  O14   A    
C130  O74   S    
C93   C102  S    
C181  Cl24  S    
C47   C51   A    
C119  C120  S    
C119  O69   S    
C58   C69   A    
C227  O52   S    
C105  C106  S    
C105  O62   S    
C35   Cl5   S    
Cu9   O19   S    
C118  H116  S    
C210  O22   A    
C109  C110  S    
C152  H28   S    
C178  Cl21  S    
C149  H19   S    
C15   C28   A    
C126  C127  S    
C12   C19   A    
Cu8   Cu10  S    
Cu11  O28   S    
C111  C114  S    
C75   O85   S    
C152  O85   S    
C101  C177  S    
C177  C186  S    
C32   C237  A    
C134  O76   S    
Cu8   O29   S    
Cu7   O8    S    
C77   C104  S    
C157  C183  S    
C107  O63   S    
C141  C142  S    
C80   H2    S    
C151  H26   S    
Cu1   O1    S    
C115  C116  S    
C221  N1    A    
C39   C48   A    
C112  O2    A    
C36   C240  A    
C148  O83   S    
C170  H71   S    
C97   O90   S    
C70   C78   S    
C24   C99   S    
C122  H128  S    
C207  O28   A    
C41   O73   S    
C99   O92   S    
C141  H175  S    
C182  Cl25  S    
C147  H15   S    
C175  H86   S    
C43   O75   S    
C139  H169  S    
C128  H142  S    
C83   C92   S    
C120  H124  S    
C221  C228  A    
C251  Cl41  S    
C165  H60   S    
C158  H41   S    
C142  H3    S    
C118  H118  S    
C63   C218  S    
C84   C181  S    
C90   Cl10  S    
C71   O81   S    
C82   H24   S    
C215  O36   A    
C131  H151  S    
C23   N5    A    
C9    C22   A    
C89   C208  S    
C68   C192  S    
C224  O67   A    
Cu9   O10   S    
C180  O23   A    
C23   O55   S    
C122  H129  S    
C21   N5    A    
C205  O15   A    
Cu12  O14   S    
C13   C98   S    
C226  N3    A    
C203  O10   A    
C6    C15   A    
C15   C19   A    
C111  H104  S    
C59   C199  A    
C132  C133  S    
C168  C184  S    
C127  H139  S    
C75   C102  S    
C145  H11   S    
C106  H91   S    
Cu6   O4    S    
C79   C168  S    
C196  Cl30  S    
C42   O74   S    
C234  C243  A    
C252  C256  A    
C216  O37   A    
C219  N1    A    
Cu6   O2    S    
C101  Cl11  S    
C24   C113  S    
C129  H146  S    
C204  O16   A    
C108  H95   S    
C5    C247  A    
C227  N4    A    
C67   N3    S    
C71   C80   S    
Cu1   O23   S    
C245  Cl36  S    
C138  H167  S    
Cu2   O24   S    
C213  O56   A    
C104  O96   S    
C126  H136  S    
Cu10  O11   S    
C136  H162  S    
C148  C149  S    
C80   C176  S    
C128  O73   S    
C30   H1    S    
C234  C252  A    
Cu1   O12   S    
C134  C136  S    
C132  H153  S    
Cu10  O38   S    
C16   C29   A    
C52   C193  A    
C48   C201  S    
C203  O13   A    
C163  H55   S    
C106  H90   S    
C85   C94   S    
C166  H63   S    
C107  C108  S    
C87   C96   S    
C126  O72   S    
C8    C21   A    
C219  O44   S    
Cu7   O6    S    
C114  H107  S    
C162  H51   S    
C137  H164  S    
Cu5   O45   S    
C38   C47   A    
C116  H113  S    
C133  H154  S    
C44   C51   A    
C173  H78   S    
C2    Cl2   S    
C77   C86   S    
Cu12  O33   S    
C137  O77   S    
C153  H31   S    
C232  C250  A    
C30   C237  A    
C13   C101  S    
C230  C248  A    
C172  C173  S    
C92   C100  S    
C68   C104  S    
C73   C99   S    
C137  H163  S    
C58   C198  A    
C184  C246  S    
Cu11  O13   S    
C159  H43   S    
C172  H76   S    
C202  O45   A    
C84   H46   S    
C188  C213  S    
C50   C204  S    
C10   C23   A    
C46   Cl6   S    
C56   C67   A    
C137  C138  S    
C247  Cl37  S    
C170  O94   S    
Cu6   O89   S    
C158  H42   S    
C146  Cl16  S    
C117  O68   S    
C57   C190  S    
C230  C241  A    
C206  O27   A    
C66   N2    S    
C191  O4    A    
C132  O75   S    
Cu1   O34   S    
C235  O8    A    
C166  H64   S    
C165  H61   S    
C8    C254  A    
C79   Cl9   S    
C41   C48   A    
C63   C199  A    
Cu5   O67   S    
C55   O65   S    
C161  H49   S    
C180  C185  S    
C26   O58   S    
C42   C49   A    
C216  O39   A    
C58   O68   S    
C192  C202  S    
C155  H37   S    
C217  O40   A    
C60   O70   S    
Cu3   Cu12  S    
C34   C43   A    
C72   O82   S    
C235  O78   A    
C144  H9    S    
C68   C157  S    
