data_mof_unit_19676.cif
_audit_creation_date              2012-12-11T15:32:34-0500
_audit_creation_method            fapswitch 2.2
_symmetry_space_group_name_H-M    P1
_symmetry_Int_Tables_number       1
_space_group_crystal_system       triclinic
_cell_length_a                    8.340456
_cell_length_b                    16.482321
_cell_length_c                    19.048782
_cell_angle_alpha                 108.108771
_cell_angle_beta                  86.01249
_cell_angle_gamma                 97.189047
_cell_volume                      2468.06115535

loop_
_atom_site_label
_atom_site_type_symbol
_atom_type_description
_atom_site_fract_x
_atom_site_fract_y
_atom_site_fract_z
_atom_type_partial_charge
Ba1   Ba    Ba6+2 0.640410 0.457420 0.526150 1.674362
Ba2   Ba    Ba6+2 0.169770 0.542590 0.473910 1.699414
C1    C     C_3   0.772650 0.241173 0.752115 -0.366436
C2    C     C_R   0.109130 0.251683 0.484089 -0.288628
C3    C     C_2   0.549004 0.863976 0.594984 -0.128553
C4    C     C_3   0.252541 0.234859 0.689434 0.261748
C5    C     C_2   0.559642 0.779722 0.561744 0.000554
C6    C     C_2   0.815414 0.809366 0.495218 -0.014832
C7    C     C_3   0.777062 0.900984 0.511366 -0.014176
C8    C     C_3   0.680281 0.931870 0.584471 0.096730
C9    C     C_2   0.915713 0.965725 0.503021 -0.056573
C10   C     C_2   0.885868 0.036437 0.487571 -0.086445
C11   C     C_R   0.162838 0.079190 0.442698 0.079790
C12   C     C_3   0.801546 0.268463 0.682707 0.367499
C13   C     C_R   0.014932 0.103291 0.477807 -0.053320
C14   C     C_R   0.280520 0.139950 0.426747 -0.071985
C15   C     C_R   0.253236 0.226502 0.446281 0.083444
C16   C     C_3   0.271824 0.145388 0.694277 -0.206954
C17   C     C_R   0.987823 0.190598 0.497863 -0.024684
C18   C     C_R   0.094087 0.464126 0.695540 -0.290458
C19   C     C_R   0.962297 0.509501 0.726426 0.055499
C20   C     C_R   0.912751 0.518263 0.801441 -0.114902
C21   C     C_R   0.001272 0.483344 0.844422 -0.064102
C22   C     C_R   0.137782 0.441723 0.812144 -0.119765
C23   C     C_3   0.959924 0.279733 0.333952 0.287902
C24   C     C_R   0.184969 0.433185 0.738527 -0.005292
C25   C     C_R   0.940467 0.420659 0.949528 -0.071477
C26   C     C_R   0.889983 0.427951 0.022702 -0.046760
C27   C     C_R   0.854717 0.507407 0.072138 0.047385
C28   C     C_3   0.325855 0.645524 0.702979 0.297571
C29   C     C_R   0.875837 0.579976 0.047420 -0.084357
C30   C     C_R   0.929563 0.572994 0.974592 -0.071965
C31   C     C_R   0.957410 0.492684 0.923996 0.029819
C32   C     C_R   0.661998 0.555508 0.182134 -0.100002
C33   C     C_R   0.605824 0.555444 0.253562 0.034870
C34   C     C_3   0.990324 0.186466 0.297207 -0.375154
C35   C     C_R   0.829781 0.477853 0.262051 0.025153
C36   C     C_R   0.884129 0.476348 0.190723 -0.116273
C37   C     C_R   0.799814 0.514028 0.149531 -0.015018
C38   C     C_R   0.688974 0.514870 0.291839 -0.280700
C39   C     C_3   0.279788 0.671052 0.785102 -0.368518
C40   C     C_3   0.510189 0.306728 0.278000 0.296280
C41   C     C_3   0.592563 0.230826 0.227247 -0.262806
C42   C     C_3   0.807623 0.725731 0.688799 0.273446
C43   C     C_3   0.726984 0.786133 0.756202 -0.235100
C44   C     C_2   0.444780 0.356740 0.234383 0.450701
C45   C     C_3   0.434376 0.775185 0.370111 0.409482
C46   C     C_2   0.914336 0.775442 0.646302 0.446736
C47   C     C_2   0.112303 0.090290 0.683251 0.464303
C48   C     C_2   0.821193 0.756202 0.316474 0.584965
C49   C     C_2   0.181135 0.701836 0.193289 0.545875
C50   C     C_2   0.710388 0.660719 0.479690 0.590068
C51   C     C_2   0.767046 0.560417 0.835474 0.543667
C52   C     C_2   0.395494 0.102082 0.638496 0.534102
C53   C     C_3   0.424618 0.866799 0.369183 -0.284151
C54   C     C_3   0.995019 0.741877 0.308121 0.243224
C55   C     C_3   0.064129 0.761994 0.236687 -0.234158
C56   C     C_2   0.698895 0.752220 0.511063 -0.323346
H1    H     H_    0.738433 0.326351 0.690806 0.095934
H2    H     H_    0.069239 0.314732 0.364093 0.035107
H3    H     H_    0.855344 0.281886 0.373589 0.047399
H4    H     H_    0.100566 0.183261 0.260737 0.154418
H5    H     H_    0.006452 0.155038 0.339435 0.051437
H6    H     H_    0.886878 0.150164 0.263324 0.121231
H7    H     H_    0.835704 0.184120 0.746499 0.137692
H8    H     H_    0.326190 0.754984 0.399284 0.104021
H9    H     H_    0.539436 0.775751 0.402431 -0.037042
H10   H     H_    0.382409 0.906241 0.424418 0.092845
H11   H     H_    0.543954 0.897413 0.356363 0.153505
H12   H     H_    0.233906 0.613874 0.801892 0.066961
H13   H     H_    0.339734 0.867507 0.327320 0.149649
H14   H     H_    0.005147 0.673460 0.302765 -0.021926
H15   H     H_    0.965884 0.755456 0.197985 0.038139
H16   H     H_    0.214285 0.229290 0.632974 0.010829
H17   H     H_    0.119762 0.829709 0.250134 0.145369
H18   H     H_    0.390283 0.118732 0.396742 0.086168
H19   H     H_    0.038429 0.957310 0.512607 0.122885
H20   H     H_    0.760895 0.045462 0.482649 0.122296
H21   H     H_    0.875454 0.370962 0.040391 0.085913
H22   H     H_    0.157490 0.261953 0.731119 -0.030365
H23   H     H_    0.599065 0.350357 0.316945 -0.047887
H24   H     H_    0.852784 0.642232 0.084720 0.073642
H25   H     H_    0.947625 0.630369 0.957485 0.089477
H26   H     H_    0.597314 0.586117 0.151789 0.103383
H27   H     H_    0.210179 0.417828 0.844895 0.080963
H28   H     H_    0.639475 0.508267 0.343897 0.049805
H29   H     H_    0.133193 0.457942 0.638919 0.057224
H30   H     H_    0.314097 0.153023 0.750384 0.078814
H31   H     H_    0.215341 0.618549 0.671110 0.014546
H32   H     H_    0.411746 0.596341 0.690819 0.065419
H33   H     H_    0.185034 0.715470 0.797446 0.150966
H34   H     H_    0.638506 0.195430 0.261150 0.084208
H35   H     H_    0.386152 0.703179 0.818446 0.134221
H36   H     H_    0.382872 0.411995 0.264047 0.022860
H37   H     H_    0.504670 0.185659 0.188430 0.130400
H38   H     H_    0.711465 0.685038 0.652710 0.012619
H39   H     H_    0.970997 0.740021 0.595379 0.074106
H40   H     H_    0.646167 0.748198 0.785753 0.141074
H41   H     H_    0.654088 0.828207 0.738944 0.087855
H42   H     H_    0.045581 0.080413 0.633919 0.009658
H43   H     H_    0.735882 0.709470 0.331358 -0.209853
H44   H     H_    0.145556 0.633143 0.176172 0.004798
H45   H     H_    0.693957 0.253319 0.194437 0.118514
H46   H     H_    0.452281 0.884096 0.635495 0.097158
H47   H     H_    0.688730 0.631126 0.422330 -0.065109
H48   H     H_    0.087189 0.318299 0.498633 0.067914
H49   H     H_    0.991336 0.445566 0.167274 0.085892
H50   H     H_    0.963723 0.358307 0.912522 0.073525
H51   H     H_    0.684223 0.531956 0.870016 0.004522
H52   H     H_    0.501032 0.083388 0.657214 0.021215
H53   H     H_    0.641496 0.225344 0.761691 0.139751
H54   H     H_    0.819394 0.826984 0.795062 0.148285
H55   H     H_    0.933510 0.284774 0.675009 -0.100959
H56   H     H_    0.819307 0.294276 0.800293 0.068148
O1    O     O_2   0.558990 0.288510 0.428270 -0.469837
O2    O     O_2   0.270170 0.568906 0.263092 -0.495483
O3    O     O_3   0.446198 0.718522 0.297692 -0.558778
O4    O     O_3   0.341190 0.396600 0.446070 -0.485194
O5    O     O_3   0.948410 0.543360 0.590820 -0.458522
O6    O     O_2   0.117990 0.459640 0.323300 -0.454249
O7    O     O_3   0.926118 0.314864 0.279124 -0.647793
O8    O     O_2   0.147418 0.812439 0.507300 -0.488531
O9    O     O_3   0.077267 0.797120 0.370588 -0.632140
O10   O     O_3   0.809080 0.340350 0.563320 -0.496356
O11   O     O_2   0.652819 0.190145 0.489927 -0.450248
O12   O     O_3   0.906263 0.678250 0.713689 -0.625376
O13   O     O_3   0.377761 0.273333 0.313518 -0.671633
O14   O     O_3   0.740127 0.201278 0.621948 -0.587993
O15   O     O_2   0.692320 0.540420 0.676730 -0.447176
O16   O     O_3   0.406060 0.383660 0.606030 -0.462578
O17   O     O_2   0.519403 0.447173 0.740424 -0.497656
O18   O     O_2   0.458111 0.336653 0.166856 -0.595413
O19   O     O_2   0.939248 0.853771 0.667658 -0.565375
O20   O     O_2   0.055760 0.057241 0.729984 -0.529149
O21   O     O_2   0.778430 0.821953 0.310816 -0.589245
O22   O     O_2   0.313339 0.729652 0.173575 -0.537168
O23   O     O_3   0.399492 0.287718 0.705885 -0.587846
O24   O     O_2   0.763298 0.621047 0.515585 -0.551112
O25   O     O_2   0.742281 0.629034 0.829098 -0.588378
O26   O     O_2   0.378626 0.087158 0.572374 -0.592757
O27   O     O_2   0.251320 0.711540 0.571760 -0.455880
O28   O     O_3   0.469110 0.603410 0.553990 -0.476676
O29   O     O_3   0.001220 0.659660 0.436740 -0.466472
O30   O     O_3   0.398515 0.718704 0.686094 -0.639522
O31   O     O_3   0.861890 0.456640 0.409240 -0.451104
O32   O     O_3   0.404240 0.616350 0.394030 -0.521814
P1    P     P_3+3 0.391560 0.302240 0.409860 0.983151
P2    P     P_3+3 0.873530 0.566630 0.670640 1.058725
P3    P     P_3+3 0.374846 0.388717 0.698773 0.957934
P4    P     P_3+3 0.418740 0.697770 0.590200 0.989354
P5    P     P_3+3 0.430561 0.612160 0.300958 0.968980
P6    P     P_3+3 0.796230 0.229183 0.541559 0.982835
P7    P     P_3+3 0.932215 0.426365 0.316528 0.958470
P8    P     P_3+3 0.010869 0.770891 0.451949 0.930686

loop_
_geom_bond_atom_site_label_1
_geom_bond_atom_site_label_2
_ccdc_geom_bond_type
Ba2   P4    S    
C47   O20   D    
Ba1   O31   S    
C28   H32   S    
C53   H10   S    
Ba2   O4    S    
C43   H54   S    
C12   O14   S    
C25   C31   A    
C49   H44   S    
C13   C17   A    
C46   H39   S    
C42   O12   S    
C29   H24   S    
O7    P7    S    
C42   H38   S    
C26   C27   A    
C15   P1    S    
C22   C24   A    
C32   C33   A    
C35   C38   A    
Ba1   O15   S    
C43   H40   S    
C44   O18   D    
C36   C37   A    
C55   H15   S    
C32   H26   S    
C18   H29   S    
O1    P1    D    
C28   O30   S    
C54   C55   S    
C52   H52   S    
Ba1   Ba2   S    
C40   C44   S    
C38   H28   S    
C36   H49   S    
C26   H21   S    
O15   P2    D    
O30   P4    S    
Ba1   O28   S    
C9    H19   S    
C6    C56   D    
C2    C17   A    
C4    H22   S    
O14   P6    S    
C39   H35   S    
C1    H53   S    
C14   C15   A    
C21   C31   S    
C10   H20   S    
C41   H37   S    
C21   C22   A    
C28   C39   S    
C49   C55   S    
C23   H2    S    
C34   H5    S    
C6    P8    S    
C7    C8    S    
C5    C56   S    
O31   P7    S    
O10   P6    S    
C3    H46   S    
C51   O25   D    
C19   C20   A    
Ba2   O29   S    
O8    P8    D    
O23   P3    S    
C1    H7    S    
C40   H23   S    
C33   P5    S    
C28   H31   S    
C34   H4    S    
C45   H9    S    
O27   P4    D    
C4    H16   S    
C20   C51   S    
C4    C16   S    
C52   O26   D    
C32   C37   A    
C54   O9    S    
C35   P7    S    
C46   O19   D    
Ba1   O16   S    
C43   H41   S    
C3    C5    D    
Ba2   O6    S    
C6    C7    S    
O29   P8    S    
C54   H14   S    
O5    P2    S    
C16   H30   S    
C2    H48   S    
C48   C54   S    
Ba2   O31   S    
C19   P2    S    
Ba1   O5    S    
C35   C36   A    
C12   H1    S    
O11   P6    D    
C5    P4    S    
C49   O22   D    
C50   O24   D    
C29   C30   A    
C44   H36   S    
C10   C13   S    
C9    C10   D    
C27   C37   S    
O16   P3    S    
C17   P6    S    
O3    P5    S    
C23   H3    S    
C7    C9    S    
C53   H11   S    
C1    C12   S    
C50   C56   S    
C40   O13   S    
C2    C15   A    
C39   H33   S    
C50   H47   S    
C11   C13   A    
Ba2   O28   S    
Ba1   P1    S    
C40   C41   S    
C42   C43   S    
C45   C53   S    
C22   H27   S    
C51   H51   S    
C30   H25   S    
O4    P1    S    
O12   P2    S    
C45   H8    S    
C14   H18   S    
C24   P3    S    
C1    H56   S    
Ba2   O5    S    
Ba2   O32   S    
C12   H55   S    
C41   H34   S    
C48   O21   D    
C30   C31   A    
O28   P4    S    
C4    O23   S    
C33   C38   A    
Ba1   O10   S    
C3    C8    S    
C27   C29   A    
C47   H42   S    
C55   H17   S    
C18   C24   A    
C25   H50   S    
O6    P7    D    
Ba1   O4    S    
C41   H45   S    
O17   P3    D    
C16   C52   S    
C23   C34   S    
O32   P5    S    
C45   O3    S    
C18   C19   A    
C48   H43   S    
C11   C14   A    
C25   C26   A    
Ba2   O27   S    
C20   C21   A    
Ba1   P2    S    
Ba1   O1    S    
C34   H6    S    
C23   O7    S    
O2    P5    D    
C53   H13   S    
C42   C46   S    
C16   C47   S    
O13   P1    S    
C39   H12   S    
O9    P8    S    
