data_mof_unit_59292.cif
_audit_creation_date              2012-12-11T14:49:51-0500
_audit_creation_method            fapswitch 2.2
_symmetry_space_group_name_H-M    P1
_symmetry_Int_Tables_number       1
_space_group_crystal_system       triclinic
_cell_length_a                    16.835495
_cell_length_b                    16.658666
_cell_length_c                    19.599706
_cell_angle_alpha                 116.66687
_cell_angle_beta                  63.4893
_cell_angle_gamma                 100.069737
_cell_volume                      4393.43320597

loop_
_atom_site_label
_atom_site_type_symbol
_atom_type_description
_atom_site_fract_x
_atom_site_fract_y
_atom_site_fract_z
_atom_type_partial_charge
C1    C     C_R   0.054290 0.754426 0.996744 -0.118808
C2    C     C_R   0.251508 0.527508 0.828414 0.505258
C3    C     C_R   0.182037 0.491475 0.089921 -0.119365
C4    C     C_R   0.760338 0.426707 0.165357 -0.143138
C5    C     C_R   0.986786 0.342774 0.761399 0.415279
C6    C     C_R   0.254383 0.544868 0.071390 0.061081
C7    C     C_R   0.934808 0.269030 0.764313 -0.146969
C8    C     C_R   0.255783 0.469239 0.748181 -0.118040
C9    C     C_R   0.013285 0.225013 0.020991 0.052472
C10   C     C_R   0.006204 0.140492 0.639221 -0.375985
C11   C     C_R   0.930844 0.196120 0.691433 -0.098722
C12   C     C_R   0.761409 0.452251 0.241579 0.076454
C13   C     C_R   0.857120 0.183086 0.672867 0.513478
C14   C     C_R   0.860086 0.110017 0.598732 -0.064695
C15   C     C_R   0.937587 0.053818 0.544797 -0.032929
C16   C     C_R   0.806238 0.562218 0.960548 -0.102123
C17   C     C_R   0.010822 0.069200 0.565815 -0.001078
C18   C     C_R   0.787974 0.092514 0.577193 -0.349776
C19   C     C_R   0.792315 0.021473 0.501804 0.531659
C20   C     C_R   0.868119 0.962857 0.449203 -0.201892
C21   C     C_R   0.941822 0.981393 0.470456 -0.030154
C22   C     C_R   0.020495 0.927274 0.417147 0.117400
C23   C     C_R   0.724988 0.549373 0.018344 0.023367
C24   C     C_R   0.092519 0.943330 0.438169 -0.368973
C25   C     C_R   0.087316 0.012785 0.513555 0.543260
C26   C     C_R   0.873517 0.885947 0.375838 0.488545
C27   C     C_R   0.954030 0.836384 0.323293 -0.091670
C28   C     C_R   0.955221 0.672864 0.245967 -0.145163
C29   C     C_R   0.026401 0.856708 0.343255 -0.278821
C30   C     C_R   0.393749 0.393639 0.630162 -0.361347
C31   C     C_R   0.326900 0.458703 0.669157 -0.041089
C32   C     C_R   0.324391 0.511962 0.631382 0.474691
C33   C     C_R   0.391687 0.500672 0.553401 -0.040106
C34   C     C_R   0.964925 0.757837 0.248434 0.156984
C35   C     C_R   0.464582 0.441938 0.518106 -0.032537
C36   C     C_R   0.465405 0.387762 0.556258 0.157735
C37   C     C_R   0.389178 0.549644 0.511873 -0.156036
C38   C     C_R   0.461400 0.545889 0.439176 -0.238285
C39   C     C_R   0.536435 0.493540 0.407922 0.153628
C40   C     C_R   0.739007 0.483172 0.036773 -0.092759
C41   C     C_R   0.537929 0.439817 0.446184 0.066447
C42   C     C_R   0.614048 0.386677 0.414195 0.140060
C43   C     C_R   0.613587 0.331389 0.451068 -0.216885
C44   C     C_R   0.538898 0.331103 0.521424 -0.185437
C45   C     C_R   0.247093 0.572711 0.017346 -0.092783
C46   C     C_R   0.611079 0.495723 0.339986 -0.284844
C47   C     C_R   0.686962 0.446762 0.311555 0.110655
C48   C     C_R   0.689541 0.391519 0.346801 -0.274312
C49   C     C_R   0.639357 0.593767 0.051581 0.125264
C50   C     C_R   0.321855 0.574681 0.106568 0.000296
C51   C     C_R   0.407227 0.552546 0.169787 -0.423476
C52   C     C_R   0.023315 0.751965 0.169617 -0.129568
C53   C     C_R   0.328358 0.539899 0.158181 0.570074
C54   C     C_R   0.389041 0.629829 0.077431 -0.372027
C55   C     C_R   0.470157 0.631811 0.080135 0.200170
C56   C     C_R   0.920100 0.262454 0.837210 0.459052
C57   C     C_R   0.480219 0.589718 0.123998 0.150508
C58   C     C_R   0.564759 0.575844 0.113360 -0.237838
C59   C     C_R   0.628769 0.644546 0.015004 -0.173552
C60   C     C_R   0.544002 0.665506 0.030997 -0.199254
C61   C     C_R   0.155009 0.091206 0.831215 0.089197
C62   C     C_R   0.028928 0.841368 0.926836 0.125105
C63   C     C_R   0.993229 0.913890 0.859517 -0.230779
C64   C     C_R   0.838839 0.495025 0.241898 -0.147085
C65   C     C_R   0.976054 0.849333 0.891080 -0.168655
C66   C     C_R   0.097634 0.902080 0.933303 -0.288932
C67   C     C_R   0.170504 0.454054 0.754068 -0.092007
C68   C     C_R   0.115893 0.966575 0.900939 0.186012
C69   C     C_R   0.063756 0.971864 0.862938 0.198011
C70   C     C_R   0.083866 0.034397 0.828204 -0.288638
C71   C     C_R   0.206158 0.086559 0.869204 -0.144265
C72   C     C_R   0.186808 0.024624 0.904095 -0.234973
C73   C     C_R   0.975444 0.686046 0.921781 -0.129492
C74   C     C_R   0.015060 0.766723 0.952647 0.046255
C75   C     C_3   0.858620 0.123148 0.822982 0.300957
C76   C     C_3   0.808366 0.069969 0.874996 -0.949427
C77   C     C_3   0.401203 0.530593 0.801876 0.267455
C78   C     C_R   0.042433 0.308952 0.061665 -0.130743
C79   C     C_3   0.460197 0.568183 0.848975 -0.954849
C80   C     C_3   0.034835 0.338278 0.629332 0.233279
C81   C     C_3   0.070912 0.400594 0.585090 -0.884467
C82   C     C_3   0.781118 0.309720 0.715342 0.240617
C83   C     C_3   0.693366 0.362519 0.775297 -0.867852
C84   C     C_3   0.724770 0.069285 0.448336 0.317277
C85   C     C_3   0.649417 0.051816 0.421170 -0.863075
C86   C     C_3   0.749066 0.803278 0.389722 0.345142
C87   C     C_3   0.679407 0.764470 0.354882 -0.872529
C88   C     C_3   0.152379 0.973441 0.574043 0.244422
C89   C     C_R   0.964047 0.240338 0.986385 -0.115673
C90   C     C_3   0.226431 0.995215 0.603407 -0.868898
C91   C     C_3   0.275303 0.658061 0.715818 0.238454
C92   C     C_3   0.212916 0.726726 0.732053 -0.870486
C93   C     C_3   0.281994 0.420221 0.196603 0.259018
C94   C     C_3   0.203615 0.358668 0.208219 -0.933510
H1    H     H_    0.078502 0.323456 0.099448 0.098483
H2    H     H_    0.139415 0.897300 0.960291 0.122763
H3    H     H_    0.690675 0.454076 0.077264 0.092617
H4    H     H_    0.050793 0.807080 0.152207 0.104737
H5    H     H_    0.863088 0.515460 0.289752 0.098783
H6    H     H_    0.952642 0.665949 0.873024 0.102438
H7    H     H_    0.102065 0.797331 0.018217 0.089111
H8    H     H_    0.928517 0.096259 0.784438 0.059454
H9    H     H_    0.825576 0.111591 0.781628 0.142129
H10   H     H_    0.739003 0.096908 0.916303 0.274944
H11   H     H_    0.807017 0.998325 0.832527 0.213201
H12   H     H_    0.157483 0.467985 0.138492 0.170205
H13   H     H_    0.841207 0.073458 0.914235 0.245142
H14   H     H_    0.151258 0.416656 0.702990 0.161115
H15   H     H_    0.927842 0.190817 0.954032 0.149133
H16   H     H_    0.434771 0.541711 0.743662 0.119584
H17   H     H_    0.395056 0.457577 0.787070 0.094882
H18   H     H_    0.435915 0.547640 0.901308 0.257896
H19   H     H_    0.529192 0.540891 0.805856 0.222971
H20   H     H_    0.460563 0.642667 0.874122 0.261645
H21   H     H_    0.986283 0.294809 0.605992 0.100693
H22   H     H_    0.091480 0.296123 0.611723 0.103775
H23   H     H_    0.086954 0.815114 0.301605 0.156080
H24   H     H_    0.120295 0.445643 0.606032 0.277236
H25   H     H_    0.103630 0.360294 0.516065 0.212990
H26   H     H_    0.015804 0.442148 0.599566 0.253117
H27   H     H_    0.061596 0.153951 0.656672 0.185480
H28   H     H_    0.790058 0.288805 0.649711 0.069387
H29   H     H_    0.834908 0.355207 0.726536 0.149512
H30   H     H_    0.683607 0.386089 0.841381 0.266128
H31   H     H_    0.693502 0.421852 0.763535 0.203687
H32   H     H_    0.637597 0.319407 0.765673 0.251362
H33   H     H_    0.727996 0.134544 0.618096 0.185730
H34   H     H_    0.391767 0.351045 0.659505 0.148685
H35   H     H_    0.713237 0.383588 0.142779 0.111248
H36   H     H_    0.788760 0.060438 0.392250 0.094309
H37   H     H_    0.717199 0.140027 0.496382 0.057654
H38   H     H_    0.584508 0.060502 0.475821 0.249192
H39   H     H_    0.651511 0.099976 0.395531 0.200717
H40   H     H_    0.656092 0.982277 0.371781 0.268482
H41   H     H_    0.714533 0.840951 0.459142 0.116850
H42   H     H_    0.788109 0.746109 0.375680 0.044962
H43   H     H_    0.712247 0.725018 0.285694 0.252735
H44   H     H_    0.636283 0.719502 0.383829 0.199757
H45   H     H_    0.332640 0.592746 0.536488 0.168648
H46   H     H_    0.637591 0.819540 0.369268 0.263619
H47   H     H_    0.152534 0.901217 0.396728 0.160062
H48   H     H_    0.159399 0.901017 0.529785 0.100153
H49   H     H_    0.087723 0.985889 0.630231 0.075976
H50   H     H_    0.220590 0.067011 0.648313 0.250033
H51   H     H_    0.221739 0.952608 0.635251 0.214191
H52   H     H_    0.292068 0.982096 0.548777 0.259486
H53   H     H_    0.344641 0.675522 0.682471 0.082169
H54   H     H_    0.266900 0.663397 0.777246 0.130484
H55   H     H_    0.143079 0.712317 0.766261 0.266833
H56   H     H_    0.571702 0.541604 0.146110 0.114993
H57   H     H_    0.228336 0.795213 0.770131 0.216728
H58   H     H_    0.221161 0.723898 0.671546 0.245512
H59   H     H_    0.459747 0.586051 0.408974 0.133657
H60   H     H_    0.611300 0.537169 0.310078 0.132555
H61   H     H_    0.819567 0.607945 0.931838 0.092493
H62   H     H_    0.749468 0.352643 0.321514 0.130842
H63   H     H_    0.671179 0.289491 0.426240 0.126564
H64   H     H_    0.539729 0.289033 0.550203 0.129484
H65   H     H_    0.414664 0.526553 0.208346 0.132850
H66   H     H_    0.536903 0.699403 0.997914 0.130517
H67   H     H_    0.685083 0.662602 0.969607 0.116239
H68   H     H_    0.301272 0.438963 0.249097 0.113381
H69   H     H_    0.337761 0.381691 0.135467 0.089412
H70   H     H_    0.185696 0.334189 0.154263 0.240848
H71   H     H_    0.221581 0.299842 0.211487 0.220257
H72   H     H_    0.145506 0.395352 0.267286 0.264782
H73   H     H_    0.383729 0.662828 0.043200 0.149394
H74   H     H_    0.920933 0.654577 0.298192 0.094406
H75   H     H_    0.260975 0.131030 0.871409 0.122466
H76   H     H_    0.952122 0.917594 0.831338 0.130269
H77   H     H_    0.921579 0.805000 0.886650 0.117154
H78   H     H_    0.045129 0.039158 0.798436 0.121140
H79   H     H_    0.281257 0.627111 0.001536 0.155513
H80   H     H_    0.227573 0.021616 0.932850 0.129813
N1    N     N_R   0.036080 0.671900 0.995420 -0.043933
N2    N     N_R   0.867430 0.509300 0.948100 -0.039894
N3    N     N_R   0.003360 0.617250 0.167070 -0.043691
N4    N     N_R   0.825450 0.461270 0.995400 -0.038639
N5    N     N_R   0.045340 0.665280 0.119770 -0.049124
N6    N     N_R   0.883740 0.497640 0.167070 -0.039666
N7    N     N_R   0.987050 0.628910 0.948110 -0.037330
N8    N     N_R   0.174550 0.538730 0.004600 -0.051265
N9    N     N_R   0.954660 0.334720 0.880230 -0.120026
N10   N     N_R   0.116260 0.502360 0.832930 -0.066042
N11   N     N_R   0.012950 0.371090 0.051890 -0.047716
N12   N     N_R   0.963920 0.328100 0.004580 -0.041092
N13   N     N_R   0.165290 0.545350 0.880240 -0.089984
N14   N     N_R   0.132570 0.490700 0.051900 -0.060331
N15   N     N_R   0.996640 0.382750 0.832930 -0.116921
N16   N     N_R   0.834710 0.454650 0.119760 -0.039649
Ni1   Ni    Ni4+2 0.104370 0.604370 0.000010 0.220487
Ni2   Ni    Ni4+2 0.895630 0.395630 0.999990 0.255163
Ni3   Ni    Ni4+2 0.991920 0.505780 0.891500 0.253827
Ni4   Ni    Ni4+2 0.008080 0.494220 0.108500 0.203520
O1    O     O_3   0.853414 0.215573 0.876775 -0.621893
O2    O     O_3   0.317967 0.576838 0.851768 -0.666968
O3    O     O_3   0.992446 0.390532 0.716913 -0.635608
O4    O     O_3   0.779867 0.234720 0.731227 -0.619476
O5    O     O_3   0.720692 0.008327 0.481690 -0.611214
O6    O     O_3   0.803190 0.860735 0.352724 -0.604519
O7    O     O_3   0.159097 0.028183 0.533845 -0.627543
O8    O     O_3   0.253366 0.571235 0.668834 -0.637285
O9    O     O_3   0.256204 0.498331 0.199147 -0.655361

loop_
_geom_bond_atom_site_label_1
_geom_bond_atom_site_label_2
_ccdc_geom_bond_type
C61   C70   A    
C76   H10   S    
C73   H6    S    
C66   C68   A    
C63   C65   A    
C93   C94   S    
C6    C45   A    
C1    H7    S    
C27   C29   A    
C44   H64   S    
C41   C42   A    
C14   C18   A    
C35   C36   A    
C54   H73   S    
C75   C76   S    
C10   H27   S    
C3    N14   A    
C94   H72   S    
C91   H53   S    
N11   N12   A    
N6    Ni4   S    
C58   H56   S    
C39   C41   A    
C7    C11   S    
C81   H26   S    
C26   C27   A    
C53   O9    S    
C79   H18   S    
C65   H77   S    
C1    C74   A    
C22   C29   A    
C77   O2    S    
C87   H43   S    
C82   O4    S    
C90   H51   S    
C25   O7    S    
C85   H38   S    
N1    Ni1   S    
C30   C31   A    
C64   N6    A    
C67   H14   S    
C23   C49   S    
C93   H69   S    
C10   C17   A    
C23   C40   A    
C89   H15   S    
C73   N7    A    
C18   C19   A    
C89   N12   A    
C51   H65   S    
C77   H17   S    
C70   H78   S    
C2    N13   A    
C46   C47   A    
C64   H5    S    
C19   C20   A    
C67   N10   A    
C68   C69   A    
N3    N5    A    
C92   H58   S    
C75   H8    S    
C71   H75   S    
C51   C57   A    
C72   H80   S    
N2    Ni3   S    
C4    C12   A    
C26   O6    S    
C28   N3    A    
C24   H47   S    
C88   H49   S    
N13   Ni1   S    
C85   H40   S    
N1    N7    A    
C55   C60   A    
C16   N2    A    
N2    N4    A    
C48   H62   S    
C28   C34   A    
C59   C60   A    
C27   C34   S    
C21   C22   A    
N9    Ni2   S    
C75   H9    S    
C86   O6    S    
C77   H16   S    
C7    C56   A    
C83   H31   S    
C12   C47   S    
C93   O9    S    
N9    N15   A    
C94   H71   S    
C88   H48   S    
C91   H54   S    
C45   N8    A    
C79   H20   S    
C77   C79   S    
C84   O5    S    
C46   H60   S    
C30   H34   S    
C50   C53   A    
C76   H11   S    
N3    Ni4   S    
C62   C66   A    
C63   C69   A    
C84   C85   S    
C13   O4    S    
C9    C89   A    
C91   C92   S    
C5    C7    A    
C86   C87   S    
C63   H76   S    
C42   C48   A    
C29   H23   S    
C81   H24   S    
C33   C37   A    
C49   C58   A    
C51   C53   A    
C43   C44   A    
C37   C38   A    
C59   H67   S    
C4    N16   A    
C18   H33   S    
C56   O1    S    
N4    Ni2   S    
C86   H41   S    
C47   C48   A    
C80   H21   S    
C78   H1    S    
C68   C72   A    
C16   H61   S    
C92   H57   S    
C78   N11   A    
N8    N14   A    
C24   C25   A    
C83   H30   S    
C39   C46   A    
C40   N4    A    
C86   H42   S    
C84   H36   S    
C88   C90   S    
C16   C23   A    
C79   H19   S    
C37   H45   S    
C88   O7    S    
C22   C24   A    
C36   C44   A    
N8    Ni1   S    
C83   H32   S    
C73   C74   A    
C94   H70   S    
C82   H29   S    
C40   H3    S    
N7    Ni3   S    
N11   Ni4   S    
C66   H2    S    
C15   C17   A    
C87   H46   S    
C54   C55   A    
C1    N1    A    
N16   Ni2   S    
C6    C50   S    
C62   C65   A    
C8    C31   S    
C34   C52   A    
C31   C32   A    
C80   H22   S    
C60   H66   S    
C80   C81   S    
C43   H63   S    
C5    O3    S    
C4    H35   S    
C56   N9    A    
C76   H13   S    
C81   H25   S    
C84   H37   S    
C19   O5    S    
C49   C59   A    
N10   N13   A    
C30   C36   A    
C17   C25   A    
C32   C33   A    
C55   C57   A    
C3    H12   S    
C52   N5    A    
C5    N15   A    
C71   C72   A    
C50   C54   A    
N6    N16   A    
C11   C13   A    
C61   C71   A    
C57   C58   A    
C38   C39   A    
C20   C26   A    
C93   H68   S    
C12   C64   A    
C80   O3    S    
C52   H4    S    
C33   C35   A    
C2    O2    S    
C9    C78   A    
N12   Ni2   S    
C69   C70   A    
C35   C41   A    
C91   O8    S    
C10   C11   A    
C28   H74   S    
N14   Ni4   S    
N15   Ni3   S    
C45   H79   S    
C15   C21   A    
N5    Ni1   S    
C20   C21   A    
C8    C67   A    
C90   H52   S    
C82   C83   S    
C42   C43   A    
C3    C6    A    
C2    C8    A    
C92   H55   S    
C14   C15   A    
C62   C74   S    
C87   H44   S    
C38   H59   S    
C13   C14   A    
C82   H28   S    
C32   O8    S    
C90   H50   S    
N10   Ni3   S    
C85   H39   S    
C75   O1    S    
