data_mof_unit_67523.cif
_audit_creation_date              2012-12-10T16:47:27-0500
_audit_creation_method            fapswitch 2.2
_symmetry_space_group_name_H-M    P1
_symmetry_Int_Tables_number       1
_space_group_crystal_system       triclinic
_cell_length_a                    10.619133
_cell_length_b                    8.741767
_cell_length_c                    7.441252
_cell_angle_alpha                 102.4792
_cell_angle_beta                  94.540272
_cell_angle_gamma                 92.576758
_cell_volume                      670.966811707

loop_
_atom_site_label
_atom_site_type_symbol
_atom_type_description
_atom_site_fract_x
_atom_site_fract_y
_atom_site_fract_z
_atom_type_partial_charge
C1    C     C_R   0.504188 0.200640 0.454009 0.819155
C2    C     C_R   0.501909 0.799480 0.545741 0.860641
C3    C     C_R   0.259654 0.498006 0.501175 0.843716
C4    C     C_R   0.740231 0.501276 0.498615 0.871271
C5    C     C_3   0.050900 0.515158 0.675775 -0.265756
C6    C     C_3   0.948518 0.482537 0.323365 -0.237584
C7    C     C_3   0.955610 0.380942 0.569166 -0.059694
C8    C     C_3   0.043703 0.616733 0.429558 -0.046699
C9    C     C_3   0.876390 0.501520 0.497767 -0.122706
C10   C     C_3   0.123251 0.496531 0.501334 -0.131401
C11   C     C_3   0.970390 0.635622 0.602388 -0.052352
C12   C     C_3   0.029116 0.362233 0.396500 -0.052427
C13   C     C_2   0.522473 0.034743 0.433079 0.190519
C14   C     C_2   0.487963 0.964617 0.567316 0.210559
Cu1   Cu    Cu3+1 0.514140 0.517380 0.684380 1.012228
Cu2   Cu    Cu3+1 0.485860 0.482620 0.315620 1.016694
H1    H     H_    0.094341 0.527357 0.819260 0.209087
H2    H     H_    0.904915 0.470350 0.179979 0.208485
H3    H     H_    0.397591 0.382902 0.949313 0.248311
H4    H     H_    0.603636 0.614943 0.050597 0.245740
N1    N     N_2   0.464560 0.456420 0.038510 -0.197430
N2    N     N_2   0.535440 0.543580 0.961490 -0.211223
O1    O     O_R   0.509190 0.286130 0.619780 -0.547146
O2    O     O_R   0.490810 0.713870 0.380220 -0.573192
O3    O     O_R   0.485310 0.256770 0.308360 -0.592468
O4    O     O_R   0.514690 0.743230 0.691640 -0.585968
O5    O     O_R   0.328790 0.514640 0.655680 -0.607341
O6    O     O_R   0.671210 0.485360 0.344320 -0.597046
O7    O     O_R   0.304910 0.485280 0.344260 -0.531560
O8    O     O_R   0.695090 0.514720 0.655740 -0.540000
C15   C     C_2   0.902027 0.254841 0.654615 0.861397
O9    O     O_2   0.907001 0.116785 0.579575 -0.518561
O10   O     O_R   0.845700 0.297133 0.820136 -0.755680
H5    H     H_    0.811201 0.203177 0.864303 0.335637
C16   C     C_2   0.093137 0.742406 0.340244 0.835361
O11   O     O_2   0.073850 0.879453 0.402265 -0.556047
O12   O     O_R   0.158896 0.700847 0.183346 -0.756050
H6    H     H_    0.187697 0.794753 0.134258 0.328518
C17   C     C_2   0.939966 0.787794 0.723318 0.969664
O13   O     O_2   0.025976 0.879312 0.807331 -0.588417
O14   O     O_R   0.814124 0.823503 0.741501 -0.748937
H7    H     H_    0.805944 0.926348 0.832214 0.337855
C18   C     C_2   0.059559 0.210446 0.274985 0.946360
O15   O     O_2   0.973521 0.119352 0.190122 -0.535848
O16   O     O_R   0.185434 0.174758 0.257018 -0.782257
H8    H     H_    0.193696 0.071803 0.166568 0.327012
O17   O     O_3   0.598853 0.956722 0.302318 -0.598054
C19   C     C_3   0.563056 0.975900 0.122498 -0.131344
H9    H     H_    0.608280 0.086266 0.099615 0.195203
H10   H     H_    0.458333 0.969110 0.091068 0.162697
H11   H     H_    0.600650 0.879771 0.022975 0.194008
O18   O     O_3   0.440212 0.045926 0.726571 -0.620024
C20   C     C_3   0.307528 0.019407 0.708167 -0.269700
H12   H     H_    0.278637 0.892804 0.691728 0.171515
H13   H     H_    0.264451 0.065508 0.590977 0.202786
H14   H     H_    0.270103 0.084201 0.835951 0.208496

loop_
_geom_bond_atom_site_label_1
_geom_bond_atom_site_label_2
_ccdc_geom_bond_type
Cu2   O6    S    
C1    C13   S    
C11   C17   S    
C18   O15   D    
C15   O10   S    
C5    C11   S    
O12   H6    S    
C9    C11   S    
O14   H7    S    
Cu1   O5    S    
C16   O11   D    
C7    C9    S    
C6    C9    S    
Cu1   O1    S    
O10   H5    S    
Cu2   O7    S    
C5    C10   S    
C2    O4    A    
C3    C10   S    
C20   H12   S    
C1    O3    A    
C18   O16   S    
Cu2   N1    S    
C10   C12   S    
C8    C11   S    
C2    C14   S    
C6    C12   S    
C19   H10   S    
C19   H9    S    
C16   O12   S    
H4    N2    S    
N1    N2    D    
C1    O1    A    
C12   C18   S    
C5    C7    S    
C3    O5    A    
C20   H13   S    
C2    O2    A    
C7    C12   S    
C6    H2    S    
C4    O8    A    
C8    C10   S    
C5    H1    S    
Cu1   Cu2   S    
O17   C19   S    
O16   H8    S    
Cu2   O3    S    
C7    C15   S    
O18   C20   S    
C17   O14   S    
Cu1   O8    S    
Cu2   O2    S    
Cu1   N2    S    
C20   H14   S    
C17   O13   D    
C3    O7    A    
Cu1   O4    S    
C6    C8    S    
C4    O6    A    
C4    C9    S    
C13   C14   D    
C13   O17   S    
C19   H11   S    
C14   O18   S    
C15   O9    D    
H3    N1    S    
C8    C16   S    
