data_mof_unit_33347.cif
_audit_creation_date              2012-10-26T20:33:44-0400
_audit_creation_method            fapswitch 2.2
_symmetry_space_group_name_H-M    P1
_symmetry_Int_Tables_number       1
_space_group_crystal_system       triclinic
_cell_length_a                    10.79998
_cell_length_b                    9.08991
_cell_length_c                    7.79297
_cell_angle_alpha                 90.010745
_cell_angle_beta                  90.243573
_cell_angle_gamma                 90.004548
_cell_volume                      765.035530392

loop_
_atom_site_label
_atom_site_type_symbol
_atom_type_description
_atom_site_fract_x
_atom_site_fract_y
_atom_site_fract_z
_atom_type_partial_charge
C1    C     C_R   0.499985 0.220069 0.499995 0.537904
C2    C     C_1   0.499984 0.934604 0.500028 -0.009919
C3    C     C_3   0.071163 0.658344 0.572553 0.459348
C4    C     C_3   0.926536 0.644870 0.598181 0.535548
C5    C     C_3   0.121596 0.506336 0.498456 0.016629
C6    C     C_3   0.878136 0.503147 0.500867 0.063139
C7    C     C_R   0.259372 0.502794 0.499421 0.569497
C8    C     C_R   0.740528 0.499908 0.500208 0.632943
C9    C     C_R   0.499997 0.779932 0.500013 0.567856
C10   C     C_1   0.499982 0.065383 0.500003 -0.022658
C11   C     C_3   0.072300 0.368697 0.600175 0.023988
C12   C     C_3   0.069815 0.487828 0.310386 0.110451
C13   C     C_3   0.929061 0.359154 0.585304 0.031937
C14   C     C_3   0.927190 0.504029 0.311288 0.085480
Cu1   Cu    Cu3+1 0.500000 0.500010 0.669080 1.119448
Cu2   Cu    Cu3+1 0.500000 0.500010 0.330920 1.084422
H1    H     H_    0.112019 0.266198 0.813042 0.351437
H2    H     H_    0.184456 0.788831 0.449484 0.346712
H3    H     H_    0.946694 0.567121 0.833778 0.367584
H4    H     H_    0.889409 0.855247 0.600360 0.361511
H5    H     H_    0.107978 0.549525 0.078500 0.348886
H6    H     H_    0.885806 0.224509 0.769726 0.339337
H7    H     H_    0.850582 0.606156 0.117095 0.359291
H8    H     H_    0.111601 0.268202 0.537925 0.103949
H9    H     H_    0.093293 0.374332 0.265626 0.075696
H10   H     H_    0.905541 0.265709 0.497684 0.081331
H11   H     H_    0.888372 0.406277 0.242052 0.080009
H12   H     H_    0.146101 0.619155 0.800758 0.365085
N1    N     N_1   0.500000 0.499970 0.076820 -0.065865
N2    N     N_1   0.500000 0.499970 0.923180 -0.061199
O1    O     O_R   0.500000 0.288400 0.642760 -0.499646
O2    O     O_3   0.123104 0.588894 0.195380 -0.580666
O3    O     O_3   0.873832 0.330792 0.745323 -0.660612
O4    O     O_3   0.890897 0.634480 0.226831 -0.551246
O5    O     O_3   0.129262 0.704342 0.726588 -0.672434
O6    O     O_3   0.093835 0.770256 0.451200 -0.562042
O7    O     O_3   0.893830 0.639373 0.773658 -0.646239
O8    O     O_3   0.867057 0.769320 0.527760 -0.580742
O9    O     O_R   0.500000 0.288400 0.357240 -0.511577
O10   O     O_R   0.317700 0.499990 0.642790 -0.476025
O11   O     O_R   0.317700 0.499990 0.357210 -0.480440
O12   O     O_R   0.682300 0.499990 0.642790 -0.427206
O13   O     O_R   0.682300 0.499990 0.357210 -0.516703
O14   O     O_R   0.500000 0.711620 0.642810 -0.490627
O15   O     O_R   0.500000 0.711620 0.357190 -0.488528
O16   O     O_3   0.110915 0.369842 0.772816 -0.715043

loop_
_geom_bond_atom_site_label_1
_geom_bond_atom_site_label_2
_ccdc_geom_bond_type
Cu2   O15   S    
C14   O4    S    
C7    O10   A    
C9    O15   A    
N1    N2    T    
C14   H11   S    
C6    C14   S    
H4    O8    S    
C8    O13   A    
C3    O5    S    
C12   H9    S    
H7    O4    S    
C4    O7    S    
C6    C13   S    
Cu1   O1    S    
C11   C13   S    
Cu2   O13   S    
C3    O6    S    
C5    C12   S    
C8    O12   A    
Cu1   O14   S    
C5    C11   S    
C7    O11   A    
C13   H10   S    
H5    O2    S    
Cu1   O10   S    
C1    O9    A    
Cu2   O9    S    
C3    C4    S    
C2    C10   T    
C11   H8    S    
C1    O1    A    
H1    O16   S    
Cu1   O12   S    
Cu1   N2    S    
C4    C6    S    
C13   O3    S    
C5    C7    S    
H6    O3    S    
C9    O14   A    
C6    C8    S    
H3    O7    S    
C3    C5    S    
Cu2   N1    S    
C4    O8    S    
C2    C9    S    
H2    O6    S    
Cu2   O11   S    
C12   O2    S    
C1    C10   S    
Cu1   Cu2   S    
H12   O5    S    
C12   C14   S    
C11   O16   S    
