data_mof_unit_62047.cif
_audit_creation_date              2012-12-10T18:37:18-0500
_audit_creation_method            fapswitch 2.2
_symmetry_space_group_name_H-M    P1
_symmetry_Int_Tables_number       1
_space_group_crystal_system       triclinic
_cell_length_a                    15.149742
_cell_length_b                    13.877391
_cell_length_c                    10.796394
_cell_angle_alpha                 90.199665
_cell_angle_beta                  90.903952
_cell_angle_gamma                 89.377604
_cell_volume                      2269.39307337

loop_
_atom_site_label
_atom_site_type_symbol
_atom_type_description
_atom_site_fract_x
_atom_site_fract_y
_atom_site_fract_z
_atom_type_partial_charge
C1    C     C_R   0.329843 0.500707 0.502522 0.908677
C2    C     C_3   0.597391 0.544546 0.932258 -0.493036
C3    C     C_R   0.092231 0.554740 0.584691 0.631346
C4    C     C_R   0.094415 0.440435 0.414500 0.639224
C5    C     C_R   0.184421 0.559138 0.585824 -0.193286
C6    C     C_R   0.186676 0.442071 0.413780 -0.198319
C7    C     C_R   0.232719 0.502219 0.499498 -0.285503
C8    C     C_R   0.047630 0.496854 0.498812 -0.099499
C9    C     C_R   0.905337 0.411203 0.516297 0.688851
C10   C     C_R   0.904156 0.583099 0.473755 0.687944
C11   C     C_R   0.813560 0.411892 0.515188 -0.237812
C12   C     C_R   0.812429 0.583817 0.474472 -0.180985
C13   C     C_R   0.766567 0.498354 0.495656 -0.191582
C14   C     C_R   0.951003 0.496914 0.495864 -0.099719
C15   C     C_R   0.536600 0.108597 0.602651 0.605719
C16   C     C_R   0.575869 0.890630 0.542375 0.589656
C17   C     C_R   0.500007 0.499962 0.259841 1.029904
C18   C     C_R   0.536731 0.210011 0.597987 -0.119989
C19   C     C_R   0.572804 0.789235 0.542558 -0.172306
C20   C     C_R   0.464306 0.208033 0.403017 0.701924
C21   C     C_R   0.428154 0.792966 0.458243 0.772452
C22   C     C_R   0.467383 0.106773 0.400490 0.518374
C23   C     C_R   0.426538 0.894199 0.463180 0.510014
C24   C     C_R   0.502317 0.054590 0.502228 -0.154107
C25   C     C_R   0.501602 0.945490 0.503408 -0.138393
C26   C     C_R   0.670079 0.499523 0.498001 0.949880
C27   C     C_R   0.503211 0.499919 0.740198 0.994876
C28   C     C_3   0.418473 0.550519 0.068438 0.304060
C29   C     C_3   0.505573 0.394965 0.071687 0.275491
C30   C     C_3   0.423017 0.555905 0.925944 0.989425
C31   C     C_3   0.498472 0.393454 0.929431 0.964619
C32   C     C_3   0.586150 0.556375 0.078193 1.075466
C33   C     C_3   0.503057 0.500493 0.122074 -0.570762
C34   C     C_3   0.506851 0.499771 0.878531 -0.594086
Cu1   Cu    Cu3+1 0.499990 0.596430 0.500000 1.144055
Cu2   Cu    Cu3+1 0.499990 0.403570 0.500000 1.120276
H1    H     H_    0.779424 0.345123 0.531955 0.218643
H2    H     H_    0.777435 0.651131 0.457825 0.216829
H3    H     H_    0.565732 0.249671 0.674173 0.264633
H4    H     H_    0.629914 0.749224 0.575731 0.224791
H5    H     H_    0.360069 0.507666 0.093712 0.164509
H6    H     H_    0.448877 0.354434 0.108818 0.215571
N1    N     N_R   0.500020 0.258690 0.500000 -0.318382
N2    N     N_R   0.500020 0.741310 0.500000 -0.307441
O1    O     O_R   0.371450 0.581430 0.500010 -0.497234
O2    O     O_R   0.371450 0.418570 0.500010 -0.560605
O3    O     O_R   0.499980 0.581440 0.317690 -0.483868
O4    O     O_R   0.499980 0.418560 0.317690 -0.512840
O5    O     O_R   0.628540 0.581440 0.499990 -0.604830
O6    O     O_R   0.628540 0.418560 0.499990 -0.579454
O7    O     O_R   0.500010 0.581440 0.682310 -0.560215
O8    O     O_R   0.500010 0.418560 0.682310 -0.529582
F1    F     F_    0.405853 0.641879 0.118302 -0.476179
F2    F     F_    0.582119 0.347935 0.111736 -0.498809
F3    F     F_    0.567697 0.064276 0.706569 -0.519802
F4    F     F_    0.652234 0.934134 0.576757 -0.536554
F5    F     F_    0.424657 0.254822 0.307257 -0.589095
F6    F     F_    0.357021 0.747441 0.409508 -0.523211
F7    F     F_    0.437838 0.060522 0.297148 -0.503475
F8    F     F_    0.350726 0.941329 0.430664 -0.505370
F9    F     F_    0.347167 0.515193 0.875974 -0.635037
F10   F     F_    0.417891 0.354138 0.894567 -0.583167
F11   F     F_    0.421549 0.650924 0.888241 -0.525662
F12   F     F_    0.562503 0.331727 0.882851 -0.565752
F13   F     F_    0.575735 0.652671 0.110501 -0.533742
F14   F     F_    0.659537 0.525321 0.145941 -0.586826
C35   C     C_2   0.619804 0.643129 0.873953 0.994775
O9    O     O_2   0.684616 0.651435 0.808486 -0.562420
O10   O     O_R   0.568050 0.725224 0.896202 -0.561113
H7    H     H_    0.590048 0.784487 0.852038 0.369788
C36   C     C_2   0.674640 0.475459 0.898663 1.044779
O11   O     O_2   0.721330 0.436311 0.977419 -0.386935
O12   O     O_R   0.691057 0.455838 0.773976 -0.765572
H8    H     H_    0.741869 0.408682 0.762567 0.352539
F15   F     F_    0.045049 0.607839 0.667233 -0.555556
F16   F     F_    0.049394 0.387344 0.328776 -0.546581
C37   C     C_2   0.226180 0.620940 0.682644 1.068794
O13   O     O_2   0.282771 0.678996 0.656040 -0.493186
O14   O     O_R   0.195578 0.617231 0.804084 -0.607047
H9    H     H_    0.226453 0.664727 0.861202 0.399217
C38   C     C_2   0.232378 0.382219 0.319516 1.032320
O15   O     O_2   0.296149 0.413625 0.265650 -0.607520
O16   O     O_R   0.201145 0.290283 0.290421 -0.606198
H10   H     H_    0.237420 0.256837 0.224522 0.392422
F17   F     F_    0.949615 0.327492 0.539813 -0.552144
F18   F     F_    0.947283 0.666240 0.450621 -0.551059

loop_
_geom_bond_atom_site_label_1
_geom_bond_atom_site_label_2
_ccdc_geom_bond_type
C15   C18   A    
C29   H6    S    
O12   H8    S    
Cu1   Cu2   S    
C17   O4    A    
C4    C8    A    
Cu1   O3    S    
C38   O15   D    
C37   O13   D    
C27   O8    A    
C26   O6    A    
C1    O2    A    
C29   F2    S    
C29   C33   S    
C28   H5    S    
C2    C32   S    
C11   H1    S    
C18   H3    S    
C9    F17   S    
Cu1   O5    S    
Cu2   O2    S    
C3    F15   S    
Cu2   O8    S    
C2    C34   S    
C6    C38   S    
C30   F11   S    
C31   F10   S    
C17   C33   S    
C38   O16   S    
C27   O7    A    
C37   O14   S    
C27   C34   S    
C23   F8    S    
C30   C34   S    
C35   O9    D    
C24   C25   S    
C4    C6    A    
C3    C8    A    
C10   C14   A    
C26   O5    A    
C22   F7    S    
C5    C7    A    
C35   O10   S    
C15   F3    S    
C9    C14   A    
C16   F4    S    
C21   N2    A    
O16   H10   S    
C31   C34   S    
Cu1   N2    S    
C9    C11   A    
C10   C12   A    
C15   C24   A    
C20   C22   A    
C28   C33   S    
C2    C35   S    
C21   C23   A    
Cu1   O7    S    
C22   C24   A    
C13   C26   S    
C5    C37   S    
C2    C36   S    
Cu1   O1    S    
C20   N1    A    
Cu2   O6    S    
C19   N2    A    
C32   F14   S    
C16   C25   A    
C10   F18   S    
C8    C14   S    
C1    C7    S    
C31   F12   S    
C17   O3    A    
C3    C5    A    
C28   F1    S    
C6    C7    A    
C32   C33   S    
C28   C30   S    
C21   F6    S    
C29   C31   S    
C18   N1    A    
C11   C13   A    
C1    O1    A    
C16   C19   A    
Cu2   O4    S    
C23   C25   A    
C12   H2    S    
O10   H7    S    
C4    F16   S    
C19   H4    S    
O14   H9    S    
C36   O11   D    
C12   C13   A    
C30   F9    S    
C36   O12   S    
Cu2   N1    S    
C20   F5    S    
C32   F13   S    
