data_mof_unit_10496.cif
_audit_creation_date              2012-12-10T18:18:27-0500
_audit_creation_method            fapswitch 2.2
_symmetry_space_group_name_H-M    P1
_symmetry_Int_Tables_number       1
_space_group_crystal_system       triclinic
_cell_length_a                    14.070516
_cell_length_b                    15.014123
_cell_length_c                    15.565421
_cell_angle_alpha                 89.205723
_cell_angle_beta                  67.258073
_cell_angle_gamma                 89.570003
_cell_volume                      3032.3490308

loop_
_atom_site_label
_atom_site_type_symbol
_atom_type_description
_atom_site_fract_x
_atom_site_fract_y
_atom_site_fract_z
_atom_type_partial_charge
C1    C     C_R   0.499805 0.673410 0.499776 0.874156
C2    C     C_R   0.499646 0.769270 0.499402 -0.113560
C3    C     C_R   0.421390 0.185752 0.485868 -0.205457
C4    C     C_R   0.579298 0.814245 0.512664 -0.211086
C5    C     C_R   0.420861 0.093705 0.485414 0.097890
C6    C     C_R   0.580143 0.906278 0.512539 0.095848
C7    C     C_R   0.500937 0.046318 0.498966 -0.016816
C8    C     C_R   0.500150 0.953652 0.498832 -0.017634
C9    C     C_R   0.581614 0.091766 0.512754 0.074643
C10   C     C_R   0.419429 0.908189 0.485121 0.077305
C11   C     C_R   0.341282 0.048844 0.471620 -0.323557
C12   C     C_R   0.500295 0.326582 0.499986 0.912325
C13   C     C_R   0.659851 0.951130 0.526112 -0.319294
C14   C     C_R   0.339760 0.955664 0.471294 0.448995
C15   C     C_R   0.661411 0.044300 0.526372 0.448286
C16   C     C_R   0.434970 0.501588 0.676485 0.906444
C17   C     C_R   0.564840 0.502587 0.323740 0.878418
C18   C     C_R   0.174145 0.451635 0.565581 -0.116794
C19   C     C_R   0.823206 0.554441 0.440389 -0.117798
C20   C     C_R   0.228356 0.550280 0.434770 0.504732
C21   C     C_R   0.771631 0.444074 0.560306 0.555488
C22   C     C_R   0.126539 0.555842 0.436547 -0.091933
C23   C     C_R   0.375208 0.517510 0.108073 -0.299182
C24   C     C_R   0.869532 0.448323 0.568922 -0.182070
C25   C     C_R   0.049126 0.502546 0.502166 0.039443
C26   C     C_R   0.947506 0.501470 0.503211 0.057513
C27   C     C_R   0.073047 0.450891 0.567336 0.004272
C28   C     C_R   0.923685 0.554426 0.438738 0.013267
C29   C     C_R   0.098901 0.612684 0.375319 -0.035934
C30   C     C_R   0.893000 0.402930 0.639773 -0.040674
C31   C     C_R   0.999169 0.609023 0.375720 -0.228866
C32   C     C_R   0.994887 0.402220 0.635535 -0.192607
C33   C     C_R   0.393152 0.508632 0.778671 -0.200879
C34   C     C_R   0.613124 0.562080 0.898875 -0.242302
C35   C     C_R   0.605783 0.514297 0.222184 -0.183843
C36   C     C_R   0.256710 0.509464 0.932915 -0.113071
C37   C     C_R   0.734100 0.559131 0.072282 -0.118908
C38   C     C_R   0.286712 0.510028 0.836266 0.404629
C39   C     C_R   0.705831 0.546413 0.167945 0.409911
C40   C     C_R   0.465258 0.513868 0.819589 -0.247802
C41   C     C_R   0.536812 0.499045 0.179621 -0.238615
C42   C     C_R   0.435955 0.523441 0.915223 0.028985
C43   C     C_R   0.558813 0.525076 0.087748 0.035507
C44   C     C_R   0.330218 0.515602 0.973271 0.007963
C45   C     C_R   0.299702 0.514007 0.070229 0.473319
C46   C     C_R   0.661062 0.550724 0.031665 0.003802
C47   C     C_R   0.510730 0.536009 0.953938 0.042323
C48   C     C_R   0.481404 0.524794 0.050714 0.033563
C49   C     C_2   0.166995 0.682778 0.315207 0.984976
C50   C     C_2   0.813398 0.363781 0.725087 0.930425
C51   C     C_R   0.688000 0.569790 0.936907 0.462492
C52   C     C_R   0.580542 0.184244 0.512751 -0.171667
C53   C     C_R   0.420231 0.815693 0.485609 -0.181158
C54   C     C_R   0.500828 0.230706 0.499531 -0.123216
H1    H     H_    0.192768 0.413242 0.616428 0.175795
H2    H     H_    0.635707 0.581185 0.826637 0.144376
H3    H     H_    0.641339 0.220336 0.523523 0.222863
H4    H     H_    0.359395 0.779553 0.474904 0.224263
H5    H     H_    0.359985 0.222315 0.475188 0.167687
H6    H     H_    0.640567 0.777710 0.523605 0.164084
H7    H     H_    0.280353 0.086337 0.461199 0.151172
H8    H     H_    0.720763 0.913637 0.536563 0.148782
H9    H     H_    0.188134 0.503830 0.192834 0.351470
H10   H     H_    0.794388 0.604585 0.817283 0.343081
H11   H     H_    0.349210 0.622290 0.389757 0.381343
H12   H     H_    0.803199 0.597012 0.393197 0.156141
H13   H     H_    0.735414 0.324810 0.607440 0.321538
H14   H     H_    0.225996 0.741747 0.188333 0.350431
H15   H     H_    0.775307 0.265869 0.822502 0.355742
H16   H     H_    0.740370 0.601464 0.262741 0.334005
H17   H     H_    0.228124 0.555847 0.751917 0.350215
H18   H     H_    0.212613 0.953514 0.449157 0.345795
H19   H     H_    0.788770 0.046447 0.548146 0.344233
H20   H     H_    0.978995 0.651964 0.328653 0.181868
H21   H     H_    0.012533 0.366642 0.688710 0.186636
H22   H     H_    0.464793 0.466693 0.219915 0.191730
H23   H     H_    0.545679 0.506775 0.775898 0.222986
H24   H     H_    0.175177 0.506338 0.976136 0.224065
H25   H     H_    0.811899 0.581004 0.031096 0.223245
H26   H     H_    0.348366 0.518655 0.182987 0.181234
N1    N     N_R   0.249980 0.499930 0.499960 -0.148512
N2    N     N_R   0.750020 0.500070 0.500040 -0.121711
O1    O     O_R   0.419720 0.632140 0.499980 -0.653500
O2    O     O_3   0.787661 0.595645 0.882626 -0.761835
O3    O     O_3   0.306552 0.590943 0.362653 -0.773297
O4    O     O_3   0.698659 0.381273 0.607062 -0.707406
O5    O     O_2   0.208238 0.736347 0.348191 -0.573786
O6    O     O_R   0.178699 0.690908 0.222086 -0.788921
O7    O     O_2   0.730980 0.401867 0.763936 -0.613332
O8    O     O_R   0.834793 0.285272 0.763652 -0.792759
O9    O     O_3   0.776951 0.567712 0.205066 -0.738517
O10   O     O_3   0.210249 0.509804 0.801749 -0.744316
O11   O     O_3   0.261716 0.910072 0.457802 -0.734482
O12   O     O_R   0.580280 0.367860 0.500020 -0.572430
O13   O     O_3   0.739508 0.089893 0.539776 -0.772174
O14   O     O_R   0.580270 0.632160 0.499970 -0.636354
O15   O     O_R   0.419730 0.367840 0.500030 -0.625895
O16   O     O_R   0.373870 0.499980 0.632250 -0.613452
O17   O     O_R   0.626130 0.500020 0.367750 -0.605225
O18   O     O_R   0.534420 0.500000 0.632240 -0.569022
O19   O     O_R   0.465580 0.500000 0.367760 -0.599367
O20   O     O_3   0.196214 0.507131 0.126702 -0.736186
Zn1   Zn    Zn3+2 0.392800 0.499980 0.500010 0.962180
Zn2   Zn    Zn3+2 0.607200 0.500020 0.499990 1.003318

loop_
_geom_bond_atom_site_label_1
_geom_bond_atom_site_label_2
_ccdc_geom_bond_type
C34   H2    S    
C23   C45   A    
C22   C29   A    
C49   O5    D    
C2    C4    A    
H16   O9    S    
C32   H21   S    
C7    C8    A    
C29   C49   S    
C37   H25   S    
C34   C51   A    
O1    Zn1   S    
C24   C26   A    
C5    C11   A    
C15   O13   S    
C3    C54   A    
O16   Zn1   S    
C38   O10   S    
O18   Zn2   S    
C18   N1    A    
C19   H12   S    
C1    C2    S    
C10   C53   A    
C17   O19   A    
H10   O2    S    
C50   O8    S    
H17   O10   S    
C22   C25   A    
C23   H26   S    
C19   N2    A    
C43   C48   A    
C14   O11   S    
C40   C42   A    
O17   Zn2   S    
C30   C50   S    
O12   Zn2   S    
O19   Zn1   S    
C20   N1    A    
C41   C43   A    
C49   O6    S    
C12   O12   A    
C9    C52   A    
C42   C44   A    
H9    O20   S    
C39   O9    S    
C52   C54   A    
C33   C40   A    
C13   H8    S    
C4    C6    A    
C10   C14   A    
C5    C7    A    
C16   O18   A    
C31   H20   S    
C6    C8    A    
C3    C5    A    
C25   C26   A    
C46   C51   A    
C35   C39   A    
C16   C33   S    
C50   O7    D    
C47   C48   A    
C20   O3    S    
C4    H6    S    
C19   C28   A    
C17   O17   A    
C12   O15   A    
O15   Zn1   S    
C18   H1    S    
H18   O11   S    
C8    C10   A    
C20   C22   A    
O14   Zn2   S    
H14   O6    S    
C36   C44   A    
C1    O1    A    
H19   O13   S    
H15   O8    S    
C44   C45   A    
N1    Zn1   S    
C7    C9    A    
C21   O4    S    
H13   O4    S    
C23   C48   A    
C27   C32   A    
C28   C31   A    
C18   C27   A    
C11   H7    S    
C2    C53   A    
C52   H3    S    
C53   H4    S    
H11   O3    S    
C25   C27   A    
C26   C28   A    
C33   C38   A    
C13   C15   A    
C9    C15   A    
C29   C31   A    
C36   H24   S    
C6    C13   A    
C30   C32   A    
C16   O16   A    
C1    O14   A    
C36   C38   A    
C11   C14   A    
C42   C47   A    
C35   C41   A    
C43   C46   A    
C24   C30   A    
C45   O20   S    
C21   N2    A    
C37   C39   A    
C21   C24   A    
N2    Zn2   S    
C40   H23   S    
C34   C47   A    
C17   C35   S    
C37   C46   A    
C51   O2    S    
C12   C54   S    
C41   H22   S    
C3    H5    S    
