data_mof_unit_66931.cif
_audit_creation_date              2013-03-05T15:57:29-0500
_audit_creation_method            fapswitch 2.2
_symmetry_space_group_name_H-M    P1
_symmetry_Int_Tables_number       1
_space_group_crystal_system       triclinic
_cell_length_a                    17.081296
_cell_length_b                    18.776444
_cell_length_c                    8.401147
_cell_angle_alpha                 90.000013
_cell_angle_beta                  101.96976
_cell_angle_gamma                 89.966942
_cell_volume                      2635.88054871

loop_
_atom_site_label
_atom_site_type_symbol
_atom_site_description
_atom_site_fract_x
_atom_site_fract_y
_atom_site_fract_z
_atom_type_partial_charge
P1    P     P_3+3 0.834140 0.419320 0.003900 0.583338
P2    P     P_3+3 0.834140 0.580680 0.503900 0.583287
P3    P     P_3+3 0.334140 0.919320 0.003900 0.583324
P4    P     P_3+3 0.334140 0.080680 0.503900 0.583487
O1    O     O_2   0.841960 0.394640 0.833410 -0.313541
O2    O     O_2   0.841960 0.605360 0.333410 -0.313742
O3    O     O_2   0.341960 0.894640 0.833410 -0.312866
O4    O     O_2   0.341960 0.105360 0.333410 -0.313770
O5    O     O_3   0.907950 0.463080 0.102990 -0.308282
O6    O     O_3   0.907950 0.536920 0.602990 -0.308326
O7    O     O_3   0.407950 0.963080 0.102990 -0.308512
O8    O     O_3   0.407950 0.036920 0.602990 -0.308089
O9    O     O_3   0.972780 0.329600 0.629720 -0.283924
O10   O     O_3   0.972780 0.670400 0.129720 -0.284888
O11   O     O_3   0.472780 0.829600 0.629720 -0.283539
O12   O     O_3   0.472780 0.170400 0.129720 -0.283721
O13   O     O_2   0.840765 0.274316 0.691160 -0.343679
O14   O     O_2   0.840741 0.725887 0.191123 -0.342355
O15   O     O_2   0.340748 0.774350 0.691266 -0.343572
O16   O     O_2   0.340841 0.225840 0.191430 -0.344007
O17   O     O_3   0.752174 0.477400 0.976738 -0.569873
O18   O     O_3   0.752207 0.522631 0.476937 -0.569787
O19   O     O_3   0.252206 0.977472 0.976959 -0.570039
O20   O     O_3   0.252096 0.022711 0.476442 -0.569330
O21   O     O_3   0.945612 0.181536 0.661402 -0.529176
O22   O     O_3   0.945716 0.818496 0.161503 -0.529877
O23   O     O_3   0.445495 0.681523 0.660983 -0.528647
O24   O     O_3   0.445645 0.318493 0.160931 -0.528731
H1    H     H_    0.057910 0.162132 0.622982 0.130254
H2    H     H_    0.059372 0.839031 0.133158 0.130489
H3    H     H_    0.556856 0.663030 0.616402 0.129821
H4    H     H_    0.557255 0.337179 0.117906 0.129713
C1    C     C_3   0.978229 0.073615 0.544331 -0.999524
C2    C     C_3   0.978326 0.924468 0.036626 -1.005097
C3    C     C_3   0.478430 0.572962 0.547213 -0.999475
C4    C     C_3   0.478308 0.426781 0.045713 -1.000270
H5    H     H_    0.521404 0.547007 0.483148 0.266788
H6    H     H_    0.521315 0.452653 0.981678 0.266653
H7    H     H_    0.021821 0.047702 0.481801 0.268228
H8    H     H_    0.023392 0.949918 0.977240 0.268727
H9    H     H_    0.983529 0.048875 0.666321 0.274502
H10   H     H_    0.979537 0.951675 0.154793 0.274960
H11   H     H_    0.485660 0.549432 0.670606 0.275368
H12   H     H_    0.485147 0.450760 0.168644 0.275256
P5    P     P_3+3 0.165830 0.418670 0.685610 0.467432
P6    P     P_3+3 0.165830 0.581330 0.185610 0.467478
P7    P     P_3+3 0.665830 0.918670 0.685610 0.466612
P8    P     P_3+3 0.665830 0.081330 0.185610 0.467620
P9    P     P_3+3 0.100209 0.264766 0.106575 0.546946
P10   P     P_3+3 0.100109 0.735223 0.606459 0.545852
P11   P     P_3+3 0.600183 0.764752 0.106748 0.547734
P12   P     P_3+3 0.600144 0.235237 0.606524 0.547230
O25   O     O_2   0.157990 0.394030 0.856030 -0.376232
O26   O     O_2   0.157990 0.605970 0.356030 -0.377098
O27   O     O_2   0.657990 0.894030 0.856030 -0.374958
O28   O     O_2   0.657990 0.105970 0.356030 -0.379224
O29   O     O_3   0.027110 0.329490 0.059550 -0.391317
O30   O     O_3   0.027110 0.670510 0.559550 -0.391406
O31   O     O_3   0.527110 0.829490 0.059550 -0.391087
O32   O     O_3   0.527110 0.170510 0.559550 -0.391646
O33   O     O_2   0.159358 0.275990 0.992596 -0.326914
O34   O     O_2   0.159398 0.723849 0.492816 -0.327005
O35   O     O_2   0.659343 0.775873 0.992737 -0.327673
O36   O     O_2   0.659259 0.224079 0.492422 -0.326140
O37   O     O_3   0.250005 0.474045 0.725268 -0.585737
O38   O     O_3   0.249999 0.525848 0.224938 -0.585556
O39   O     O_3   0.750025 0.974027 0.725550 -0.586882
O40   O     O_3   0.749844 0.025610 0.224127 -0.586455
O41   O     O_3   0.052760 0.184278 0.039890 -0.451996
O42   O     O_3   0.052569 0.815626 0.538952 -0.452231
O43   O     O_3   0.552624 0.684311 0.040157 -0.451522
O44   O     O_3   0.552503 0.315697 0.539959 -0.451348
C5    C     C_3   0.974048 0.185830 0.066842 0.558646
C6    C     C_3   0.974097 0.814388 0.567205 0.556973
C7    C     C_3   0.473872 0.686065 0.066873 0.557748
C8    C     C_3   0.473773 0.313972 0.566739 0.557414
H13   H     H_    0.934031 0.212178 0.962546 0.120596
H14   H     H_    0.933840 0.787035 0.464788 0.118636
H15   H     H_    0.433978 0.712396 0.962378 0.121154
H16   H     H_    0.433888 0.287618 0.462346 0.121111
H17   H     H_    0.969270 0.214607 0.179853 -0.014362
H18   H     H_    0.970020 0.786822 0.682104 -0.013691
H19   H     H_    0.469089 0.714966 0.179710 -0.015227
H20   H     H_    0.469058 0.285107 0.679637 -0.014680
C9    C     C_3   0.945382 0.110023 0.081796 -1.018568
C10   C     C_3   0.945180 0.890359 0.578668 -1.012541
C11   C     C_3   0.445008 0.610352 0.081989 -1.018079
C12   C     C_3   0.444822 0.389694 0.581720 -1.017423
H21   H     H_    0.379689 0.610107 0.078580 0.230465
H22   H     H_    0.379601 0.389921 0.579393 0.230329
H23   H     H_    0.880080 0.109648 0.078633 0.230384
H24   H     H_    0.880535 0.890679 0.581977 0.229148
H25   H     H_    0.958832 0.077091 0.981327 0.283808
H26   H     H_    0.955668 0.921604 0.473119 0.282433
H27   H     H_    0.458464 0.577404 0.981627 0.283251
H28   H     H_    0.457737 0.422490 0.480638 0.283105
C13   C     C_3   0.230267 0.457918 0.272908 0.356263
C14   C     C_3   0.230109 0.542240 0.771457 0.355154
C15   C     C_3   0.730589 0.958589 0.278121 0.360031
C16   C     C_3   0.730097 0.042245 0.771529 0.356097
H29   H     H_    0.232830 0.458512 0.405523 0.099029
H30   H     H_    0.232117 0.542193 0.903885 0.098956
H31   H     H_    0.735799 0.960910 0.411438 0.101673
H32   H     H_    0.731958 0.042214 0.903891 0.101512
H33   H     H_    0.170758 0.439070 0.207244 0.124830
H34   H     H_    0.170822 0.561105 0.704488 0.126031
H35   H     H_    0.670023 0.939962 0.218182 0.120335
H36   H     H_    0.670857 0.061104 0.704317 0.125377
C17   C     C_3   0.291821 0.405578 0.235692 -0.894926
C18   C     C_3   0.292015 0.594122 0.734299 -0.893737
C19   C     C_3   0.790269 0.904684 0.239010 -0.895984
C20   C     C_3   0.792087 0.094128 0.734662 -0.896740
H37   H     H_    0.352581 0.428226 0.272871 0.271618
H38   H     H_    0.352756 0.571805 0.775475 0.270784
H39   H     H_    0.851075 0.927958 0.262362 0.273526
H40   H     H_    0.852763 0.071633 0.775011 0.271689
H41   H     H_    0.288582 0.354487 0.300138 0.223087
H42   H     H_    0.287700 0.645944 0.795304 0.224618
H43   H     H_    0.790502 0.855923 0.313556 0.218909
H44   H     H_    0.788111 0.145751 0.796566 0.224649
H45   H     H_    0.280844 0.395624 0.103243 0.268151
H46   H     H_    0.282453 0.602509 0.601324 0.267360
H47   H     H_    0.774166 0.890048 0.108871 0.270674
H48   H     H_    0.782292 0.102963 0.601899 0.267041
Ba1   Ba    Ba6+2 1.000000 0.447380 0.844850 1.680726
Ba2   Ba    Ba6+2 0.000000 0.552620 0.344850 1.680432
Ba3   Ba    Ba6+2 0.500000 0.947380 0.844850 1.681125
Ba4   Ba    Ba6+2 0.500000 0.052620 0.344850 1.681151
C21   C     C_3   0.753804 0.535045 0.872828 0.746490
C22   C     C_3   0.753763 0.465000 0.372929 0.746664
C23   C     C_3   0.253884 0.035247 0.873410 0.747398
C24   C     C_3   0.253556 0.965131 0.372218 0.749411
H49   H     H_    0.807881 0.536880 0.819652 0.081799
H50   H     H_    0.807904 0.463014 0.319982 0.081710
H51   H     H_    0.308090 0.037260 0.820793 0.081570
H52   H     H_    0.307602 0.963244 0.318964 0.081599
C25   C     C_3   0.676668 0.535797 0.744033 -0.822086
C26   C     C_3   0.676716 0.464479 0.243852 -0.822432
C27   C     C_3   0.176969 0.036019 0.744054 -0.825027
C28   C     C_3   0.176378 0.964540 0.243292 -0.825925
H53   H     H_    0.672296 0.489336 0.662837 0.311553
H54   H     H_    0.672510 0.511001 0.162890 0.311546
H55   H     H_    0.172826 0.989592 0.662927 0.312226
H56   H     H_    0.171875 0.011156 0.162527 0.311984
H57   H     H_    0.673452 0.585140 0.671281 0.231602
H58   H     H_    0.673495 0.415205 0.170872 0.231444
H59   H     H_    0.173979 0.085362 0.671392 0.230943
H60   H     H_    0.173502 0.915452 0.169794 0.229525
H61   H     H_    0.624011 0.534639 0.802575 0.265067
H62   H     H_    0.623961 0.465695 0.302089 0.265201
H63   H     H_    0.124040 0.034843 0.801736 0.264906
H64   H     H_    0.123491 0.965308 0.301262 0.265726
O45   O     O_3   0.092100 0.536880 0.086720 -0.377273
O46   O     O_3   0.092100 0.463120 0.586720 -0.378132
O47   O     O_3   0.592100 0.036880 0.086720 -0.375228
O48   O     O_3   0.592100 0.963120 0.586720 -0.379130
P13   P     P_3+3 0.901863 0.738624 0.081827 0.541614
P14   P     P_3+3 0.901818 0.261480 0.581751 0.540781
P15   P     P_3+3 0.401791 0.238541 0.081753 0.540679
P16   P     P_3+3 0.401743 0.761541 0.581719 0.540993
C29   C     C_3   0.994465 0.153276 0.561983 0.433787
C30   C     C_3   0.996710 0.845527 0.065020 0.436054
C31   C     C_3   0.493191 0.652833 0.559768 0.432354
C32   C     C_3   0.493610 0.346969 0.060033 0.433427
H65   H     H_    0.984894 0.177057 0.438509 0.044144
H66   H     H_    0.991537 0.818861 0.945277 0.045759
H67   H     H_    0.481141 0.675042 0.434989 0.043363
H68   H     H_    0.482286 0.324217 0.935688 0.043443
H69   H     H_    0.416577 0.562394 0.478772 0.266333
H70   H     H_    0.416468 0.436948 0.976492 0.266844
H71   H     H_    0.916691 0.064351 0.472212 0.265765
H72   H     H_    0.917918 0.931337 0.957254 0.266962
H73   H     H_    0.476113 0.586564 0.198534 0.283181
H74   H     H_    0.476283 0.413650 0.697755 0.283730
H75   H     H_    0.976595 0.086280 0.198275 0.282518
H76   H     H_    0.978606 0.915953 0.691079 0.284864
C33   C     C_R   0.142417 0.672688 0.917353 -0.548764
C34   C     C_R   0.142450 0.327336 0.417352 -0.548049
C35   C     C_R   0.642535 0.172664 0.917273 -0.548371
C36   C     C_R   0.642043 0.827081 0.417903 -0.546643
C37   C     C_R   0.863516 0.320761 0.265672 0.398874
C38   C     C_R   0.863750 0.679331 0.765688 0.398508
C39   C     C_R   0.363389 0.820848 0.265715 0.399280
C40   C     C_R   0.363489 0.179148 0.765786 0.398921
C41   C     C_R   0.794381 0.210646 0.297833 -0.259337
C42   C     C_R   0.794616 0.789543 0.797771 -0.261223
C43   C     C_R   0.294258 0.710740 0.297895 -0.258792
C44   C     C_R   0.294315 0.289308 0.797876 -0.259105
C45   C     C_R   0.850407 0.262880 0.362468 0.087396
C46   C     C_R   0.850684 0.737299 0.862417 0.088786
C47   C     C_R   0.350251 0.762996 0.362518 0.086409
C48   C     C_R   0.350314 0.237026 0.862561 0.086333
C49   C     C_R   0.814528 0.333333 0.111687 0.085585
C50   C     C_R   0.814658 0.666700 0.611807 0.085664
C51   C     C_R   0.314476 0.833365 0.111662 0.085641
C52   C     C_R   0.314544 0.166633 0.611753 0.085510
C53   C     C_R   0.752753 0.281362 0.048973 -0.231071
C54   C     C_R   0.752844 0.718674 0.549157 -0.231091
C55   C     C_R   0.252715 0.781371 0.048928 -0.231755
C56   C     C_R   0.252767 0.218636 0.549037 -0.231802
C57   C     C_R   0.245004 0.717950 0.141547 -0.070943
C58   C     C_R   0.245050 0.282074 0.641572 -0.070666
C59   C     C_R   0.745085 0.217906 0.141522 -0.070221
C60   C     C_R   0.745184 0.782165 0.641617 -0.070702
C61   C     C_R   0.185377 0.665224 0.077127 0.289245
C62   C     C_R   0.185397 0.334797 0.577124 0.289156
C63   C     C_R   0.685444 0.165196 0.077076 0.289655
C64   C     C_R   0.685334 0.834749 0.577338 0.287313
C65   C     C_R   0.152591 0.731754 0.823940 0.149328
C66   C     C_R   0.152769 0.268293 0.323934 0.150888
C67   C     C_R   0.652744 0.231734 0.823887 0.149788
C68   C     C_R   0.652644 0.768218 0.324215 0.152694
C69   C     C_R   0.197902 0.789205 0.897767 0.341263
C70   C     C_R   0.197925 0.210747 0.397972 0.342155
C71   C     C_R   0.697873 0.289272 0.897904 0.341668
C72   C     C_R   0.697951 0.710736 0.398125 0.341629
H77   H     H_    0.289142 0.665137 0.372449 0.188159
H78   H     H_    0.289225 0.334958 0.872344 0.188211
H79   H     H_    0.789256 0.165030 0.372350 0.187562
H80   H     H_    0.789521 0.835218 0.872281 0.189219
H81   H     H_    0.100816 0.631580 0.864060 0.204552
H82   H     H_    0.100736 0.368408 0.364094 0.204387
H83   H     H_    0.600930 0.131563 0.863951 0.204103
H84   H     H_    0.599856 0.867866 0.365081 0.205072
Br1   Br    Br    0.743178 0.618117 0.997011 -0.444926
Br2   Br    Br    0.742805 0.381959 0.496921 -0.444935
Br3   Br    Br    0.242830 0.118133 0.997699 -0.445501
Br4   Br    Br    0.242908 0.882027 0.496171 -0.446002
Br5   Br    Br    0.642664 0.375604 0.842706 -0.596780
Br6   Br    Br    0.642607 0.624486 0.343335 -0.597624
Br7   Br    Br    0.143407 0.875652 0.840945 -0.595983
Br8   Br    Br    0.142542 0.124582 0.343336 -0.597443
F1    F     F_    0.922126 0.367849 0.327147 -0.676739
F2    F     F_    0.922353 0.632181 0.827190 -0.676617
F3    F     F_    0.421936 0.867974 0.327265 -0.676989
F4    F     F_    0.422155 0.132052 0.827257 -0.676709

loop_
_geom_bond_atom_site_label_1
_geom_bond_atom_site_label_2
_geom_bond_distance
_ccdc_geom_bond_type
P6    C61   1.884227 S    
C15   H31   1.105848 S    
C12   H28   1.107641 S    
P1    O17   1.751369 S    
P5    C62   1.883668 S    
C14   C18   1.517457 S    
P3    O19   1.751860 S    
O3    Ba3   2.858810 S    
C2    H10   1.112834 S    
C20   H40   1.105091 S    
P4    O4    1.537379 D    
C70   Br8   1.882753 S    
C28   H60   1.104834 S    
C9    H23   1.110262 S    
C54   C60   1.443487 A    
C12   H74   1.106512 S    
O8    Ba3   2.845908 S    
C22   H50   1.106843 S    
C26   H62   1.111212 S    
O26   Ba2   2.862357 S    
C27   H59   1.104828 S    
C1    H7    1.108591 S    
P11   O43   1.751314 S    
P7    C64   1.883200 S    
C29   H65   1.109826 S    
P1    O1    1.537332 D    
O15   P16   1.545243 D    
O38   C13   1.399902 S    
C25   H57   1.104966 S    
C3    H5    1.108813 S    
P1    Ba1   3.414888 S    
O37   C14   1.399944 S    
C20   H48   1.105494 S    
P3    O3    1.537332 D    
C24   Br4   1.905576 S    
O29   Ba1   2.831970 S    
P4    O20   1.752021 S    
P3    Ba3   3.414888 S    
P7    O48   1.593012 S    
O31   Ba3   2.831970 S    
C35   C67   1.390355 A    
C16   H32   1.105832 S    
P9    O29   1.727917 S    
C34   C66   1.390404 A    
O22   P13   1.746881 S    
C19   H43   1.108799 S    
C33   C65   1.390285 A    
C36   C68   1.390220 A    
P13   C46   1.869280 S    
C40   F4    1.355429 S    
C25   H53   1.100408 S    
P12   O32   1.728179 S    
Ba4   O47   2.946115 S    
O23   C31   1.401371 S    
C30   H66   1.110711 S    
P5    O37   1.749983 S    
C9    H25   1.108085 S    
P11   C68   1.861731 S    
O4    Ba4   2.857730 S    
C10   H24   1.110333 S    
C60   C64   1.442714 A    
P10   C65   1.861907 S    
O21   C29   1.401473 S    
O16   P15   1.545309 D    
C11   H27   1.107546 S    
P9    C66   1.861447 S    
P2    O18   1.751647 S    
P12   C67   1.861616 S    
C56   C70   1.420272 A    
C40   C48   1.402946 A    
O41   C5    1.409267 S    
C14   H34   1.109419 S    
C38   C50   1.407573 A    
P4    O8    1.587806 S    
O6    Ba1   2.845908 S    
C3    H11   1.109919 S    
C28   H64   1.111732 S    
C43   C47   1.399272 A    
C69   Br7   1.882270 S    
C4    H12   1.110395 S    
C52   C56   1.453518 A    
O9    Ba1   2.833015 S    
C28   H56   1.100321 S    
C54   C72   1.420567 A    
P9    O41   1.751508 S    
O18   C22   1.394545 S    
O12   P15   1.750784 S    
C25   H61   1.111255 S    
C18   H42   1.109268 S    
P2    O2    1.537379 D    
C37   C45   1.402994 A    
C6    H18   1.110157 S    
C5    H17   1.109995 S    
Ba1   O45   2.846930 S    
C51   C55   1.454081 A    
C10   H26   1.108418 S    
C11   H73   1.106527 S    
C1    H71   1.112791 S    
H3    C31   1.109622 S    
C8    H20   1.109758 S    
C16   H36   1.109385 S    
C16   C20   1.517703 S    
P9    O33   1.543911 D    
P4    Ba4   3.414383 S    
O10   P13   1.751076 S    
C19   H47   1.105382 S    
C72   Br6   1.884021 S    
P10   O30   1.727547 S    
C7    H19   1.109886 S    
C68   C72   1.396105 A    
O32   Ba4   2.832386 S    
C2    H72   1.113755 S    
P11   O35   1.543998 D    
O2    Ba2   2.857730 S    
C26   H54   1.100214 S    
P14   C45   1.869386 S    
P5    Ba1   3.416715 S    
C20   H44   1.108679 S    
C23   C27   1.521527 S    
C38   F2    1.355437 S    
C27   H63   1.111062 S    
O23   P16   1.746876 S    
C14   H30   1.105943 S    
C36   H84   1.081372 S    
C42   H80   1.075850 S    
O22   C30   1.402401 S    
O24   P15   1.746961 S    
P3    C51   1.914152 S    
C8    C12   1.518852 S    
O19   C23   1.394553 S    
C22   Br2   1.905901 S    
C35   H83   1.081597 S    
P2    C50   1.914618 S    
C3    C31   1.520923 S    
C42   C46   1.399142 A    
C1    C29   1.523038 S    
C4    C32   1.521527 S    
O42   C6    1.409101 S    
P12   O44   1.751322 S    
C23   Br3   1.905109 S    
P8    Ba4   3.417231 S    
C13   C17   1.517961 S    
O20   C24   1.394712 S    
C39   C51   1.406971 A    
C35   C63   1.396776 A    
C32   H68   1.107916 S    
C31   H67   1.107054 S    
C24   H52   1.106768 S    
C15   C19   1.519661 S    
P6    O26   1.536642 D    
C10   H76   1.107005 S    
P1    O5    1.588558 S    
O44   C8    1.409153 S    
P7    O39   1.750096 S    
C6    C10   1.518871 S    
P7    Ba3   3.416715 S    
O13   P14   1.545246 D    
O12   Ba4   2.832597 S    
O17   C21   1.394452 S    
O25   Ba1   2.861268 S    
O39   C16   1.399924 S    
C21   H49   1.106884 S    
Ba2   O46   2.845860 S    
C7    C11   1.518876 S    
P8    O47   1.593773 S    
C12   H22   1.110179 S    
O30   Ba2   2.832386 S    
C44   H78   1.075222 S    
C11   H21   1.110166 S    
P12   O36   1.543913 D    
Ba1   Ba2   4.642146 S    
P10   O34   1.543878 D    
C2    H8    1.108845 S    
C17   H41   1.108589 S    
P11   O31   1.727921 S    
H2    C30   1.110809 S    
O1    Ba1   2.858810 S    
Ba3   Ba4   4.642146 S    
P2    O6    1.587806 S    
P2    Ba2   3.414383 S    
O9    P14   1.751226 S    
C42   C60   1.412027 A    
C37   C49   1.407202 A    
Ba1   O46   2.946297 S    
O24   C32   1.401514 S    
P7    O27   1.536688 D    
C5    C9    1.519178 S    
C58   C62   1.442715 A    
P4    C52   1.913864 S    
P6    O45   1.593773 S    
C18   H38   1.105605 S    
C57   C61   1.443222 A    
C41   H79   1.075183 S    
C71   Br5   1.883845 S    
C4    H70   1.111465 S    
P15   C48   1.869054 S    
P6    Ba2   3.417231 S    
C8    H16   1.109381 S    
P16   C47   1.869158 S    
O27   Ba3   2.861268 S    
C2    C30   1.523459 S    
C39   C47   1.402737 A    
Ba3   O48   2.946297 S    
C19   H39   1.106464 S    
P6    O38   1.750052 S    
C41   C45   1.399330 A    
C27   H55   1.099790 S    
C17   H37   1.105251 S    
C24   C28   1.522812 S    
C15   H35   1.109285 S    
C43   C57   1.411710 A    
C23   H51   1.106318 S    
O5    Ba2   2.846980 S    
O10   Ba2   2.832597 S    
P8    O40   1.750527 S    
C44   C48   1.399020 A    
C1    H9    1.111651 S    
C41   C59   1.411843 A    
C55   C69   1.420433 A    
C67   C71   1.396501 A    
P10   O42   1.751512 S    
O40   C15   1.399968 S    
C13   H33   1.109346 S    
O11   P16   1.751239 S    
O14   P13   1.545397 D    
C40   C52   1.407206 A    
C18   H46   1.106236 S    
C4    H6    1.108787 S    
O43   C7    1.409316 S    
C53   C71   1.420535 A    
C17   H45   1.105320 S    
C50   C54   1.453458 A    
C59   C63   1.443206 A    
C26   H58   1.104974 S    
C49   C53   1.453909 A    
P5    O25   1.536688 D    
H4    C32   1.110212 S    
P8    C63   1.884320 S    
C44   C58   1.411620 A    
C9    H75   1.106310 S    
C3    H69   1.111091 S    
C33   C61   1.396841 A    
C53   C59   1.443524 A    
O7    Ba4   2.846980 S    
O28   Ba4   2.862357 S    
C65   C69   1.396129 A    
P3    O7    1.588558 S    
Ba4   O48   2.845860 S    
C43   H77   1.075128 S    
Ba2   O45   2.946115 S    
C37   F1    1.355455 S    
C21   C25   1.521721 S    
P8    O28   1.536642 D    
C56   C58   1.443220 A    
C6    H14   1.109916 S    
C34   C62   1.396833 A    
C21   Br1   1.905933 S    
O21   P14   1.746892 S    
C55   C57   1.443435 A    
C5    H13   1.109458 S    
P1    C49   1.914511 S    
C34   H82   1.081548 S    
O11   Ba3   2.833015 S    
P5    O46   1.593012 S    
C38   C46   1.403512 A    
H1    C29   1.111112 S    
C33   H81   1.081586 S    
C66   C70   1.396199 A    
C36   C64   1.396751 A    
C7    H15   1.109475 S    
Ba3   O47   2.846930 S    
C13   H29   1.105926 S    
C39   F3    1.355355 S    
C22   C26   1.521863 S    
