data_mof_unit_33887.cif
_audit_creation_date              2012-12-10T17:03:55-0500
_audit_creation_method            fapswitch 2.2
_symmetry_space_group_name_H-M    P1
_symmetry_Int_Tables_number       1
_space_group_crystal_system       triclinic
_cell_length_a                    9.964441
_cell_length_b                    11.026053
_cell_length_c                    15.806332
_cell_angle_alpha                 96.291923
_cell_angle_beta                  78.72359
_cell_angle_gamma                 111.219742
_cell_volume                      1586.18932175

loop_
_atom_site_label
_atom_site_type_symbol
_atom_type_description
_atom_site_fract_x
_atom_site_fract_y
_atom_site_fract_z
_atom_type_partial_charge
C1    C     C_R   0.555325 0.745044 0.507264 0.853128
C2    C     C_R   0.443285 0.254815 0.494784 0.841049
C3    C     C_R   0.324027 0.465174 0.079481 -0.208202
C4    C     C_R   0.673315 0.613354 0.930318 -0.214101
C5    C     C_R   0.222590 0.433609 0.024507 -0.209738
C6    C     C_R   0.773852 0.648431 0.986205 -0.206564
C7    C     C_2   0.583591 0.884495 0.514500 -0.313424
C8    C     C_2   0.410811 0.114860 0.492809 -0.313154
C9    C     C_2   0.479407 0.929459 0.505875 -0.126986
C10   C     C_2   0.506317 0.068310 0.513108 -0.115156
C11   C     C_2   0.919350 0.480166 0.498918 0.444485
C12   C     C_2   0.072215 0.503764 0.512107 0.470303
C13   C     C_R   0.410720 0.484116 0.662645 0.787864
C14   C     C_R   0.589340 0.517465 0.337626 0.806190
C15   C     C_R   0.355596 0.471793 0.756621 -0.105743
C16   C     C_R   0.645226 0.543601 0.245224 -0.083601
C17   C     C_R   0.163527 0.408170 0.881374 -0.229669
C18   C     C_R   0.833217 0.650910 0.127307 -0.252662
C19   C     C_R   0.205214 0.416847 0.791356 0.279780
C20   C     C_R   0.791830 0.618722 0.214114 0.231301
C21   C     C_R   0.458919 0.515277 0.812230 -0.288136
C22   C     C_R   0.543601 0.503903 0.188698 -0.280490
C23   C     C_R   0.418376 0.505367 0.902173 0.085986
C24   C     C_R   0.581285 0.544192 0.103232 0.082020
C25   C     C_R   0.268023 0.449754 0.936085 0.109763
C26   C     C_R   0.729829 0.614080 0.072025 0.123441
C27   C     C_R   0.523161 0.544977 0.959008 0.077078
C28   C     C_R   0.475683 0.516387 0.047988 0.074270
Cu1   Cu    Cu3+1 0.362980 0.479380 0.485080 1.083016
Cu2   Cu    Cu3+1 0.637020 0.520620 0.514920 1.081830
H1    H     H_    0.107405 0.393955 0.051429 0.155500
H2    H     H_    0.887390 0.702535 0.961794 0.156918
H3    H     H_    0.434720 0.440669 0.213097 0.196019
H4    H     H_    0.571973 0.553243 0.783166 0.180769
H5    H     H_    0.049606 0.364263 0.909393 0.145501
H6    H     H_    0.946291 0.707471 0.103589 0.144794
H7    H     H_    0.279532 0.451715 0.147044 0.184791
H8    H     H_    0.716976 0.645768 0.865555 0.162216
H9    H     H_    0.606774 0.132928 0.533939 0.218106
H10   H     H_    0.373814 0.863810 0.491972 0.214631
H11   H     H_    0.309192 0.049496 0.473487 0.175445
H12   H     H_    0.689460 0.950689 0.527508 0.179005
N1    N     N_2   0.842890 0.551600 0.537350 -0.033977
N2    N     N_2   0.157110 0.448400 0.462650 -0.026553
O1    O     O_R   0.426810 0.668300 0.492040 -0.556243
O2    O     O_R   0.573190 0.331700 0.507960 -0.542265
O3    O     O_R   0.658240 0.703130 0.517240 -0.521018
O4    O     O_R   0.341760 0.296870 0.482760 -0.560718
O5    O     O_R   0.319390 0.472820 0.610170 -0.526330
O6    O     O_R   0.680610 0.527180 0.389830 -0.526742
O7    O     O_R   0.550820 0.507640 0.635370 -0.577218
O8    O     O_R   0.449180 0.492360 0.364630 -0.539236
N3    N     N_2   0.896492 0.668442 0.270278 -0.421124
H13   H     H_    0.957018 0.765988 0.262910 0.256502
C29   C     C_3   0.988610 0.592249 0.267643 -0.529624
H14   H     H_    0.059106 0.596752 0.203315 0.197624
H15   H     H_    0.920961 0.489152 0.281042 0.279224
H16   H     H_    0.059376 0.631942 0.317647 0.249948
N4    N     N_2   0.099544 0.363037 0.735232 -0.381367
H17   H     H_    0.114419 0.287932 0.694088 0.255458
C30   C     C_3   0.948418 0.349320 0.766751 -0.590899
H18   H     H_    0.894767 0.265361 0.809325 0.198093
H19   H     H_    0.889703 0.331067 0.711124 0.237669
H20   H     H_    0.941000 0.440211 0.801996 0.243759
Cl1   Cl    Cl    0.123858 0.587503 0.608922 -0.556342
Cl2   Cl    Cl    0.836407 0.333870 0.441794 -0.600857
Cl3   Cl    Cl    0.145162 0.417267 0.353648 -0.542002
Cl4   Cl    Cl    0.935961 0.716168 0.557202 -0.483337

loop_
_geom_bond_atom_site_label_1
_geom_bond_atom_site_label_2
_ccdc_geom_bond_type
C30   H20   S    
C6    H2    S    
Cu2   O7    S    
C11   N1    D    
Cu1   Cu2   S    
C14   C16   S    
C23   C27   A    
C12   Cl1   S    
N1    Cl4   S    
C18   C20   A    
C18   C26   A    
C11   Cl2   S    
C16   C20   A    
C29   H14   S    
C17   C25   A    
C3    C5    A    
C23   C25   A    
Cu2   O6    S    
N4    H17   S    
C12   N2    D    
C29   H15   S    
Cu1   O5    S    
N3    H13   S    
C2    O2    A    
C15   C19   A    
C10   H9    S    
C1    O1    A    
C6    C26   A    
C1    C7    S    
C13   O5    A    
C8    C10   D    
C3    C28   A    
C17   C19   A    
C24   C26   A    
C22   C24   A    
Cu1   N2    S    
N3    C29   S    
C13   C15   S    
C30   H18   S    
C5    C25   A    
Cu2   N1    S    
N4    C30   S    
Cu1   O1    S    
C14   O6    A    
Cu1   O4    S    
C7    C9    D    
Cu2   O3    S    
C15   C21   A    
C4    C27   A    
C8    H11   S    
C3    H7    S    
C4    C6    A    
C2    O4    A    
C9    C10   S    
C7    H12   S    
C2    C8    S    
C27   C28   A    
C30   H19   S    
C22   H3    S    
C29   H16   S    
C1    O3    A    
N2    Cl3   S    
C16   C22   A    
C21   H4    S    
C17   H5    S    
C19   N4    S    
C13   O7    A    
C18   H6    S    
C21   C23   A    
Cu2   O2    S    
C9    H10   S    
C14   O8    A    
C24   C28   A    
C11   C12   S    
C4    H8    S    
C20   N3    S    
C5    H1    S    
Cu1   O8    S    
