data_mof_unit_19657.cif
_audit_creation_date              2012-12-10T17:01:10-0500
_audit_creation_method            fapswitch 2.2
_symmetry_space_group_name_H-M    P1
_symmetry_Int_Tables_number       1
_space_group_crystal_system       triclinic
_cell_length_a                    15.630603
_cell_length_b                    15.411048
_cell_length_c                    9.737349
_cell_angle_alpha                 89.995596
_cell_angle_beta                  62.638157
_cell_angle_gamma                 89.993978
_cell_volume                      2083.15268946

loop_
_atom_site_label
_atom_site_type_symbol
_atom_type_description
_atom_site_fract_x
_atom_site_fract_y
_atom_site_fract_z
_atom_type_partial_charge
C1    C     C_R   0.376470 0.121689 0.556422 0.925820
C2    C     C_R   0.631049 0.884972 0.440177 0.897263
C3    C     C_R   0.623528 0.121690 0.443568 0.924954
C4    C     C_R   0.369014 0.884964 0.559816 0.902296
C5    C     C_R   0.876522 0.621747 0.556417 0.939827
C6    C     C_R   0.131053 0.384992 0.440170 0.903520
C7    C     C_R   0.123513 0.621692 0.443582 0.927042
C8    C     C_R   0.868942 0.384997 0.559830 0.903407
C9    C     C_2   0.510183 0.011215 0.917622 0.102940
C10   C     C_2   0.489686 0.010882 0.082557 0.096870
C11   C     C_2   0.010281 0.510791 0.917507 0.100162
C12   C     C_2   0.989749 0.510929 0.082446 0.099536
C13   C     C_2   0.291399 0.823612 0.588272 -0.452441
C14   C     C_2   0.686765 0.195404 0.423370 -0.318327
C15   C     C_2   0.708911 0.823771 0.411758 -0.438344
C16   C     C_2   0.313279 0.195437 0.576566 -0.319977
C17   C     C_2   0.791137 0.323765 0.588274 -0.449218
C18   C     C_2   0.186536 0.695556 0.423426 -0.322441
C19   C     C_2   0.208840 0.323735 0.411709 -0.450996
C20   C     C_2   0.813352 0.695555 0.576634 -0.370446
C21   C     C_2   0.242046 0.821661 0.505101 0.373358
C22   C     C_2   0.670853 0.253943 0.536342 0.319647
C23   C     C_2   0.758193 0.822035 0.495104 0.353311
C24   C     C_2   0.329175 0.253909 0.463492 0.318633
C25   C     C_2   0.741948 0.321838 0.504800 0.373545
C26   C     C_2   0.171111 0.753624 0.536880 0.327737
C27   C     C_2   0.258134 0.321854 0.495008 0.375173
C28   C     C_2   0.829326 0.754157 0.463715 0.313845
Cu1   Cu    Cu3+1 0.522650 0.000000 0.349410 1.089656
Cu2   Cu    Cu3+1 0.477350 0.000000 0.650590 1.088096
Cu3   Cu    Cu3+1 0.022650 0.500000 0.349410 1.088262
Cu4   Cu    Cu3+1 0.977350 0.500000 0.650590 1.086653
H1    H     H_    0.625971 0.990854 0.036704 0.236412
H2    H     H_    0.374152 0.990068 0.963163 0.227014
H3    H     H_    0.125920 0.490460 0.036791 0.226949
H4    H     H_    0.874029 0.490787 0.963255 0.226134
H5    H     H_    0.750066 0.201845 0.311704 0.163616
H6    H     H_    0.273741 0.777199 0.681577 0.160632
H7    H     H_    0.250038 0.201975 0.688285 0.162901
H8    H     H_    0.726830 0.777350 0.318402 0.157466
H9    H     H_    0.249223 0.702615 0.311169 0.161757
H10   H     H_    0.773180 0.277442 0.681794 0.163160
H11   H     H_    0.750058 0.702036 0.688301 0.156583
H12   H     H_    0.226692 0.277351 0.318315 0.159992
H13   H     H_    0.416608 0.020840 0.170882 0.219775
H14   H     H_    0.583165 0.021850 0.829457 0.223303
H15   H     H_    0.916705 0.521199 0.170667 0.219314
H16   H     H_    0.083358 0.520762 0.829226 0.220702
N1    N     N_2   0.443290 0.000000 0.876860 -0.283467
N2    N     N_2   0.556710 0.000000 0.123140 -0.281616
N3    N     N_2   0.943290 0.500000 0.876860 -0.282447
N4    N     N_2   0.056710 0.500000 0.123140 -0.281815
O1    O     O_R   0.422430 0.089640 0.419570 -0.533913
O2    O     O_R   0.577570 0.910360 0.580430 -0.526649
O3    O     O_R   0.577570 0.089640 0.580430 -0.535036
O4    O     O_R   0.422430 0.910360 0.419570 -0.527575
O5    O     O_R   0.922430 0.589640 0.419570 -0.530830
O6    O     O_R   0.077570 0.410360 0.580430 -0.526226
O7    O     O_R   0.077570 0.589640 0.580430 -0.531299
O8    O     O_R   0.922430 0.410360 0.419570 -0.526695
O9    O     O_R   0.384170 0.089650 0.673910 -0.555721
O10   O     O_R   0.615830 0.910350 0.326090 -0.584480
O11   O     O_R   0.615830 0.089650 0.326090 -0.553250
O12   O     O_R   0.384170 0.910350 0.673910 -0.583380
O13   O     O_R   0.884170 0.589650 0.673910 -0.559534
O14   O     O_R   0.115830 0.410350 0.326090 -0.583620
O15   O     O_R   0.115830 0.589650 0.326090 -0.556895
O16   O     O_R   0.884170 0.410350 0.673910 -0.582734
S1    S     S_3+6 0.563651 0.262674 0.713946 0.083450
O17   O     O_2   0.476895 0.248045 0.688949 -0.210049
O18   O     O_2   0.564881 0.196668 0.826412 -0.287199
O19   O     O_3   0.555836 0.362488 0.788991 -0.472991
H17   H     H_    0.593716 0.359625 0.847141 0.366016
S2    S     S_3+6 0.250571 0.899597 0.366122 0.017854
O20   O     O_2   0.262685 0.989077 0.415949 -0.315749
O21   O     O_2   0.334895 0.876444 0.214519 -0.345657
O22   O     O_3   0.149581 0.896992 0.345244 -0.432238
H18   H     H_    0.162723 0.935989 0.256881 0.384916
S3    S     S_3+6 0.436267 0.262452 0.285678 0.083399
O23   O     O_2   0.523120 0.247919 0.310463 -0.208767
O24   O     O_2   0.434880 0.196270 0.173600 -0.288997
O25   O     O_3   0.444039 0.362157 0.210243 -0.472974
H19   H     H_    0.406137 0.359157 0.152142 0.365984
S4    S     S_3+6 0.749183 0.900185 0.634060 0.025659
O26   O     O_2   0.736778 0.989547 0.584198 -0.284588
O27   O     O_2   0.664390 0.877518 0.785523 -0.360063
O28   O     O_3   0.849997 0.898890 0.655737 -0.426746
H20   H     H_    0.834501 0.862117 0.747599 0.383858
S5    S     S_3+6 0.065218 0.761000 0.716631 0.073811
O29   O     O_2   0.977425 0.744561 0.695364 -0.246975
O30   O     O_2   0.069629 0.695463 0.827281 -0.289078
O31   O     O_3   0.056425 0.860948 0.791681 -0.467439
H21   H     H_    0.094788 0.858798 0.849091 0.367407
S6    S     S_3+6 0.750851 0.399703 0.365510 0.016428
O32   O     O_2   0.762871 0.489195 0.415400 -0.317377
O33   O     O_2   0.835381 0.376469 0.214206 -0.342510
O34   O     O_3   0.650100 0.397116 0.343935 -0.435270
H22   H     H_    0.663417 0.436175 0.255581 0.383402
S7    S     S_3+6 0.936477 0.762725 0.286020 0.082893
O35   O     O_2   0.023246 0.748128 0.311000 -0.211260
O36   O     O_2   0.935172 0.696599 0.173791 -0.287672
O37   O     O_3   0.944321 0.862464 0.210678 -0.468773
H23   H     H_    0.906297 0.859568 0.152768 0.366073
S8    S     S_3+6 0.249408 0.399788 0.634065 0.016365
O38   O     O_2   0.237161 0.489244 0.584274 -0.318602
O39   O     O_2   0.165093 0.376514 0.785596 -0.343189
O40   O     O_3   0.350358 0.397328 0.655073 -0.435043
H24   H     H_    0.337138 0.436377 0.743395 0.383795

loop_
_geom_bond_atom_site_label_1
_geom_bond_atom_site_label_2
_ccdc_geom_bond_type
Cu3   O14   S    
C21   C26   S    
Cu1   O11   S    
Cu2   O12   S    
C6    O6    A    
C18   C26   D    
S4    O28   S    
Cu4   O6    S    
Cu3   N4    S    
O28   H20   S    
S8    O39   D    
O34   H22   S    
C5    C20   S    
O22   H18   S    
C26   S5    S    
Cu3   O15   S    
C6    C19   S    
Cu2   O2    S    
S2    O21   D    
S4    O27   D    
C9    H14   S    
C27   S8    S    
C4    C13   S    
S1    O18   D    
C1    O1    A    
C17   H10   S    
C3    O3    A    
S7    O35   D    
C22   C25   S    
O40   H24   S    
C24   C27   S    
S5    O30   D    
C19   C27   D    
C9    C10   S    
C22   S1    S    
Cu4   O16   S    
C15   C23   D    
C25   S6    S    
C16   C24   D    
C4    O4    A    
C11   H16   S    
S1    O17   D    
C12   H15   S    
C7    O7    A    
S8    O38   D    
C12   N4    D    
Cu1   N2    S    
S2    O20   D    
O37   H23   S    
C9    N1    D    
S4    O26   D    
C5    O13   A    
C2    O2    A    
C18   H9    S    
S3    O24   D    
C23   S4    S    
C20   C28   D    
S6    O34   S    
H1    N2    S    
C21   S2    S    
S2    O22   S    
Cu3   O8    S    
S1    O19   S    
Cu4   N3    S    
Cu1   Cu2   S    
C24   S3    S    
Cu3   Cu4   S    
C7    C18   S    
C10   H13   S    
C13   C21   D    
C1    C16   S    
C23   C28   S    
S5    O31   S    
S6    O33   D    
C2    C15   S    
C3    C14   S    
C13   H6    S    
H4    N3    S    
C28   S7    S    
S7    O36   D    
Cu2   N1    S    
C8    O16   A    
C10   N2    D    
C20   H11   S    
C19   H12   S    
Cu1   O10   S    
H2    N1    S    
O19   H17   S    
C1    O9    A    
S3    O25   S    
C11   C12   S    
Cu1   O4    S    
C3    O11   A    
Cu2   O3    S    
C4    O12   A    
C8    C17   S    
C5    O5    A    
C17   C25   D    
C14   C22   D    
C8    O8    A    
C14   H5    S    
Cu3   O5    S    
Cu1   O1    S    
O31   H21   S    
S6    O32   D    
C15   H8    S    
C11   N3    D    
C16   H7    S    
C7    O15   A    
S3    O23   D    
C6    O14   A    
S7    O37   S    
O25   H19   S    
Cu2   O9    S    
H3    N4    S    
Cu4   O7    S    
S5    O29   D    
S8    O40   S    
C2    O10   A    
Cu4   O13   S    
