data_mof_unit_11115.cif
_audit_creation_date              2012-12-10T17:52:24-0500
_audit_creation_method            fapswitch 2.2
_symmetry_space_group_name_H-M    P1
_symmetry_Int_Tables_number       1
_space_group_crystal_system       triclinic
_cell_length_a                    19.130008
_cell_length_b                    10.66742
_cell_length_c                    9.956075
_cell_angle_alpha                 89.516628
_cell_angle_beta                  89.170588
_cell_angle_gamma                 89.408356
_cell_volume                      2031.32366616

loop_
_atom_site_label
_atom_site_type_symbol
_atom_type_description
_atom_site_fract_x
_atom_site_fract_y
_atom_site_fract_z
_atom_type_partial_charge
C1    C     C_R   0.500025 0.260450 0.500087 0.934860
C2    C     C_R   0.291163 0.492087 0.499017 -0.087717
C3    C     C_R   0.931402 0.458510 0.484546 0.365799
C4    C     C_R   0.071792 0.468877 0.483879 0.422256
C5    C     C_R   0.817191 0.397031 0.588437 0.369551
C6    C     C_R   0.744034 0.414677 0.597783 0.361268
C7    C     C_R   0.709987 0.485893 0.497826 -0.085750
C8    C     C_R   0.747981 0.542286 0.393435 -0.236505
C9    C     C_R   0.820037 0.532072 0.389565 -0.203890
C10   C     C_R   0.855087 0.461422 0.487387 -0.010424
C11   C     C_R   0.385574 0.132877 0.632038 -0.143812
C12   C     C_R   0.366086 0.499399 0.500558 0.893016
C13   C     C_R   0.334146 0.069325 0.705338 -0.052680
C14   C     C_R   0.335442 0.939317 0.712283 -0.106504
C15   C     C_R   0.387024 0.872244 0.643059 -0.139318
C16   C     C_R   0.440730 0.935270 0.571124 0.124699
C17   C     C_R   0.441175 0.066620 0.568184 0.039383
C18   C     C_R   0.496660 0.127491 0.499021 -0.228696
C19   C     C_R   0.548263 0.060127 0.426050 0.384437
C20   C     C_R   0.544839 0.931942 0.425017 -0.252588
C21   C     C_R   0.493395 0.870924 0.498930 -0.106546
C22   C     C_R   0.376454 0.564389 0.126789 0.380736
C23   C     C_R   0.497424 0.738929 0.499698 0.892343
C24   C     C_R   0.313897 0.517140 0.077523 -0.291175
C25   C     C_R   0.314820 0.444739 0.960829 0.412511
C26   C     C_R   0.377027 0.435674 0.884397 -0.221207
C27   C     C_R   0.438902 0.487641 0.932819 0.045853
C28   C     C_R   0.439317 0.517765 0.070792 -0.070571
C29   C     C_R   0.560957 0.490057 0.069541 0.552605
C30   C     C_R   0.560554 0.499231 0.925859 -0.193110
C31   C     C_R   0.634293 0.498525 0.499331 0.969226
C32   C     C_R   0.260824 0.399010 0.422280 -0.270435
C33   C     C_R   0.188623 0.389569 0.416979 0.416108
C34   C     C_R   0.146941 0.479031 0.485452 -0.208267
C35   C     C_R   0.177815 0.576214 0.559210 0.375880
C36   C     C_R   0.250275 0.579885 0.567864 -0.158836
H1    H     H_    0.293887 0.332176 0.369244 0.192610
H2    H     H_    0.380687 0.233495 0.624670 0.145181
H3    H     H_    0.292866 0.120609 0.756394 0.218736
H4    H     H_    0.295806 0.890173 0.769911 0.215181
H5    H     H_    0.383913 0.771259 0.646306 0.153305
H6    H     H_    0.584037 0.878056 0.370131 0.189180
H7    H     H_    0.264533 0.543975 0.124172 0.226769
H8    H     H_    0.378222 0.377574 0.796970 0.211513
H9    H     H_    0.609374 0.500541 0.869961 0.180489
H10   H     H_    0.274971 0.652315 0.625442 0.161689
H11   H     H_    0.721937 0.597355 0.316694 0.202996
H12   H     H_    0.848410 0.581019 0.310513 0.202241
N1    N     N_R   0.036448 0.491622 0.369389 -0.065740
N2    N     N_R   0.967175 0.486546 0.369760 -0.142771
N3    N     N_R   0.967254 0.435852 0.598796 -0.046231
N4    N     N_R   0.036455 0.440536 0.598481 -0.081238
N5    N     N_R   0.499340 0.498800 0.142780 -0.111414
N6    N     N_R   0.499320 0.498720 0.857170 -0.107148
O1    O     O_R   0.500000 0.316780 0.614690 -0.613337
O2    O     O_R   0.499990 0.316750 0.385360 -0.566032
O3    O     O_R   0.398140 0.500000 0.614700 -0.651539
O4    O     O_R   0.398130 0.499970 0.385370 -0.611533
O5    O     O_R   0.500010 0.683250 0.614640 -0.645381
O6    O     O_R   0.500000 0.683220 0.385310 -0.538802
O7    O     O_R   0.601870 0.500030 0.614630 -0.589787
O8    O     O_R   0.601860 0.500000 0.385300 -0.542287
Zn1   Zn    Zn3+2 0.500000 0.500020 0.653130 0.981545
Zn2   Zn    Zn3+2 0.500000 0.499980 0.346870 1.094055
O9    O     O_3   0.623162 0.476331 0.135981 -0.698946
H13   H     H_    0.662118 0.470848 0.069432 0.323961
S1    S     S_3+6 0.373163 0.722384 0.180737 0.069801
O10   O     O_2   0.320302 0.793256 0.098538 -0.258038
O11   O     O_2   0.351178 0.731390 0.325691 -0.288471
O12   O     O_3   0.451460 0.790332 0.158049 -0.511142
H14   H     H_    0.458384 0.795399 0.059358 0.349192
S2    S     S_3+6 0.237762 0.372271 0.908486 0.052201
O13   O     O_2   0.229728 0.250806 0.984329 -0.231948
O14   O     O_2   0.175891 0.455857 0.938603 -0.197530
O15   O     O_3   0.241754 0.342706 0.743261 -0.623487
H15   H     H_    0.196291 0.304206 0.722631 0.394667
S3    S     S_3+6 0.152225 0.262888 0.328492 0.079386
O16   O     O_2   0.208258 0.170284 0.287856 -0.232323
O17   O     O_2   0.099033 0.197963 0.416415 -0.266352
O18   O     O_3   0.112887 0.318843 0.190196 -0.467897
H16   H     H_    0.092338 0.244500 0.147512 0.414892
S4    S     S_3+6 0.127607 0.695787 0.638727 0.098721
O19   O     O_2   0.067769 0.736063 0.551569 -0.262833
O20   O     O_2   0.098822 0.646143 0.769637 -0.167407
O21   O     O_3   0.177271 0.820988 0.669747 -0.521329
H17   H     H_    0.191154 0.853778 0.579970 0.372413
O22   O     O_3   0.852275 0.315009 0.672642 -0.722639
H18   H     H_    0.820048 0.247694 0.701848 0.364205
O23   O     O_3   0.704819 0.361470 0.700611 -0.739211
H19   H     H_    0.733908 0.355512 0.781971 0.341773
S5    S     S_3+6 0.619798 0.130776 0.339783 0.072109
O24   O     O_2   0.594077 0.196254 0.215491 -0.207308
O25   O     O_2   0.653522 0.224649 0.428863 -0.309549
O26   O     O_3   0.679978 0.022622 0.293907 -0.517894
H20   H     H_    0.702572 0.996261 0.378637 0.356231

loop_
_geom_bond_atom_site_label_1
_geom_bond_atom_site_label_2
_ccdc_geom_bond_type
C8    C9    A    
O22   H18   S    
C16   C21   A    
C31   O7    A    
C30   H9    S    
C35   C36   A    
C2    C12   S    
C27   N6    A    
C26   H8    S    
C7    C8    A    
S3    O16   D    
C23   O5    A    
C30   N6    A    
C26   C27   A    
C4    N4    A    
C1    O2    A    
C34   C35   A    
C5    C6    A    
N5    Zn2   S    
N6    Zn1   S    
C15   C16   A    
C2    C32   A    
C18   C19   A    
O7    Zn1   S    
O8    Zn2   S    
C35   S4    S    
C19   C20   A    
C16   C17   A    
O1    Zn1   S    
O2    Zn2   S    
C36   H10   S    
O12   H14   S    
C9    C10   A    
C12   O4    A    
C22   C28   A    
C13   C14   A    
C31   O8    A    
S2    O15   S    
C3    N2    A    
O3    Zn1   S    
S3    O17   D    
O4    Zn2   S    
C23   O6    A    
C4    C34   S    
C7    C31   S    
S1    O10   D    
C24   C25   A    
C15   H5    S    
S2    O14   D    
S5    O24   D    
C3    N3    A    
O18   H16   S    
C25   C26   A    
O21   H17   S    
N3    N4    A    
S1    O11   D    
C11   H2    S    
O15   H15   S    
C29   C30   A    
S5    O25   D    
C17   C18   A    
C1    C18   S    
C25   S2    S    
C32   H1    S    
C29   O9    S    
C12   O3    A    
O9    H13   S    
S4    O20   D    
C21   C23   S    
N1    N2    A    
C22   C24   A    
C6    O23   S    
S3    O18   S    
C2    C36   A    
C11   C17   A    
S2    O13   D    
C20   H6    S    
C28   N5    A    
C6    C7    A    
S4    O21   S    
O5    Zn1   S    
C4    N1    A    
O6    Zn2   S    
S1    O12   S    
C32   C33   A    
C1    O1    A    
C8    H11   S    
C5    C10   A    
C3    C10   S    
S5    O26   S    
C11   C13   A    
C33   S3    S    
C29   N5    A    
C33   C34   A    
O26   H20   S    
C22   S1    S    
C13   H3    S    
C19   S5    S    
C14   H4    S    
C5    O22   S    
C20   C21   A    
C9    H12   S    
S4    O19   D    
C27   C28   A    
C24   H7    S    
C14   C15   A    
O23   H19   S    
