data_mof_unit_7006.cif
_audit_creation_date              2013-03-05T16:49:12-0500
_audit_creation_method            fapswitch 2.2
_symmetry_space_group_name_H-M    P1
_symmetry_Int_Tables_number       1
_space_group_crystal_system       triclinic
_cell_length_a                    17.393362
_cell_length_b                    8.904797
_cell_length_c                    8.177652
_cell_angle_alpha                 90.486503
_cell_angle_beta                  90.341265
_cell_angle_gamma                 89.153678
_cell_volume                      1266.38501648

loop_
_atom_site_label
_atom_site_type_symbol
_atom_site_description
_atom_site_fract_x
_atom_site_fract_y
_atom_site_fract_z
_atom_type_partial_charge
O1    O     O_R   0.500000 0.285350 0.636850 -0.606568
O2    O     O_R   0.500000 0.714650 0.363150 -0.598570
O3    O     O_R   0.500000 0.714650 0.636850 -0.609390
O4    O     O_R   0.500000 0.285350 0.363150 -0.615112
C1    C     C_R   0.500063 0.218322 0.499562 0.942435
C2    C     C_R   0.499819 0.781681 0.500435 0.919289
O5    O     O_R   0.389120 0.500000 0.636930 -0.594353
O6    O     O_R   0.610880 0.500000 0.363070 -0.558040
O7    O     O_R   0.610880 0.500000 0.636930 -0.555706
O8    O     O_R   0.389120 0.500000 0.363070 -0.585039
C3    C     C_1   0.499909 0.065304 0.499367 -0.103714
C4    C     C_1   0.499827 0.934685 0.500627 -0.095772
C5    C     C_R   0.353156 0.504316 0.499350 1.013529
C6    C     C_R   0.647896 0.507888 0.500936 0.950141
Zn1   Zn    Zn3+2 0.500000 0.500000 0.682780 1.117505
Zn2   Zn    Zn3+2 0.500000 0.500000 0.317220 1.123851
C7    C     C_R   0.843527 0.644116 0.652384 0.339305
C8    C     C_R   0.162766 0.690495 0.416453 0.375236
C9    C     C_R   0.142877 0.476752 0.595652 0.362662
C10   C     C_R   0.851480 0.590081 0.360105 0.312095
C11   C     C_R   0.767235 0.593840 0.651333 0.148979
C12   C     C_R   0.240967 0.654850 0.408981 0.193409
C13   C     C_R   0.222175 0.444100 0.594913 0.158639
C14   C     C_R   0.774451 0.547021 0.358872 0.161815
C15   C     C_R   0.731452 0.545589 0.504283 -0.366310
C16   C     C_R   0.270666 0.531360 0.497665 -0.392105
C17   C     C_R   0.885196 0.636276 0.507020 -0.154188
C18   C     C_R   0.114707 0.603568 0.512665 -0.212257
C19   C     C_1   0.966393 0.645728 0.513230 0.117419
C20   C     C_1   0.034602 0.634733 0.514872 0.087711
N1    N     N_1   0.500000 0.500000 0.073640 0.041788
N2    N     N_1   0.500000 0.500000 0.926360 0.039224
O9    O     O_3   0.882341 0.678143 0.797107 -0.637049
C21   C     C_3   0.855110 0.814632 0.868193 0.152205
H1    H     H_    0.881981 0.824716 0.991310 0.194483
H2    H     H_    0.792613 0.814683 0.889908 0.206280
C22   C     C_3   0.876882 0.954073 0.770338 -0.489170
H3    H     H_    0.940152 0.968214 0.775531 0.234548
H4    H     H_    0.858890 0.941744 0.640422 0.240089
C23   C     C_3   0.837496 0.094648 0.841023 -0.838149
H5    H     H_    0.774002 0.082888 0.836896 0.293021
H6    H     H_    0.852496 0.194356 0.768112 0.260236
H7    H     H_    0.855995 0.113270 0.969795 0.262304
O10   O     O_3   0.133912 0.810862 0.327931 -0.606608
C24   C     C_3   0.107464 0.758846 0.173735 0.064124
H8    H     H_    0.044372 0.742308 0.180326 0.168457
H9    H     H_    0.135317 0.650717 0.133499 0.155564
C25   C     C_3   0.123391 0.876624 0.043937 -0.274188
H10   H     H_    0.089211 0.980190 0.070112 0.207508
H11   H     H_    0.185370 0.905252 0.046848 0.289485
C26   C     C_3   0.102765 0.818163 0.873597 -0.919237
H12   H     H_    0.138515 0.717470 0.843662 0.288613
H13   H     H_    0.113994 0.905493 0.781273 0.268024
H14   H     H_    0.041097 0.788074 0.867475 0.271517
O11   O     O_3   0.092239 0.387680 0.680579 -0.615256
C27   C     C_3   0.086166 0.244421 0.604507 0.162532
H15   H     H_    0.090658 0.158394 0.701534 0.177223
H16   H     H_    0.132256 0.217309 0.513906 0.162826
C28   C     C_3   0.007981 0.230675 0.520290 -0.427545
H17   H     H_    0.961494 0.247285 0.610960 0.232717
H18   H     H_    0.001892 0.319516 0.427197 0.225497
C29   C     C_3   0.999598 0.077636 0.437254 -0.906931
H19   H     H_    0.042891 0.064170 0.339079 0.292329
H20   H     H_    0.941274 0.068573 0.382434 0.256899
H21   H     H_    0.008250 0.985838 0.526663 0.274298
O12   O     O_3   0.893734 0.596785 0.216714 -0.647601
C30   C     C_3   0.906939 0.451492 0.149827 0.138169
H22   H     H_    0.867948 0.435408 0.043192 0.230284
H23   H     H_    0.896965 0.358866 0.238198 0.120217
C31   C     C_3   0.989965 0.440070 0.090162 -0.354973
H24   H     H_    0.999860 0.526922 0.996065 0.268391
H25   H     H_    0.029734 0.460705 0.194292 0.196827
C32   C     C_3   0.008121 0.285774 0.016989 -0.890293
H26   H     H_    0.992297 0.195687 0.102667 0.244265
H27   H     H_    0.070608 0.275953 0.991570 0.307597
H28   H     H_    0.975851 0.270661 0.901060 0.277074
N3    N     N_R   0.727769 0.581835 0.801584 0.246443
O13   O     O_R   0.722087 0.448419 0.863074 -0.324151
O14   O     O_R   0.676194 0.684309 0.837511 -0.366031
N4    N     N_R   0.290240 0.748680 0.315665 0.226920
O15   O     O_R   0.311825 0.705698 0.170390 -0.367893
O16   O     O_R   0.300164 0.887494 0.360845 -0.342793
N5    N     N_R   0.252459 0.321682 0.690706 0.228241
O17   O     O_R   0.299868 0.223841 0.626167 -0.378533
O18   O     O_R   0.228661 0.301816 0.839425 -0.359145
N6    N     N_R   0.739131 0.511706 0.207447 0.246087
O19   O     O_R   0.725478 0.371615 0.172866 -0.378741
O20   O     O_R   0.698751 0.617199 0.137913 -0.304916

loop_
_geom_bond_atom_site_label_1
_geom_bond_atom_site_label_2
_geom_bond_distance
_ccdc_geom_bond_type
O11   C27   1.419600 S    
C17   C19   1.416629 S    
C21   C22   1.536214 S    
C32   H26   1.108401 S    
O3    C2    1.269634 A    
Zn1   N2    1.991912 S    
N3    O13   1.299330 A    
Zn2   N1    1.991912 S    
C29   H19   1.108542 S    
C13   N5    1.439464 S    
O1    C1    1.267009 A    
C10   O12   1.389766 S    
C1    C3    1.362622 S    
C22   C23   1.528892 S    
C2    C4    1.362456 S    
N6    O20   1.297655 A    
C13   C16   1.409050 A    
C27   H15   1.109197 S    
C21   H1    1.110977 S    
C24   H9    1.119298 S    
C29   H20   1.110397 S    
C25   C26   1.525565 S    
N5    O17   1.301449 A    
C31   H24   1.111532 S    
O1    Zn1   1.944837 S    
C19   C20   1.188967 T    
O2    Zn2   1.944836 S    
C23   H6    1.108865 S    
O12   C30   1.416537 S    
C28   H17   1.107790 S    
O6    Zn2   1.962492 S    
C32   H27   1.109823 S    
O2    C2    1.267000 A    
C7    O9    1.392367 S    
N3    O14   1.303128 A    
C28   H18   1.106079 S    
C30   H22   1.111115 S    
C7    C17   1.396643 A    
C10   C14   1.398974 A    
C8    C18   1.397948 A    
C14   C15   1.408786 A    
N4    O16   1.300794 A    
N6    O19   1.301739 A    
O4    C1    1.269622 A    
O5    Zn1   1.962494 S    
C24   H8    1.111069 S    
C7    C11   1.406672 A    
C26   H12   1.110029 S    
C26   H13   1.108659 S    
O4    Zn2   1.951095 S    
C9    C13   1.405412 A    
O7    C6    1.291292 A    
C22   H3    1.110029 S    
C8    O10   1.384819 S    
N1    N2    1.204404 T    
C23   H7    1.111089 S    
C31   C32   1.523506 S    
O9    C21   1.419066 S    
C9    C18   1.403056 A    
C23   H5    1.111147 S    
N5    O18   1.301350 A    
C32   H28   1.107076 S    
C5    C16   1.451326 S    
O3    Zn1   1.951095 S    
O10   C24   1.416202 S    
C24   C25   1.527857 S    
C9    O11   1.387254 S    
C11   C15   1.417126 A    
C25   H10   1.109834 S    
C28   C29   1.525942 S    
O6    C6    1.296866 A    
C29   H21   1.109343 S    
C8    C12   1.393729 A    
N4    O15   1.300826 A    
O8    C5    1.281265 A    
C3    C4    1.163294 T    
C10   C17   1.395297 A    
C27   C28   1.526746 S    
C30   C31   1.528735 S    
C26   H14   1.110154 S    
C18   C20   1.416842 S    
O7    Zn1   1.966877 S    
C12   N4    1.433421 S    
C22   H4    1.110751 S    
O8    Zn2   1.966878 S    
C25   H11   1.111478 S    
C27   H16   1.117233 S    
C21   H2    1.102481 S    
C6    C15   1.496455 S    
O5    C5    1.284615 A    
C12   C16   1.412211 A    
C11   N3    1.416609 S    
C31   H25   1.109708 S    
C30   H23   1.117357 S    
C14   N6    1.414110 S    
